0:0:0
     RDKit          3D

 42 45  0  0  1  0  0  0  0  0999 V2000
    6.1553   -1.0288    2.1086 C   0  0  0  0  0  0  0  0  0  0  0  0
    5.3852    0.0324    1.5477 O   0  0  0  0  0  0  0  0  0  0  0  0
    4.1809   -0.2288    0.8539 C   0  0  2  0  0  0  0  0  0  0  0  0
    3.1402   -0.7984    1.7261 N   0  0  0  0  0  0  0  0  0  0  0  0
    2.2106    0.1165    2.3249 C   0  0  0  0  0  0  0  0  0  0  0  0
    0.9019   -0.3259    2.6451 C   0  0  0  0  0  0  0  0  0  0  0  0
   -0.0210    0.5590    3.2276 C   0  0  0  0  0  0  0  0  0  0  0  0
    0.3727    1.8884    3.4614 C   0  0  0  0  0  0  0  0  0  0  0  0
   -0.8229    3.1338    4.2727 Br  0  0  0  0  0  0  0  0  0  0  0  0
    1.6808    2.2625    3.0953 C   0  0  0  0  0  0  0  0  0  0  0  0
    2.5674    1.4002    2.5582 N   0  0  0  0  0  0  0  0  0  0  0  0
    3.1850   -2.1267    2.0325 C   0  0  0  0  0  0  0  0  0  0  0  0
    2.7352   -2.5690    3.0940 O   0  0  0  0  0  0  0  0  0  0  0  0
    3.8939   -3.1394    1.0993 C   0  0  1  0  0  0  0  0  0  0  0  0
    2.9717   -4.2965    0.8408 C   0  0  0  0  0  0  0  0  0  0  0  0
    2.1908   -4.5738   -0.3166 C   0  0  0  0  0  0  0  0  0  0  0  0
    1.4044   -5.6299   -0.1780 N   0  0  0  0  0  0  0  0  0  0  0  0
    1.7151   -6.1114    1.0405 N   0  0  0  0  0  0  0  0  0  0  0  0
    1.0844   -7.3243    1.5008 C   0  0  0  0  0  0  0  0  0  0  0  0
    2.6229   -5.3019    1.6948 C   0  0  0  0  0  0  0  0  0  0  0  0
    4.3449   -2.4856   -0.1729 C   0  0  0  0  0  0  0  0  0  0  0  0
    4.7784   -2.8688   -1.3991 C   0  0  0  0  0  0  0  0  0  0  0  0
    4.9275   -4.2146   -1.9992 C   0  0  0  0  0  0  0  0  0  0  0  0
    5.1260   -1.7369   -2.1429 N   0  0  0  0  0  0  0  0  0  0  0  0
    4.9238   -0.6766   -1.4324 N   0  0  0  0  0  0  0  0  0  0  0  0
    4.4427   -1.1224   -0.2523 N   0  0  0  0  0  0  0  0  0  0  0  0
    7.0268   -0.6293    2.6082 H   0  0  0  0  0  0  0  0  0  0  0  0
    6.5213   -1.7022    1.3386 H   0  0  0  0  0  0  0  0  0  0  0  0
    5.6364   -1.5899    2.8802 H   0  0  0  0  0  0  0  0  0  0  0  0
    3.8232    0.7310    0.4753 H   0  0  0  0  0  0  0  0  0  0  0  0
    0.6098   -1.3398    2.4375 H   0  0  0  0  0  0  0  0  0  0  0  0
   -1.0143    0.2158    3.4892 H   0  0  0  0  0  0  0  0  0  0  0  0
    2.0411    3.2673    3.2553 H   0  0  0  0  0  0  0  0  0  0  0  0
    4.7677   -3.5016    1.6306 H   0  0  0  0  0  0  0  0  0  0  0  0
    2.1525   -4.0203   -1.2465 H   0  0  0  0  0  0  0  0  0  0  0  0
    1.3776   -7.5217    2.5297 H   0  0  0  0  0  0  0  0  0  0  0  0
    1.3995   -8.1695    0.8835 H   0  0  0  0  0  0  0  0  0  0  0  0
    0.0009   -7.2150    1.4405 H   0  0  0  0  0  0  0  0  0  0  0  0
    2.9344   -5.4982    2.7103 H   0  0  0  0  0  0  0  0  0  0  0  0
    4.7974   -5.0204   -1.2670 H   0  0  0  0  0  0  0  0  0  0  0  0
    5.9132   -4.2773   -2.4474 H   0  0  0  0  0  0  0  0  0  0  0  0
    4.2121   -4.3242   -2.8099 H   0  0  0  0  0  0  0  0  0  0  0  0
  1  2  1  0
  1 27  1  0
  1 28  1  0
  1 29  1  0
  2  3  1  0
  3 26  1  0
  3  4  1  0
  3 30  1  6
  4  5  1  0
  4 12  1  0
  5 11  1  0
  5  6  2  0
  6  7  1  0
  6 31  1  0
  7  8  2  0
  7 32  1  0
  8  9  1  0
  8 10  1  0
 10 11  2  0
 10 33  1  0
 12 13  2  0
 12 14  1  0
 14 15  1  0
 14 21  1  0
 14 34  1  1
 15 20  2  0
 15 16  1  0
 16 17  2  0
 16 35  1  0
 17 18  1  0
 18 19  1  0
 18 20  1  0
 19 36  1  0
 19 37  1  0
 19 38  1  0
 20 39  1  0
 21 26  1  0
 21 22  2  0
 22 23  1  0
 22 24  1  0
 23 40  1  0
 23 41  1  0
 23 42  1  0
 24 25  2  0
 25 26  1  0
M  END
>  <i_m_ct_stereo_status>  (1) 
1

>  <s_m_source_file>  (1) 
/var/tmp/pbs.5076255.sched01/tmpcyubysk0/0_f5co88n.sdf

>  <i_m_source_file_index>  (1) 
1

>  <i_lp_mmshare_version>  (1) 
48012

>  <i_f3d_flags>  (1) 
0

>  <s_epik_input>  (1) 
bjFbY0hdYyhCcilbY0hdW2NIXWMxTihbQ0BASF0oT1tDSDNdKW4oYzIzKW5uYzNbQ0gzXSlDKD1PKVtDQEhdMmM0W2NIXW5uKFtDSDNdKVtjSF00

>  <s_epik_cmdline>  (1) 
J2VwaWtfcHl0aG9uJywgJy1waHQnLCAnMi4wJywgJy1waCcsICc3LjAnLCAnLXRuJywgJzgnLCAnLW1hJywgJzIwMCcsICctaW1hZScsICc8aW5maWxlLm1hZT4nLCAnLW9tYWUnLCAnPG91dGZpbGUubWFlPic=

>  <r_lp_tautomer_probability>  (1) 
1

>  <r_epik_Ionization_Penalty>  (1) 
1.40908e-05

>  <r_epik_Ionization_Penalty_Charging>  (1) 
0

>  <r_epik_Ionization_Penalty_Neutral>  (1) 
1.40908e-05

>  <r_epik_State_Penalty>  (1) 
-0

>  <r_epik_Charging_Adjusted_Penalty>  (1) 
0

>  <i_epik_Tot_Q>  (1) 
0

>  <i_epik_Tot_abs_Q>  (1) 
0

>  <s_epik_Chemistry_Notes>  (1) 
This compound contains an acetal/aminal-like group ( X-CH(R)-Y where X, Y are N, S, or O) that may be acid/base labile, releasing an aldehyde.

>  <s_lp_Force_Field>  (1) 
OPLS3e

>  <r_lp_Energy>  (1) 
38.6889

>  <b_lp_Chiralities_Consistent>  (1) 
1

>  <s_lp_Variant>  (1) 
0:0-1

>  <s_i_glide_gridfile>  (1) 
pfpi4k_grid

>  <i_i_glide_lignum>  (1) 
1

>  <i_i_glide_rotatable_bonds>  (1) 
3

>  <r_i_docking_score>  (1) 
-3.73031

>  <r_i_glide_ligand_efficiency>  (1) 
-0.143474

>  <r_i_glide_ligand_efficiency_sa>  (1) 
-0.42504

>  <r_i_glide_ligand_efficiency_ln>  (1) 
-0.876051

>  <r_i_glide_gscore>  (1) 
-3.73031

>  <r_i_glide_lipo>  (1) 
-0.0979804

>  <r_i_glide_hbond>  (1) 
-0.528984

>  <r_i_glide_metal>  (1) 
-0

>  <r_i_glide_rewards>  (1) 
-0.710637

>  <r_i_glide_evdw>  (1) 
-26.2935

>  <r_i_glide_ecoul>  (1) 
-7.439

>  <r_i_glide_erotb>  (1) 
0.226061

>  <r_i_glide_esite>  (1) 
-0.188243

>  <r_i_glide_emodel>  (1) 
-41.6428

>  <r_i_glide_energy>  (1) 
-33.7325

>  <r_i_glide_einternal>  (1) 
0.918365

>  <r_i_glide_intrahb_reward>  (1) 
-0

>  <i_i_glide_confnum>  (1) 
1

>  <i_i_glide_posenum>  (1) 
31

>  <r_i_glide_eff_state_penalty>  (1) 
0

>  <ligand_id>  (1) 
0

>  <original_smiles>  (1) 
COC1N(c2ccc(Br)cn2)C(=O)C(c2cnn(C)c2)c2c(C)nnn21

>  <smiles>  (1) 
[H]c1nc(N2C(=O)C([H])(c3c([H])nn(C([H])([H])[H])c3[H])c3c(C([H])([H])[H])nnn3C2([H])OC([H])([H])[H])c([H])c([H])c1Br

$$$$
0:0:1
     RDKit          3D

 42 45  0  0  1  0  0  0  0  0999 V2000
    5.7337   -0.9855    2.7596 C   0  0  0  0  0  0  0  0  0  0  0  0
    4.8903    0.0308    2.2106 O   0  0  0  0  0  0  0  0  0  0  0  0
    3.7574   -0.2894    1.4258 C   0  0  2  0  0  0  0  0  0  0  0  0
    2.7083   -0.9404    2.2337 N   0  0  0  0  0  0  0  0  0  0  0  0
    1.6823   -0.1098    2.7952 C   0  0  0  0  0  0  0  0  0  0  0  0
    0.9339    0.7155    1.9221 C   0  0  0  0  0  0  0  0  0  0  0  0
   -0.1088    1.5210    2.4200 C   0  0  0  0  0  0  0  0  0  0  0  0
   -0.3797    1.4895    3.8012 C   0  0  0  0  0  0  0  0  0  0  0  0
   -1.7799    2.5417    4.5608 Br  0  0  0  0  0  0  0  0  0  0  0  0
    0.4201    0.6568    4.6071 C   0  0  0  0  0  0  0  0  0  0  0  0
    1.4289   -0.0965    4.1264 N   0  0  0  0  0  0  0  0  0  0  0  0
    2.7964   -2.2715    2.5131 C   0  0  0  0  0  0  0  0  0  0  0  0
    2.2434   -2.7885    3.4902 O   0  0  0  0  0  0  0  0  0  0  0  0
    3.6328   -3.2299    1.6269 C   0  0  1  0  0  0  0  0  0  0  0  0
    2.8014   -4.4400    1.2792 C   0  0  0  0  0  0  0  0  0  0  0  0
    2.2136   -4.7906    0.0322 C   0  0  0  0  0  0  0  0  0  0  0  0
    1.4345   -5.8629    0.1125 N   0  0  0  0  0  0  0  0  0  0  0  0
    1.5945   -6.2896    1.3771 N   0  0  0  0  0  0  0  0  0  0  0  0
    0.9597   -7.5228    1.7869 C   0  0  0  0  0  0  0  0  0  0  0  0
    2.3802   -5.4304    2.1153 C   0  0  0  0  0  0  0  0  0  0  0  0
    4.1421   -2.5251    0.3987 C   0  0  0  0  0  0  0  0  0  0  0  0
    4.7050   -2.8660   -0.7877 C   0  0  0  0  0  0  0  0  0  0  0  0
    4.9905   -4.1992   -1.3786 C   0  0  0  0  0  0  0  0  0  0  0  0
    5.0585   -1.7024   -1.4839 N   0  0  0  0  0  0  0  0  0  0  0  0
    4.7205   -0.6632   -0.7877 N   0  0  0  0  0  0  0  0  0  0  0  0
    4.1543   -1.1573    0.3377 N   0  0  0  0  0  0  0  0  0  0  0  0
    6.5372   -0.5145    3.3177 H   0  0  0  0  0  0  0  0  0  0  0  0
    6.2135   -1.5791    1.9825 H   0  0  0  0  0  0  0  0  0  0  0  0
    5.2338   -1.6519    3.4628 H   0  0  0  0  0  0  0  0  0  0  0  0
    3.3814    0.6576    1.0212 H   0  0  0  0  0  0  0  0  0  0  0  0
    1.1166    0.6935    0.8610 H   0  0  0  0  0  0  0  0  0  0  0  0
   -0.6880    2.1427    1.7414 H   0  0  0  0  0  0  0  0  0  0  0  0
    0.2525    0.5828    5.6661 H   0  0  0  0  0  0  0  0  0  0  0  0
    4.4907   -3.5545    2.2177 H   0  0  0  0  0  0  0  0  0  0  0  0
    2.2402   -4.2488   -0.8988 H   0  0  0  0  0  0  0  0  0  0  0  0
    1.1277   -7.6829    2.8504 H   0  0  0  0  0  0  0  0  0  0  0  0
    1.3911   -8.3555    1.2303 H   0  0  0  0  0  0  0  0  0  0  0  0
   -0.1086   -7.4639    1.5864 H   0  0  0  0  0  0  0  0  0  0  0  0
    2.5623   -5.5855    3.1731 H   0  0  0  0  0  0  0  0  0  0  0  0
    4.8441   -5.0201   -0.6691 H   0  0  0  0  0  0  0  0  0  0  0  0
    6.0189   -4.2247   -1.7306 H   0  0  0  0  0  0  0  0  0  0  0  0
    4.3403   -4.3639   -2.2387 H   0  0  0  0  0  0  0  0  0  0  0  0
  1  2  1  0
  1 27  1  0
  1 28  1  0
  1 29  1  0
  2  3  1  0
  3 26  1  0
  3  4  1  0
  3 30  1  6
  4  5  1  0
  4 12  1  0
  5 11  1  0
  5  6  2  0
  6  7  1  0
  6 31  1  0
  7  8  2  0
  7 32  1  0
  8  9  1  0
  8 10  1  0
 10 11  2  0
 10 33  1  0
 12 13  2  0
 12 14  1  0
 14 15  1  0
 14 21  1  0
 14 34  1  1
 15 20  2  0
 15 16  1  0
 16 17  2  0
 16 35  1  0
 17 18  1  0
 18 19  1  0
 18 20  1  0
 19 36  1  0
 19 37  1  0
 19 38  1  0
 20 39  1  0
 21 26  1  0
 21 22  2  0
 22 23  1  0
 22 24  1  0
 23 40  1  0
 23 41  1  0
 23 42  1  0
 24 25  2  0
 25 26  1  0
M  END
>  <i_m_ct_stereo_status>  (2) 
1

>  <s_m_source_file>  (2) 
/var/tmp/pbs.5076255.sched01/tmpcyubysk0/0_f5co88n.sdf

>  <i_m_source_file_index>  (2) 
1

>  <i_lp_mmshare_version>  (2) 
48012

>  <i_f3d_flags>  (2) 
0

>  <s_epik_input>  (2) 
bjFbY0hdYyhCcilbY0hdW2NIXWMxTihbQ0BASF0oT1tDSDNdKW4oYzIzKW5uYzNbQ0gzXSlDKD1PKVtDQEhdMmM0W2NIXW5uKFtDSDNdKVtjSF00

>  <s_epik_cmdline>  (2) 
J2VwaWtfcHl0aG9uJywgJy1waHQnLCAnMi4wJywgJy1waCcsICc3LjAnLCAnLXRuJywgJzgnLCAnLW1hJywgJzIwMCcsICctaW1hZScsICc8aW5maWxlLm1hZT4nLCAnLW9tYWUnLCAnPG91dGZpbGUubWFlPic=

>  <r_lp_tautomer_probability>  (2) 
1

>  <r_epik_Ionization_Penalty>  (2) 
1.40908e-05

>  <r_epik_Ionization_Penalty_Charging>  (2) 
0

>  <r_epik_Ionization_Penalty_Neutral>  (2) 
1.40908e-05

>  <r_epik_State_Penalty>  (2) 
-0

>  <r_epik_Charging_Adjusted_Penalty>  (2) 
0

>  <i_epik_Tot_Q>  (2) 
0

>  <i_epik_Tot_abs_Q>  (2) 
0

>  <s_epik_Chemistry_Notes>  (2) 
This compound contains an acetal/aminal-like group ( X-CH(R)-Y where X, Y are N, S, or O) that may be acid/base labile, releasing an aldehyde.

>  <s_lp_Force_Field>  (2) 
OPLS3e

>  <r_lp_Energy>  (2) 
38.6889

>  <b_lp_Chiralities_Consistent>  (2) 
1

>  <s_lp_Variant>  (2) 
0:0-1

>  <s_i_glide_gridfile>  (2) 
pfpi4k_grid

>  <i_i_glide_lignum>  (2) 
1

>  <i_i_glide_rotatable_bonds>  (2) 
3

>  <r_i_docking_score>  (2) 
-3.37905

>  <r_i_glide_ligand_efficiency>  (2) 
-0.129963

>  <r_i_glide_ligand_efficiency_sa>  (2) 
-0.385016

>  <r_i_glide_ligand_efficiency_ln>  (2) 
-0.793559

>  <r_i_glide_gscore>  (2) 
-3.37905

>  <r_i_glide_lipo>  (2) 
-0.0919232

>  <r_i_glide_hbond>  (2) 
-0.358675

>  <r_i_glide_metal>  (2) 
-0

>  <r_i_glide_rewards>  (2) 
-0.593352

>  <r_i_glide_evdw>  (2) 
-28.5144

>  <r_i_glide_ecoul>  (2) 
-6.43989

>  <r_i_glide_erotb>  (2) 
0.226061

>  <r_i_glide_esite>  (2) 
-0.169458

>  <r_i_glide_emodel>  (2) 
-40.5911

>  <r_i_glide_energy>  (2) 
-34.9543

>  <r_i_glide_einternal>  (2) 
3.30596

>  <r_i_glide_intrahb_reward>  (2) 
-0

>  <i_i_glide_confnum>  (2) 
3

>  <i_i_glide_posenum>  (2) 
1

>  <r_i_glide_eff_state_penalty>  (2) 
0

>  <ligand_id>  (2) 
0

>  <original_smiles>  (2) 
COC1N(c2ccc(Br)cn2)C(=O)C(c2cnn(C)c2)c2c(C)nnn21

>  <smiles>  (2) 
[H]c1nc(N2C(=O)C([H])(c3c([H])nn(C([H])([H])[H])c3[H])c3c(C([H])([H])[H])nnn3C2([H])OC([H])([H])[H])c([H])c([H])c1Br

$$$$
0:0:2
     RDKit          3D

 42 45  0  0  1  0  0  0  0  0999 V2000
    5.9208   -0.8909    2.3751 C   0  0  0  0  0  0  0  0  0  0  0  0
    5.1000    0.1030    1.7439 O   0  0  0  0  0  0  0  0  0  0  0  0
    3.9212   -0.2582    1.0546 C   0  0  2  0  0  0  0  0  0  0  0  0
    2.9223   -0.8720    1.9550 N   0  0  0  0  0  0  0  0  0  0  0  0
    1.8821   -0.0424    2.5227 C   0  0  0  0  0  0  0  0  0  0  0  0
    2.0910    1.3607    2.6448 C   0  0  0  0  0  0  0  0  0  0  0  0
    1.0808    2.1861    3.1748 C   0  0  0  0  0  0  0  0  0  0  0  0
   -0.1165    1.5955    3.6187 C   0  0  0  0  0  0  0  0  0  0  0  0
   -1.5164    2.6338    4.3935 Br  0  0  0  0  0  0  0  0  0  0  0  0
   -0.2479    0.2033    3.4790 C   0  0  0  0  0  0  0  0  0  0  0  0
    0.7053   -0.5786    2.9361 N   0  0  0  0  0  0  0  0  0  0  0  0
    3.0389   -2.1960    2.2633 C   0  0  0  0  0  0  0  0  0  0  0  0
    2.6407   -2.6642    3.3358 O   0  0  0  0  0  0  0  0  0  0  0  0
    3.8110   -3.1768    1.3503 C   0  0  1  0  0  0  0  0  0  0  0  0
    2.9623   -4.3988    1.1036 C   0  0  0  0  0  0  0  0  0  0  0  0
    2.2135   -4.7458   -0.0579 C   0  0  0  0  0  0  0  0  0  0  0  0
    1.5089   -5.8595    0.0862 N   0  0  0  0  0  0  0  0  0  0  0  0
    1.8386   -6.2893    1.3245 N   0  0  0  0  0  0  0  0  0  0  0  0
    1.2997   -7.5368    1.8032 C   0  0  0  0  0  0  0  0  0  0  0  0
    2.6917   -5.4118    1.9678 C   0  0  0  0  0  0  0  0  0  0  0  0
    4.2304   -2.5127    0.0711 C   0  0  0  0  0  0  0  0  0  0  0  0
    4.6922   -2.8815   -1.1453 C   0  0  0  0  0  0  0  0  0  0  0  0
    4.9331   -4.2227   -1.7191 C   0  0  0  0  0  0  0  0  0  0  0  0
    4.9783   -1.7371   -1.9019 N   0  0  0  0  0  0  0  0  0  0  0  0
    4.6979   -0.6875   -1.2109 N   0  0  0  0  0  0  0  0  0  0  0  0
    4.2468   -1.1570   -0.0238 N   0  0  0  0  0  0  0  0  0  0  0  0
    6.7723   -0.4282    2.8687 H   0  0  0  0  0  0  0  0  0  0  0  0
    6.3201   -1.5878    1.6386 H   0  0  0  0  0  0  0  0  0  0  0  0
    5.4184   -1.4503    3.1631 H   0  0  0  0  0  0  0  0  0  0  0  0
    3.4982    0.6388    0.5999 H   0  0  0  0  0  0  0  0  0  0  0  0
    3.0129    1.8383    2.3463 H   0  0  0  0  0  0  0  0  0  0  0  0
    1.2418    3.2577    3.2468 H   0  0  0  0  0  0  0  0  0  0  0  0
   -1.1337   -0.3132    3.8079 H   0  0  0  0  0  0  0  0  0  0  0  0
    4.7079   -3.4713    1.8923 H   0  0  0  0  0  0  0  0  0  0  0  0
    2.1114   -4.1848   -0.9772 H   0  0  0  0  0  0  0  0  0  0  0  0
    1.6282   -7.7133    2.8281 H   0  0  0  0  0  0  0  0  0  0  0  0
    1.6531   -8.3529    1.1718 H   0  0  0  0  0  0  0  0  0  0  0  0
    0.2119   -7.4989    1.7706 H   0  0  0  0  0  0  0  0  0  0  0  0
    3.0300   -5.5754    2.9857 H   0  0  0  0  0  0  0  0  0  0  0  0
    4.8425   -5.0238   -0.9772 H   0  0  0  0  0  0  0  0  0  0  0  0
    5.9259   -4.2266   -2.1576 H   0  0  0  0  0  0  0  0  0  0  0  0
    4.2237   -4.3899   -2.5265 H   0  0  0  0  0  0  0  0  0  0  0  0
  1  2  1  0
  1 27  1  0
  1 28  1  0
  1 29  1  0
  2  3  1  0
  3 26  1  0
  3  4  1  0
  3 30  1  6
  4  5  1  0
  4 12  1  0
  5 11  1  0
  5  6  2  0
  6  7  1  0
  6 31  1  0
  7  8  2  0
  7 32  1  0
  8  9  1  0
  8 10  1  0
 10 11  2  0
 10 33  1  0
 12 13  2  0
 12 14  1  0
 14 15  1  0
 14 21  1  0
 14 34  1  1
 15 20  2  0
 15 16  1  0
 16 17  2  0
 16 35  1  0
 17 18  1  0
 18 19  1  0
 18 20  1  0
 19 36  1  0
 19 37  1  0
 19 38  1  0
 20 39  1  0
 21 26  1  0
 21 22  2  0
 22 23  1  0
 22 24  1  0
 23 40  1  0
 23 41  1  0
 23 42  1  0
 24 25  2  0
 25 26  1  0
M  END
>  <i_m_ct_stereo_status>  (3) 
1

>  <s_m_source_file>  (3) 
/var/tmp/pbs.5076255.sched01/tmpcyubysk0/0_f5co88n.sdf

>  <i_m_source_file_index>  (3) 
1

>  <i_lp_mmshare_version>  (3) 
48012

>  <i_f3d_flags>  (3) 
0

>  <s_epik_input>  (3) 
bjFbY0hdYyhCcilbY0hdW2NIXWMxTihbQ0BASF0oT1tDSDNdKW4oYzIzKW5uYzNbQ0gzXSlDKD1PKVtDQEhdMmM0W2NIXW5uKFtDSDNdKVtjSF00

>  <s_epik_cmdline>  (3) 
J2VwaWtfcHl0aG9uJywgJy1waHQnLCAnMi4wJywgJy1waCcsICc3LjAnLCAnLXRuJywgJzgnLCAnLW1hJywgJzIwMCcsICctaW1hZScsICc8aW5maWxlLm1hZT4nLCAnLW9tYWUnLCAnPG91dGZpbGUubWFlPic=

>  <r_lp_tautomer_probability>  (3) 
1

>  <r_epik_Ionization_Penalty>  (3) 
1.40908e-05

>  <r_epik_Ionization_Penalty_Charging>  (3) 
0

>  <r_epik_Ionization_Penalty_Neutral>  (3) 
1.40908e-05

>  <r_epik_State_Penalty>  (3) 
-0

>  <r_epik_Charging_Adjusted_Penalty>  (3) 
0

>  <i_epik_Tot_Q>  (3) 
0

>  <i_epik_Tot_abs_Q>  (3) 
0

>  <s_epik_Chemistry_Notes>  (3) 
This compound contains an acetal/aminal-like group ( X-CH(R)-Y where X, Y are N, S, or O) that may be acid/base labile, releasing an aldehyde.

>  <s_lp_Force_Field>  (3) 
OPLS3e

>  <r_lp_Energy>  (3) 
38.6889

>  <b_lp_Chiralities_Consistent>  (3) 
1

>  <s_lp_Variant>  (3) 
0:0-1

>  <s_i_glide_gridfile>  (3) 
pfpi4k_grid

>  <i_i_glide_lignum>  (3) 
1

>  <i_i_glide_rotatable_bonds>  (3) 
3

>  <r_i_docking_score>  (3) 
-3.31097

>  <r_i_glide_ligand_efficiency>  (3) 
-0.127345

>  <r_i_glide_ligand_efficiency_sa>  (3) 
-0.377259

>  <r_i_glide_ligand_efficiency_ln>  (3) 
-0.777571

>  <r_i_glide_gscore>  (3) 
-3.31097

>  <r_i_glide_lipo>  (3) 
-0.107925

>  <r_i_glide_hbond>  (3) 
-0.370029

>  <r_i_glide_metal>  (3) 
-0

>  <r_i_glide_rewards>  (3) 
-0.634464

>  <r_i_glide_evdw>  (3) 
-27.6384

>  <r_i_glide_ecoul>  (3) 
-5.84353

>  <r_i_glide_erotb>  (3) 
0.226061

>  <r_i_glide_esite>  (3) 
-0.166164

>  <r_i_glide_emodel>  (3) 
-40.1138

>  <r_i_glide_energy>  (3) 
-33.4819

>  <r_i_glide_einternal>  (3) 
1.33147

>  <r_i_glide_intrahb_reward>  (3) 
-0

>  <i_i_glide_confnum>  (3) 
2

>  <i_i_glide_posenum>  (3) 
14

>  <r_i_glide_eff_state_penalty>  (3) 
0

>  <ligand_id>  (3) 
0

>  <original_smiles>  (3) 
COC1N(c2ccc(Br)cn2)C(=O)C(c2cnn(C)c2)c2c(C)nnn21

>  <smiles>  (3) 
[H]c1nc(N2C(=O)C([H])(c3c([H])nn(C([H])([H])[H])c3[H])c3c(C([H])([H])[H])nnn3C2([H])OC([H])([H])[H])c([H])c([H])c1Br

$$$$
1:0:0
     RDKit          3D

 58 62  0  0  1  0  0  0  0  0999 V2000
    4.2374    0.2790    5.0231 C   0  0  0  0  0  0  0  0  0  0  0  0
    3.0257   -0.5440    4.5097 C   0  0  1  0  0  0  0  0  0  0  0  0
    2.5902   -1.4408    5.7159 C   0  0  0  0  0  0  0  0  0  0  0  0
    1.0713   -1.6675    5.8086 C   0  0  0  0  0  0  0  0  0  0  0  0
    0.3333   -0.3328    5.9389 C   0  0  0  0  0  0  0  0  0  0  0  0
   -0.7642   -0.2693    6.4931 O   0  0  0  0  0  0  0  0  0  0  0  0
    1.0311    0.9122    5.3881 C   0  0  0  0  0  0  0  0  0  0  0  0
    1.9587    0.5395    4.2434 C   0  0  0  0  0  0  0  0  0  0  0  0
    1.8712    1.1360    3.0453 C   0  0  0  0  0  0  0  0  0  0  0  0
    2.7203    0.6997    1.8792 C   0  0  0  0  0  0  0  0  0  0  0  0
    2.7965   -0.8370    1.8308 C   0  0  1  0  0  0  0  0  0  0  0  0
    1.4339   -1.2285    1.6818 O   0  0  0  0  0  0  0  0  0  0  0  0
    3.4206   -1.3457    0.4949 C   0  0  1  0  0  0  0  0  0  0  0  0
    4.8030   -0.8035    0.0922 C   0  0  0  0  0  0  0  0  0  0  0  0
    5.7051   -2.0320   -0.0903 C   0  0  2  0  0  0  0  0  0  0  0  0
    7.0016   -1.7442    0.3917 O   0  0  0  0  0  0  0  0  0  0  0  0
    5.8735   -2.3127   -1.5846 C   0  0  0  0  0  0  0  0  0  0  0  0
    4.9605   -2.6595   -2.5114 C   0  0  0  0  0  0  0  0  0  0  0  0
    3.5225   -2.9121   -2.2944 C   0  0  0  0  0  0  0  0  0  0  0  0
    2.7102   -2.7850   -3.2110 O   0  0  0  0  0  0  0  0  0  0  0  0
    2.9784   -3.4456   -0.9539 C   0  0  0  0  0  0  0  0  0  0  0  0
    3.5194   -2.8832    0.3881 C   0  0  1  0  0  0  0  0  0  0  0  0
    4.9938   -3.1795    0.6873 C   0  0  1  0  0  0  0  0  0  0  0  0
    5.4440   -4.5970    0.2355 C   0  0  0  0  0  0  0  0  0  0  0  0
    5.1894   -3.1690    2.2444 C   0  0  0  0  0  0  0  0  0  0  0  0
    4.8464   -1.9398    3.1395 C   0  0  1  0  0  0  0  0  0  0  0  0
    5.8172   -0.9371    2.9190 O   0  0  0  0  0  0  0  0  0  0  0  0
    3.3587   -1.4245    3.1969 C   0  0  1  0  0  0  0  0  0  0  0  0
    2.6932   -2.5717    3.3678 F   0  0  0  0  0  0  0  0  0  0  0  0
    5.0514   -0.3521    5.3870 H   0  0  0  0  0  0  0  0  0  0  0  0
    3.9552    0.9251    5.8597 H   0  0  0  0  0  0  0  0  0  0  0  0
    4.6325    0.9409    4.2499 H   0  0  0  0  0  0  0  0  0  0  0  0
    3.1207   -2.3948    5.7204 H   0  0  0  0  0  0  0  0  0  0  0  0
    2.8875   -0.9660    6.6525 H   0  0  0  0  0  0  0  0  0  0  0  0
    0.7017   -2.1984    4.9308 H   0  0  0  0  0  0  0  0  0  0  0  0
    0.8370   -2.2832    6.6766 H   0  0  0  0  0  0  0  0  0  0  0  0
    0.2731    1.6102    5.0317 H   0  0  0  0  0  0  0  0  0  0  0  0
    1.5832    1.4079    6.1851 H   0  0  0  0  0  0  0  0  0  0  0  0
    1.1654    1.9339    2.8545 H   0  0  0  0  0  0  0  0  0  0  0  0
    2.2745    1.0870    0.9620 H   0  0  0  0  0  0  0  0  0  0  0  0
    3.7093    1.1431    1.9850 H   0  0  0  0  0  0  0  0  0  0  0  0
    1.1814   -1.0602    0.7548 H   0  0  0  0  0  0  0  0  0  0  0  0
    2.7749   -0.9886   -0.3039 H   0  0  0  0  0  0  0  0  0  0  0  0
    4.7221   -0.2608   -0.8468 H   0  0  0  0  0  0  0  0  0  0  0  0
    5.1885   -0.0595    0.7828 H   0  0  0  0  0  0  0  0  0  0  0  0
    6.9576   -1.5242    1.3189 H   0  0  0  0  0  0  0  0  0  0  0  0
    6.8799   -2.1900   -1.9323 H   0  0  0  0  0  0  0  0  0  0  0  0
    5.3121   -2.7587   -3.5381 H   0  0  0  0  0  0  0  0  0  0  0  0
    1.9067   -3.2425   -0.9773 H   0  0  0  0  0  0  0  0  0  0  0  0
    3.0612   -4.5341   -0.9613 H   0  0  0  0  0  0  0  0  0  0  0  0
    2.8927   -3.3647    1.1412 H   0  0  0  0  0  0  0  0  0  0  0  0
    4.8789   -5.3728    0.7496 H   0  0  0  0  0  0  0  0  0  0  0  0
    6.4993   -4.7570    0.4612 H   0  0  0  0  0  0  0  0  0  0  0  0
    5.3249   -4.7864   -0.8296 H   0  0  0  0  0  0  0  0  0  0  0  0
    4.6369   -4.0192    2.6534 H   0  0  0  0  0  0  0  0  0  0  0  0
    6.2290   -3.4184    2.4419 H   0  0  0  0  0  0  0  0  0  0  0  0
    5.0606   -2.3013    4.1484 H   0  0  0  0  0  0  0  0  0  0  0  0
    5.6234   -0.5316    2.0815 H   0  0  0  0  0  0  0  0  0  0  0  0
  2  1  1  1
  1 30  1  0
  1 31  1  0
  1 32  1  0
  2  8  1  0
  2 28  1  0
  2  3  1  0
  3  4  1  0
  3 33  1  0
  3 34  1  0
  4  5  1  0
  4 35  1  0
  4 36  1  0
  5  6  2  0
  5  7  1  0
  7  8  1  0
  7 37  1  0
  7 38  1  0
  8  9  2  0
  9 10  1  0
  9 39  1  0
 10 11  1  0
 10 40  1  0
 10 41  1  0
 11 28  1  0
 11 12  1  6
 11 13  1  0
 12 42  1  0
 13 22  1  0
 13 14  1  0
 13 43  1  6
 14 15  1  0
 14 44  1  0
 14 45  1  0
 15 23  1  0
 15 16  1  1
 15 17  1  0
 16 46  1  0
 17 18  2  0
 17 47  1  0
 18 19  1  0
 18 48  1  0
 19 20  2  0
 19 21  1  0
 21 22  1  0
 21 49  1  0
 21 50  1  0
 22 23  1  0
 22 51  1  1
 23 24  1  6
 23 25  1  0
 24 52  1  0
 24 53  1  0
 24 54  1  0
 25 26  1  0
 25 55  1  0
 25 56  1  0
 26 27  1  0
 26 28  1  0
 26 57  1  1
 27 58  1  0
 28 29  1  1
M  END
>  <i_m_ct_stereo_status>  (4) 
1

>  <s_m_source_file>  (4) 
/var/tmp/pbs.5076255.sched01/tmpcyubysk0/0_f5co88n.sdf

>  <i_m_source_file_index>  (4) 
2

>  <i_lp_mmshare_version>  (4) 
48012

>  <i_f3d_flags>  (4) 
0

>  <s_epik_input>  (4) 
W0NIMl0xW0NIMl1DKD1PKVtDSDJdQyhbQ0BAXTEyW0NIM10pPVtDSF1bQ0gyXVtDQEBdMyhbT0hdKVtDQEBIXTRbQ0BASF01W0NAXShbQ0gzXSkoW0NIMl1bQ0BASF0oW09IXSlbQ0BAXTIzRilbQ0BAXShbQ0gyXTQpKFtPSF0pW0NIXT1bQ0hdQyg9TylbQ0gyXTU=

>  <s_epik_cmdline>  (4) 
J2VwaWtfcHl0aG9uJywgJy1waHQnLCAnMi4wJywgJy1waCcsICc3LjAnLCAnLXRuJywgJzgnLCAnLW1hJywgJzIwMCcsICctaW1hZScsICc8aW5maWxlLm1hZT4nLCAnLW9tYWUnLCAnPG91dGZpbGUubWFlPic=

>  <r_lp_tautomer_probability>  (4) 
1

>  <r_epik_Ionization_Penalty>  (4) 
5.46191e-07

>  <r_epik_Ionization_Penalty_Charging>  (4) 
0

>  <r_epik_Ionization_Penalty_Neutral>  (4) 
5.46191e-07

>  <r_epik_State_Penalty>  (4) 
-0

>  <r_epik_Charging_Adjusted_Penalty>  (4) 
0

>  <i_epik_Tot_Q>  (4) 
0

>  <i_epik_Tot_abs_Q>  (4) 
0

>  <s_lp_Force_Field>  (4) 
OPLS3e

>  <r_lp_Energy>  (4) 
75.223

>  <b_lp_Chiralities_Consistent>  (4) 
1

>  <s_lp_Variant>  (4) 
1:0-1

>  <s_i_glide_gridfile>  (4) 
pfpi4k_grid

>  <i_i_glide_lignum>  (4) 
2

>  <i_i_glide_rotatable_bonds>  (4) 
3

>  <r_i_docking_score>  (4) 
-3.80448

>  <r_i_glide_ligand_efficiency>  (4) 
-0.131189

>  <r_i_glide_ligand_efficiency_sa>  (4) 
-0.403054

>  <r_i_glide_ligand_efficiency_ln>  (4) 
-0.871129

>  <r_i_glide_gscore>  (4) 
-3.80448

>  <r_i_glide_lipo>  (4) 
-0.494774

>  <r_i_glide_hbond>  (4) 
-0.201002

>  <r_i_glide_metal>  (4) 
-0

>  <r_i_glide_rewards>  (4) 
-0.651621

>  <r_i_glide_evdw>  (4) 
-28.5058

>  <r_i_glide_ecoul>  (4) 
-6.62907

>  <r_i_glide_erotb>  (4) 
0

>  <r_i_glide_esite>  (4) 
-0.037431

>  <r_i_glide_emodel>  (4) 
-44.26

>  <r_i_glide_energy>  (4) 
-35.1349

>  <r_i_glide_einternal>  (4) 
0.406646

>  <r_i_glide_intrahb_reward>  (4) 
-0

>  <i_i_glide_confnum>  (4) 
1

>  <i_i_glide_posenum>  (4) 
1

>  <r_i_glide_eff_state_penalty>  (4) 
0

>  <ligand_id>  (4) 
1

>  <original_smiles>  (4) 
CC12CCC(=O)CC1=CCC1(O)C3CC4(O)C=CC(=O)CC3C4(C)CC(O)C21F

>  <smiles>  (4) 
[H]OC1([H])C([H])([H])C2(C([H])([H])[H])C3(O[H])C([H])=C([H])C(=O)C([H])([H])C2([H])C([H])(C3([H])[H])C2(O[H])C([H])([H])C([H])=C3C([H])([H])C(=O)C([H])([H])C([H])([H])C3(C([H])([H])[H])C12F

$$$$
1:0:1
     RDKit          3D

 58 62  0  0  1  0  0  0  0  0999 V2000
    4.2455    0.1805    5.0674 C   0  0  0  0  0  0  0  0  0  0  0  0
    3.0206   -0.6105    4.5309 C   0  0  1  0  0  0  0  0  0  0  0  0
    2.5568   -1.5107    5.7243 C   0  0  0  0  0  0  0  0  0  0  0  0
    1.0312   -1.7023    5.8060 C   0  0  0  0  0  0  0  0  0  0  0  0
    0.3260   -0.3527    5.9455 C   0  0  0  0  0  0  0  0  0  0  0  0
   -0.7712   -0.2686    6.4980 O   0  0  0  0  0  0  0  0  0  0  0  0
    1.0534    0.8817    5.4114 C   0  0  0  0  0  0  0  0  0  0  0  0
    1.9821    0.4973    4.2676 C   0  0  0  0  0  0  0  0  0  0  0  0
    1.9214    1.1115    3.0763 C   0  0  0  0  0  0  0  0  0  0  0  0
    2.7673    0.6684    1.9097 C   0  0  0  0  0  0  0  0  0  0  0  0
    2.8094   -0.8675    1.8442 C   0  0  1  0  0  0  0  0  0  0  0  0
    1.4390   -1.2278    1.6860 O   0  0  0  0  0  0  0  0  0  0  0  0
    3.4291   -1.3768    0.5059 C   0  0  1  0  0  0  0  0  0  0  0  0
    4.8296   -0.8623    0.1202 C   0  0  0  0  0  0  0  0  0  0  0  0
    5.6961   -2.1160   -0.0782 C   0  0  2  0  0  0  0  0  0  0  0  0
    6.9789   -1.8710    0.4450 O   0  0  0  0  0  0  0  0  0  0  0  0
    5.8763   -2.3778   -1.5719 C   0  0  0  0  0  0  0  0  0  0  0  0
    4.9632   -2.6908   -2.5086 C   0  0  0  0  0  0  0  0  0  0  0  0
    3.5167   -2.9160   -2.2998 C   0  0  0  0  0  0  0  0  0  0  0  0
    2.7154   -2.7613   -3.2229 O   0  0  0  0  0  0  0  0  0  0  0  0
    2.9460   -3.4453   -0.9677 C   0  0  0  0  0  0  0  0  0  0  0  0
    3.4931   -2.9124    0.3827 C   0  0  1  0  0  0  0  0  0  0  0  0
    4.9580   -3.2473    0.6886 C   0  0  1  0  0  0  0  0  0  0  0  0
    5.3808   -4.6700    0.2258 C   0  0  0  0  0  0  0  0  0  0  0  0
    5.1519   -3.2519    2.2467 C   0  0  0  0  0  0  0  0  0  0  0  0
    4.8223   -2.0258    3.1559 C   0  0  1  0  0  0  0  0  0  0  0  0
    5.8078   -1.0270    2.9927 O   0  0  0  0  0  0  0  0  0  0  0  0
    3.3454   -1.4838    3.2091 C   0  0  1  0  0  0  0  0  0  0  0  0
    2.6564   -2.6195    3.3621 F   0  0  0  0  0  0  0  0  0  0  0  0
    5.0437   -0.4720    5.4284 H   0  0  0  0  0  0  0  0  0  0  0  0
    3.9744    0.8241    5.9089 H   0  0  0  0  0  0  0  0  0  0  0  0
    4.6622    0.8428    4.3069 H   0  0  0  0  0  0  0  0  0  0  0  0
    3.0641   -2.4776    5.7231 H   0  0  0  0  0  0  0  0  0  0  0  0
    2.8576   -1.0541    6.6690 H   0  0  0  0  0  0  0  0  0  0  0  0
    0.6562   -2.2126    4.9179 H   0  0  0  0  0  0  0  0  0  0  0  0
    0.7769   -2.3251    6.6644 H   0  0  0  0  0  0  0  0  0  0  0  0
    0.3135    1.5983    5.0571 H   0  0  0  0  0  0  0  0  0  0  0  0
    1.6137    1.3526    6.2172 H   0  0  0  0  0  0  0  0  0  0  0  0
    1.2367    1.9289    2.8950 H   0  0  0  0  0  0  0  0  0  0  0  0
    2.3395    1.0815    0.9958 H   0  0  0  0  0  0  0  0  0  0  0  0
    3.7673    1.0829    2.0238 H   0  0  0  0  0  0  0  0  0  0  0  0
    1.1908   -1.0561    0.7601 H   0  0  0  0  0  0  0  0  0  0  0  0
    2.8004   -0.9925   -0.2931 H   0  0  0  0  0  0  0  0  0  0  0  0
    4.7771   -0.2850   -0.8028 H   0  0  0  0  0  0  0  0  0  0  0  0
    5.2339   -0.1514    0.8368 H   0  0  0  0  0  0  0  0  0  0  0  0
    7.4179   -2.7020    0.5645 H   0  0  0  0  0  0  0  0  0  0  0  0
    6.8883   -2.2632   -1.9175 H   0  0  0  0  0  0  0  0  0  0  0  0
    5.3130   -2.7823   -3.5313 H   0  0  0  0  0  0  0  0  0  0  0  0
    1.8790   -3.2205   -1.0000 H   0  0  0  0  0  0  0  0  0  0  0  0
    3.0011   -4.5344   -0.9891 H   0  0  0  0  0  0  0  0  0  0  0  0
    2.8514   -3.3842    1.1254 H   0  0  0  0  0  0  0  0  0  0  0  0
    4.7934   -5.4398    0.7283 H   0  0  0  0  0  0  0  0  0  0  0  0
    6.4316   -4.8628    0.4541 H   0  0  0  0  0  0  0  0  0  0  0  0
    5.2601   -4.8473   -0.8431 H   0  0  0  0  0  0  0  0  0  0  0  0
    4.5783   -4.0926    2.6442 H   0  0  0  0  0  0  0  0  0  0  0  0
    6.1862   -3.5250    2.4545 H   0  0  0  0  0  0  0  0  0  0  0  0
    5.0149   -2.4085    4.1606 H   0  0  0  0  0  0  0  0  0  0  0  0
    5.7982   -0.7375    2.0898 H   0  0  0  0  0  0  0  0  0  0  0  0
  2  1  1  1
  1 30  1  0
  1 31  1  0
  1 32  1  0
  2  8  1  0
  2 28  1  0
  2  3  1  0
  3  4  1  0
  3 33  1  0
  3 34  1  0
  4  5  1  0
  4 35  1  0
  4 36  1  0
  5  6  2  0
  5  7  1  0
  7  8  1  0
  7 37  1  0
  7 38  1  0
  8  9  2  0
  9 10  1  0
  9 39  1  0
 10 11  1  0
 10 40  1  0
 10 41  1  0
 11 28  1  0
 11 12  1  6
 11 13  1  0
 12 42  1  0
 13 22  1  0
 13 14  1  0
 13 43  1  6
 14 15  1  0
 14 44  1  0
 14 45  1  0
 15 23  1  0
 15 16  1  1
 15 17  1  0
 16 46  1  0
 17 18  2  0
 17 47  1  0
 18 19  1  0
 18 48  1  0
 19 20  2  0
 19 21  1  0
 21 22  1  0
 21 49  1  0
 21 50  1  0
 22 23  1  0
 22 51  1  1
 23 24  1  6
 23 25  1  0
 24 52  1  0
 24 53  1  0
 24 54  1  0
 25 26  1  0
 25 55  1  0
 25 56  1  0
 26 27  1  0
 26 28  1  0
 26 57  1  1
 27 58  1  0
 28 29  1  1
M  END
>  <i_m_ct_stereo_status>  (5) 
1

>  <s_m_source_file>  (5) 
/var/tmp/pbs.5076255.sched01/tmpcyubysk0/0_f5co88n.sdf

>  <i_m_source_file_index>  (5) 
2

>  <i_lp_mmshare_version>  (5) 
48012

>  <i_f3d_flags>  (5) 
0

>  <s_epik_input>  (5) 
W0NIMl0xW0NIMl1DKD1PKVtDSDJdQyhbQ0BAXTEyW0NIM10pPVtDSF1bQ0gyXVtDQEBdMyhbT0hdKVtDQEBIXTRbQ0BASF01W0NAXShbQ0gzXSkoW0NIMl1bQ0BASF0oW09IXSlbQ0BAXTIzRilbQ0BAXShbQ0gyXTQpKFtPSF0pW0NIXT1bQ0hdQyg9TylbQ0gyXTU=

>  <s_epik_cmdline>  (5) 
J2VwaWtfcHl0aG9uJywgJy1waHQnLCAnMi4wJywgJy1waCcsICc3LjAnLCAnLXRuJywgJzgnLCAnLW1hJywgJzIwMCcsICctaW1hZScsICc8aW5maWxlLm1hZT4nLCAnLW9tYWUnLCAnPG91dGZpbGUubWFlPic=

>  <r_lp_tautomer_probability>  (5) 
1

>  <r_epik_Ionization_Penalty>  (5) 
5.46191e-07

>  <r_epik_Ionization_Penalty_Charging>  (5) 
0

>  <r_epik_Ionization_Penalty_Neutral>  (5) 
5.46191e-07

>  <r_epik_State_Penalty>  (5) 
-0

>  <r_epik_Charging_Adjusted_Penalty>  (5) 
0

>  <i_epik_Tot_Q>  (5) 
0

>  <i_epik_Tot_abs_Q>  (5) 
0

>  <s_lp_Force_Field>  (5) 
OPLS3e

>  <r_lp_Energy>  (5) 
75.223

>  <b_lp_Chiralities_Consistent>  (5) 
1

>  <s_lp_Variant>  (5) 
1:0-1

>  <s_i_glide_gridfile>  (5) 
pfpi4k_grid

>  <i_i_glide_lignum>  (5) 
2

>  <i_i_glide_rotatable_bonds>  (5) 
3

>  <r_i_docking_score>  (5) 
-3.71564

>  <r_i_glide_ligand_efficiency>  (5) 
-0.128125

>  <r_i_glide_ligand_efficiency_sa>  (5) 
-0.393642

>  <r_i_glide_ligand_efficiency_ln>  (5) 
-0.850787

>  <r_i_glide_gscore>  (5) 
-3.71564

>  <r_i_glide_lipo>  (5) 
-0.499948

>  <r_i_glide_hbond>  (5) 
-0.203162

>  <r_i_glide_metal>  (5) 
-0

>  <r_i_glide_rewards>  (5) 
-0.651661

>  <r_i_glide_evdw>  (5) 
-28.3659

>  <r_i_glide_ecoul>  (5) 
-6.0308

>  <r_i_glide_erotb>  (5) 
0

>  <r_i_glide_esite>  (5) 
-0.037951

>  <r_i_glide_emodel>  (5) 
-43.3915

>  <r_i_glide_energy>  (5) 
-34.3967

>  <r_i_glide_einternal>  (5) 
0.302603

>  <r_i_glide_intrahb_reward>  (5) 
-0

>  <i_i_glide_confnum>  (5) 
2

>  <i_i_glide_posenum>  (5) 
25

>  <r_i_glide_eff_state_penalty>  (5) 
0

>  <ligand_id>  (5) 
1

>  <original_smiles>  (5) 
CC12CCC(=O)CC1=CCC1(O)C3CC4(O)C=CC(=O)CC3C4(C)CC(O)C21F

>  <smiles>  (5) 
[H]OC1([H])C([H])([H])C2(C([H])([H])[H])C3(O[H])C([H])=C([H])C(=O)C([H])([H])C2([H])C([H])(C3([H])[H])C2(O[H])C([H])([H])C([H])=C3C([H])([H])C(=O)C([H])([H])C([H])([H])C3(C([H])([H])[H])C12F

$$$$
1:0:2
     RDKit          3D

 58 62  0  0  1  0  0  0  0  0999 V2000
    6.7643   -1.9365   -0.1648 C   0  0  0  0  0  0  0  0  0  0  0  0
    5.2391   -2.0913   -0.4186 C   0  0  1  0  0  0  0  0  0  0  0  0
    4.9021   -1.1285   -1.6038 C   0  0  0  0  0  0  0  0  0  0  0  0
    3.8171   -1.6543   -2.5583 C   0  0  0  0  0  0  0  0  0  0  0  0
    4.2341   -2.9943   -3.1548 C   0  0  0  0  0  0  0  0  0  0  0  0
    3.8380   -3.3447   -4.2542 O   0  0  0  0  0  0  0  0  0  0  0  0
    5.2360   -3.8374   -2.3679 C   0  0  0  0  0  0  0  0  0  0  0  0
    5.1251   -3.5489   -0.8759 C   0  0  0  0  0  0  0  0  0  0  0  0
    4.9341   -4.5395    0.0084 C   0  0  0  0  0  0  0  0  0  0  0  0
    4.7100   -4.2593    1.4783 C   0  0  0  0  0  0  0  0  0  0  0  0
    3.7743   -3.0467    1.6390 C   0  0  1  0  0  0  0  0  0  0  0  0
    2.6160   -3.4514    0.9295 O   0  0  0  0  0  0  0  0  0  0  0  0
    3.2427   -2.8918    3.0987 C   0  0  1  0  0  0  0  0  0  0  0  0
    4.3169   -2.7853    4.2038 C   0  0  0  0  0  0  0  0  0  0  0  0
    4.0376   -1.4657    4.9398 C   0  0  2  0  0  0  0  0  0  0  0  0
    5.2535   -0.8203    5.2686 O   0  0  0  0  0  0  0  0  0  0  0  0
    3.3408   -1.7756    6.2594 C   0  0  0  0  0  0  0  0  0  0  0  0
    2.1283   -2.3139    6.5089 C   0  0  0  0  0  0  0  0  0  0  0  0
    1.1315   -2.7225    5.4824 C   0  0  0  0  0  0  0  0  0  0  0  0
    0.2651   -3.5587    5.7400 O   0  0  0  0  0  0  0  0  0  0  0  0
    1.0168   -2.0423    4.1055 C   0  0  0  0  0  0  0  0  0  0  0  0
    2.3000   -1.6850    3.3139 C   0  0  1  0  0  0  0  0  0  0  0  0
    3.2004   -0.6149    3.9524 C   0  0  1  0  0  0  0  0  0  0  0  0
    2.4068    0.5242    4.6502 C   0  0  0  0  0  0  0  0  0  0  0  0
    4.0123    0.0968    2.8160 C   0  0  0  0  0  0  0  0  0  0  0  0
    4.9537   -0.6537    1.8183 C   0  0  1  0  0  0  0  0  0  0  0  0
    6.1524   -1.0290    2.4569 O   0  0  0  0  0  0  0  0  0  0  0  0
    4.3494   -1.7686    0.8915 C   0  0  1  0  0  0  0  0  0  0  0  0
    3.2674   -1.1408    0.4313 F   0  0  0  0  0  0  0  0  0  0  0  0
    7.0494   -0.9104    0.0717 H   0  0  0  0  0  0  0  0  0  0  0  0
    7.3489   -2.2478   -1.0341 H   0  0  0  0  0  0  0  0  0  0  0  0
    7.0989   -2.5712    0.6587 H   0  0  0  0  0  0  0  0  0  0  0  0
    4.6267   -0.1370   -1.2512 H   0  0  0  0  0  0  0  0  0  0  0  0
    5.7942   -0.9694   -2.2125 H   0  0  0  0  0  0  0  0  0  0  0  0
    2.8658   -1.7681   -2.0391 H   0  0  0  0  0  0  0  0  0  0  0  0
    3.6536   -0.9446   -3.3680 H   0  0  0  0  0  0  0  0  0  0  0  0
    5.0142   -4.8867   -2.5519 H   0  0  0  0  0  0  0  0  0  0  0  0
    6.2465   -3.6291   -2.7113 H   0  0  0  0  0  0  0  0  0  0  0  0
    4.8874   -5.5761   -0.2982 H   0  0  0  0  0  0  0  0  0  0  0  0
    4.2670   -5.1428    1.9446 H   0  0  0  0  0  0  0  0  0  0  0  0
    5.6760   -4.0804    1.9604 H   0  0  0  0  0  0  0  0  0  0  0  0
    2.1474   -2.6612    0.7045 H   0  0  0  0  0  0  0  0  0  0  0  0
    2.6852   -3.8036    3.3135 H   0  0  0  0  0  0  0  0  0  0  0  0
    4.2486   -3.6331    4.8865 H   0  0  0  0  0  0  0  0  0  0  0  0
    5.3270   -2.8386    3.8148 H   0  0  0  0  0  0  0  0  0  0  0  0
    5.0688    0.0463    5.5788 H   0  0  0  0  0  0  0  0  0  0  0  0
    3.9395   -1.5586    7.1366 H   0  0  0  0  0  0  0  0  0  0  0  0
    1.8580   -2.4992    7.5323 H   0  0  0  0  0  0  0  0  0  0  0  0
    0.4380   -2.7290    3.4860 H   0  0  0  0  0  0  0  0  0  0  0  0
    0.3819   -1.1625    4.2145 H   0  0  0  0  0  0  0  0  0  0  0  0
    1.9189   -1.3137    2.3655 H   0  0  0  0  0  0  0  0  0  0  0  0
    1.7732    1.0564    3.9389 H   0  0  0  0  0  0  0  0  0  0  0  0
    3.0812    1.2595    5.0905 H   0  0  0  0  0  0  0  0  0  0  0  0
    1.7522    0.1900    5.4535 H   0  0  0  0  0  0  0  0  0  0  0  0
    3.2995    0.6536    2.2048 H   0  0  0  0  0  0  0  0  0  0  0  0
    4.6110    0.8799    3.2848 H   0  0  0  0  0  0  0  0  0  0  0  0
    5.2681    0.1323    1.1316 H   0  0  0  0  0  0  0  0  0  0  0  0
    6.7280   -0.2865    2.5107 H   0  0  0  0  0  0  0  0  0  0  0  0
  2  1  1  1
  1 30  1  0
  1 31  1  0
  1 32  1  0
  2  8  1  0
  2 28  1  0
  2  3  1  0
  3  4  1  0
  3 33  1  0
  3 34  1  0
  4  5  1  0
  4 35  1  0
  4 36  1  0
  5  6  2  0
  5  7  1  0
  7  8  1  0
  7 37  1  0
  7 38  1  0
  8  9  2  0
  9 10  1  0
  9 39  1  0
 10 11  1  0
 10 40  1  0
 10 41  1  0
 11 28  1  0
 11 12  1  6
 11 13  1  0
 12 42  1  0
 13 22  1  0
 13 14  1  0
 13 43  1  1
 14 15  1  0
 14 44  1  0
 14 45  1  0
 15 23  1  0
 15 16  1  1
 15 17  1  0
 16 46  1  0
 17 18  2  0
 17 47  1  0
 18 19  1  0
 18 48  1  0
 19 20  2  0
 19 21  1  0
 21 22  1  0
 21 49  1  0
 21 50  1  0
 22 23  1  0
 22 51  1  6
 23 24  1  1
 23 25  1  0
 24 52  1  0
 24 53  1  0
 24 54  1  0
 25 26  1  0
 25 55  1  0
 25 56  1  0
 26 27  1  0
 26 28  1  0
 26 57  1  6
 27 58  1  0
 28 29  1  6
M  END
>  <i_m_ct_stereo_status>  (6) 
1

>  <s_m_source_file>  (6) 
/var/tmp/pbs.5076255.sched01/tmpcyubysk0/0_f5co88n.sdf

>  <i_m_source_file_index>  (6) 
2

>  <i_lp_mmshare_version>  (6) 
48012

>  <i_f3d_flags>  (6) 
0

>  <s_epik_input>  (6) 
W0NIMl0xW0NIMl1DKD1PKVtDSDJdQyhbQ0BAXTEyW0NIM10pPVtDSF1bQ0gyXVtDQEBdMyhbT0hdKVtDQEBIXTRbQ0BASF01W0NAXShbQ0gzXSkoW0NIMl1bQ0BASF0oW09IXSlbQ0BAXTIzRilbQ0BAXShbQ0gyXTQpKFtPSF0pW0NIXT1bQ0hdQyg9TylbQ0gyXTU=

>  <s_epik_cmdline>  (6) 
J2VwaWtfcHl0aG9uJywgJy1waHQnLCAnMi4wJywgJy1waCcsICc3LjAnLCAnLXRuJywgJzgnLCAnLW1hJywgJzIwMCcsICctaW1hZScsICc8aW5maWxlLm1hZT4nLCAnLW9tYWUnLCAnPG91dGZpbGUubWFlPic=

>  <r_lp_tautomer_probability>  (6) 
1

>  <r_epik_Ionization_Penalty>  (6) 
5.46191e-07

>  <r_epik_Ionization_Penalty_Charging>  (6) 
0

>  <r_epik_Ionization_Penalty_Neutral>  (6) 
5.46191e-07

>  <r_epik_State_Penalty>  (6) 
-0

>  <r_epik_Charging_Adjusted_Penalty>  (6) 
0

>  <i_epik_Tot_Q>  (6) 
0

>  <i_epik_Tot_abs_Q>  (6) 
0

>  <s_lp_Force_Field>  (6) 
OPLS3e

>  <r_lp_Energy>  (6) 
75.223

>  <b_lp_Chiralities_Consistent>  (6) 
1

>  <s_lp_Variant>  (6) 
1:0-1

>  <s_i_glide_gridfile>  (6) 
pfpi4k_grid

>  <i_i_glide_lignum>  (6) 
2

>  <i_i_glide_rotatable_bonds>  (6) 
3

>  <r_i_docking_score>  (6) 
-3.46437

>  <r_i_glide_ligand_efficiency>  (6) 
-0.119461

>  <r_i_glide_ligand_efficiency_sa>  (6) 
-0.367022

>  <r_i_glide_ligand_efficiency_ln>  (6) 
-0.793253

>  <r_i_glide_gscore>  (6) 
-3.46437

>  <r_i_glide_lipo>  (6) 
-0.317183

>  <r_i_glide_hbond>  (6) 
-0.159018

>  <r_i_glide_metal>  (6) 
-0

>  <r_i_glide_rewards>  (6) 
-0.795399

>  <r_i_glide_evdw>  (6) 
-29.5978

>  <r_i_glide_ecoul>  (6) 
-4.21809

>  <r_i_glide_erotb>  (6) 
0

>  <r_i_glide_esite>  (6) 
-0.0801701

>  <r_i_glide_emodel>  (6) 
-41.248

>  <r_i_glide_energy>  (6) 
-33.8159

>  <r_i_glide_einternal>  (6) 
1.27966

>  <r_i_glide_intrahb_reward>  (6) 
-0

>  <i_i_glide_confnum>  (6) 
1

>  <i_i_glide_posenum>  (6) 
22

>  <r_i_glide_eff_state_penalty>  (6) 
0

>  <ligand_id>  (6) 
1

>  <original_smiles>  (6) 
CC12CCC(=O)CC1=CCC1(O)C3CC4(O)C=CC(=O)CC3C4(C)CC(O)C21F

>  <smiles>  (6) 
[H]OC1([H])C([H])([H])C2(C([H])([H])[H])C3(O[H])C([H])=C([H])C(=O)C([H])([H])C2([H])C([H])(C3([H])[H])C2(O[H])C([H])([H])C([H])=C3C([H])([H])C(=O)C([H])([H])C([H])([H])C3(C([H])([H])[H])C12F

$$$$
3:0:0
     RDKit          3D

 60 65  0  0  1  0  0  0  0  0999 V2000
    1.5247   -1.5675    6.4309 C   0  0  0  0  0  0  0  0  0  0  0  0
    1.8593   -1.0082    5.0385 C   0  0  2  0  0  0  0  0  0  0  0  0
    3.3199   -0.2643    5.0174 C   0  0  0  0  0  0  0  0  0  0  0  0
    3.6715    1.2363    4.5194 C   0  0  0  0  0  0  0  0  0  0  0  0
    2.8917    2.4451    5.1806 C   0  0  1  0  0  0  0  0  0  0  0  0
    2.1951    3.6795    4.7151 O   0  0  0  0  0  0  0  0  0  0  0  0
    0.8203    3.8430    5.2576 C   0  0  1  0  0  0  0  0  0  0  0  0
    0.6084    5.1036    5.8470 O   0  0  0  0  0  0  0  0  0  0  0  0
   -0.4179    3.4477    4.3107 C   0  0  1  0  0  0  0  0  0  0  0  0
   -0.6656    4.4308    3.3150 O   0  0  0  0  0  0  0  0  0  0  0  0
   -0.3733    1.9402    3.7592 C   0  0  2  0  0  0  0  0  0  0  0  0
   -1.2899    1.8587    2.4982 C   0  0  0  0  0  0  0  0  0  0  0  0
   -0.6108    0.5954    4.5898 C   0  0  1  0  0  0  0  0  0  0  0  0
    0.5566   -0.4941    4.2356 C   0  0  1  0  0  0  0  0  0  0  0  0
    1.1620    0.2287    3.0892 C   0  0  0  0  0  0  0  0  0  0  0  0
    1.0837    1.6734    3.6173 C   0  0  1  0  0  0  0  0  0  0  0  0
    1.6682    2.5199    2.4055 C   0  0  0  0  0  0  0  0  0  0  0  0
    1.5786    1.8857    5.2425 C   0  0  2  0  0  0  0  0  0  0  0  0
    0.7949    2.7548    6.2736 C   0  0  1  0  0  0  0  0  0  0  0  0
    1.5756    3.1769    7.5668 C   0  0  0  0  0  0  0  0  0  0  0  0
   -0.5471    2.0622    6.7232 C   0  0  2  0  0  0  0  0  0  0  0  0
   -1.4761    2.9042    7.6344 C   0  0  0  0  0  0  0  0  0  0  0  0
   -1.2891    2.6445    9.1491 C   0  0  0  0  0  0  0  0  0  0  0  0
   -2.9737    2.7317    7.3169 C   0  0  0  0  0  0  0  0  0  0  0  0
   -0.3433    0.7148    7.1735 O   0  0  0  0  0  0  0  0  0  0  0  0
   -1.1253    0.8401    5.9932 C   0  0  2  0  0  0  0  0  0  0  0  0
    1.5670   -0.8005    7.2032 H   0  0  0  0  0  0  0  0  0  0  0  0
    2.2419   -2.3377    6.7177 H   0  0  0  0  0  0  0  0  0  0  0  0
    0.5308   -2.0162    6.4499 H   0  0  0  0  0  0  0  0  0  0  0  0
    2.0851   -1.9203    4.4794 H   0  0  0  0  0  0  0  0  0  0  0  0
    3.7201   -0.3404    6.0296 H   0  0  0  0  0  0  0  0  0  0  0  0
    3.9795   -0.9141    4.4378 H   0  0  0  0  0  0  0  0  0  0  0  0
    4.7171    1.3984    4.7810 H   0  0  0  0  0  0  0  0  0  0  0  0
    3.7316    1.2598    3.4443 H   0  0  0  0  0  0  0  0  0  0  0  0
    3.4102    2.5841    6.1203 H   0  0  0  0  0  0  0  0  0  0  0  0
    1.2378    5.1945    6.5501 H   0  0  0  0  0  0  0  0  0  0  0  0
   -1.3282    3.5547    4.8940 H   0  0  0  0  0  0  0  0  0  0  0  0
   -0.1603    4.2349    2.5261 H   0  0  0  0  0  0  0  0  0  0  0  0
   -1.3706    0.8683    2.0490 H   0  0  0  0  0  0  0  0  0  0  0  0
   -0.9682    2.5271    1.7046 H   0  0  0  0  0  0  0  0  0  0  0  0
   -2.3035    2.1556    2.7627 H   0  0  0  0  0  0  0  0  0  0  0  0
   -1.4870    0.1322    4.1324 H   0  0  0  0  0  0  0  0  0  0  0  0
    0.0563   -1.3952    3.8728 H   0  0  0  0  0  0  0  0  0  0  0  0
    2.1534   -0.1077    2.7904 H   0  0  0  0  0  0  0  0  0  0  0  0
    0.5789    0.0841    2.1821 H   0  0  0  0  0  0  0  0  0  0  0  0
    2.7027    2.3354    2.1508 H   0  0  0  0  0  0  0  0  0  0  0  0
    1.5886    3.6013    2.4912 H   0  0  0  0  0  0  0  0  0  0  0  0
    1.1536    2.2729    1.4803 H   0  0  0  0  0  0  0  0  0  0  0  0
    1.6099    1.0568    5.9120 H   0  0  0  0  0  0  0  0  0  0  0  0
    1.8911    2.3030    8.1364 H   0  0  0  0  0  0  0  0  0  0  0  0
    0.9716    3.8056    8.2136 H   0  0  0  0  0  0  0  0  0  0  0  0
    2.4527    3.7939    7.3859 H   0  0  0  0  0  0  0  0  0  0  0  0
   -1.2510    3.9508    7.4362 H   0  0  0  0  0  0  0  0  0  0  0  0
   -1.6135    1.6401    9.4222 H   0  0  0  0  0  0  0  0  0  0  0  0
   -1.9074    3.3330    9.7260 H   0  0  0  0  0  0  0  0  0  0  0  0
   -0.2677    2.7597    9.5116 H   0  0  0  0  0  0  0  0  0  0  0  0
   -3.3321    1.7494    7.6158 H   0  0  0  0  0  0  0  0  0  0  0  0
   -3.1943    2.8618    6.2588 H   0  0  0  0  0  0  0  0  0  0  0  0
   -3.5669    3.4562    7.8702 H   0  0  0  0  0  0  0  0  0  0  0  0
   -2.1614    0.5474    6.1427 H   0  0  0  0  0  0  0  0  0  0  0  0
  1  2  1  0
  1 27  1  0
  1 28  1  0
  1 29  1  0
  2 14  1  0
  2  3  1  0
  2 30  1  6
  3  4  1  0
  3 31  1  0
  3 32  1  0
  4  5  1  0
  4 33  1  0
  4 34  1  0
  5 18  1  0
  5  6  1  0
  5 35  1  1
  6  7  1  0
  7 19  1  0
  7  8  1  1
  7  9  1  0
  8 36  1  0
  9 10  1  0
  9 11  1  0
  9 37  1  1
 10 38  1  0
 11 16  1  0
 11 12  1  6
 11 13  1  0
 12 39  1  0
 12 40  1  0
 12 41  1  0
 13 26  1  0
 13 14  1  0
 13 42  1  6
 14 15  1  0
 14 43  1  6
 15 16  1  0
 15 44  1  0
 15 45  1  0
 16 17  1  6
 16 18  1  0
 17 46  1  0
 17 47  1  0
 17 48  1  0
 18 19  1  0
 18 49  1  1
 19 20  1  1
 19 21  1  0
 20 50  1  0
 20 51  1  0
 20 52  1  0
 21 26  1  0
 21 22  1  1
 21 25  1  0
 22 23  1  0
 22 24  1  0
 22 53  1  0
 23 54  1  0
 23 55  1  0
 23 56  1  0
 24 57  1  0
 24 58  1  0
 24 59  1  0
 25 26  1  0
 26 60  1  1
M  END
>  <i_m_ct_stereo_status>  (7) 
1

>  <s_m_source_file>  (7) 
/var/tmp/pbs.5076255.sched01/tmpcyubysk0/0_f5co88n.sdf

>  <i_m_source_file_index>  (7) 
4

>  <i_lp_mmshare_version>  (7) 
48012

>  <i_f3d_flags>  (7) 
0

>  <s_epik_input>  (7) 
W0NIM11bQ0hdKFtDSDNdKVtDQEBdMShPMilbQ0BIXTJbQ0BASF0oW0NAQF0oW0NIM10pKFtDQEBIXTNbT0hdKVtDQEBdNChbQ0gyXTUpW0NIM10pW0NAQEhdNVtDQEhdKFtDSDNdKVtDSDJdW0NIMl1bQ0BASF0oTzYpW0NASF00W0NAQF0xKFtDSDNdKVtDQF0zNltPSF0=

>  <s_epik_cmdline>  (7) 
J2VwaWtfcHl0aG9uJywgJy1waHQnLCAnMi4wJywgJy1waCcsICc3LjAnLCAnLXRuJywgJzgnLCAnLW1hJywgJzIwMCcsICctaW1hZScsICc8aW5maWxlLm1hZT4nLCAnLW9tYWUnLCAnPG91dGZpbGUubWFlPic=

>  <r_lp_tautomer_probability>  (7) 
1

>  <r_epik_Ionization_Penalty>  (7) 
8.36012e-07

>  <r_epik_Ionization_Penalty_Charging>  (7) 
0

>  <r_epik_Ionization_Penalty_Neutral>  (7) 
8.36012e-07

>  <r_epik_State_Penalty>  (7) 
-0

>  <r_epik_Charging_Adjusted_Penalty>  (7) 
0

>  <i_epik_Tot_Q>  (7) 
0

>  <i_epik_Tot_abs_Q>  (7) 
0

>  <s_lp_Force_Field>  (7) 
OPLS3e

>  <r_lp_Energy>  (7) 
233.196

>  <b_lp_Chiralities_Consistent>  (7) 
1

>  <s_lp_Variant>  (7) 
3:0-1

>  <s_i_glide_gridfile>  (7) 
pfpi4k_grid

>  <i_i_glide_lignum>  (7) 
4

>  <i_i_glide_rotatable_bonds>  (7) 
3

>  <r_i_docking_score>  (7) 
-2.69588

>  <r_i_glide_ligand_efficiency>  (7) 
-0.103688

>  <r_i_glide_ligand_efficiency_sa>  (7) 
-0.307174

>  <r_i_glide_ligand_efficiency_ln>  (7) 
-0.633118

>  <r_i_glide_gscore>  (7) 
-2.69588

>  <r_i_glide_lipo>  (7) 
-0.202681

>  <r_i_glide_hbond>  (7) 
0

>  <r_i_glide_metal>  (7) 
-0

>  <r_i_glide_rewards>  (7) 
-0.93748

>  <r_i_glide_evdw>  (7) 
-15.3267

>  <r_i_glide_ecoul>  (7) 
-5.22044

>  <r_i_glide_erotb>  (7) 
0

>  <r_i_glide_esite>  (7) 
-0.0063175

>  <r_i_glide_emodel>  (7) 
-23.6044

>  <r_i_glide_energy>  (7) 
-20.5471

>  <r_i_glide_einternal>  (7) 
1.02902

>  <r_i_glide_intrahb_reward>  (7) 
-0

>  <i_i_glide_confnum>  (7) 
1

>  <i_i_glide_posenum>  (7) 
1

>  <r_i_glide_eff_state_penalty>  (7) 
0

>  <ligand_id>  (7) 
3

>  <original_smiles>  (7) 
CC1CCC2OC3(O)C(O)C4(C)C5C1CC4(C)C2C3(C)C1(C(C)C)OC51

>  <smiles>  (7) 
[H]OC1([H])C2(O[H])OC3([H])C([H])([H])C([H])([H])C([H])(C([H])([H])[H])C4([H])C([H])([H])C5(C([H])([H])[H])C3([H])C2(C([H])([H])[H])C2(C([H])(C([H])([H])[H])C([H])([H])[H])OC2([H])C4([H])C15C([H])([H])[H]

$$$$
3:0:1
     RDKit          3D

 60 65  0  0  1  0  0  0  0  0999 V2000
   -0.0142   -1.8040    6.3238 C   0  0  0  0  0  0  0  0  0  0  0  0
    0.3830   -1.2065    4.9644 C   0  0  2  0  0  0  0  0  0  0  0  0
    1.9888   -0.8871    4.8852 C   0  0  0  0  0  0  0  0  0  0  0  0
    2.7132    0.5082    4.4939 C   0  0  0  0  0  0  0  0  0  0  0  0
    2.3369    1.8047    5.3214 C   0  0  1  0  0  0  0  0  0  0  0  0
    1.9828    3.2232    5.0266 O   0  0  0  0  0  0  0  0  0  0  0  0
    0.7392    3.6904    5.6939 C   0  0  1  0  0  0  0  0  0  0  0  0
    0.9188    4.8908    6.4047 O   0  0  0  0  0  0  0  0  0  0  0  0
   -0.6078    3.7522    4.8193 C   0  0  1  0  0  0  0  0  0  0  0  0
   -0.5941    4.8440    3.9095 O   0  0  0  0  0  0  0  0  0  0  0  0
   -1.0187    2.3566    4.1371 C   0  0  2  0  0  0  0  0  0  0  0  0
   -1.9991    2.6655    2.9553 C   0  0  0  0  0  0  0  0  0  0  0  0
   -1.5670    1.0447    4.8705 C   0  0  1  0  0  0  0  0  0  0  0  0
   -0.7693   -0.2742    4.3258 C   0  0  1  0  0  0  0  0  0  0  0  0
   -0.0558    0.3759    3.1967 C   0  0  0  0  0  0  0  0  0  0  0  0
    0.2988    1.7220    3.8536 C   0  0  1  0  0  0  0  0  0  0  0  0
    1.0283    2.5012    2.6773 C   0  0  0  0  0  0  0  0  0  0  0  0
    0.9264    1.6186    5.4433 C   0  0  2  0  0  0  0  0  0  0  0  0
    0.4722    2.5490    6.6100 C   0  0  1  0  0  0  0  0  0  0  0  0
    1.4112    2.6044    7.8641 C   0  0  0  0  0  0  0  0  0  0  0  0
   -0.9785    2.2001    7.1091 C   0  0  2  0  0  0  0  0  0  0  0  0
   -1.5898    3.1529    8.1683 C   0  0  0  0  0  0  0  0  0  0  0  0
   -1.3847    2.6994    9.6331 C   0  0  0  0  0  0  0  0  0  0  0  0
   -3.0961    3.4128    7.9738 C   0  0  0  0  0  0  0  0  0  0  0  0
   -1.1178    0.8057    7.4160 O   0  0  0  0  0  0  0  0  0  0  0  0
   -1.9090    1.2657    6.3299 C   0  0  2  0  0  0  0  0  0  0  0  0
    0.2824   -1.1644    7.1539 H   0  0  0  0  0  0  0  0  0  0  0  0
    0.4788   -2.7641    6.4808 H   0  0  0  0  0  0  0  0  0  0  0  0
   -1.0900   -1.9704    6.3841 H   0  0  0  0  0  0  0  0  0  0  0  0
    0.3141   -2.0790    4.3086 H   0  0  0  0  0  0  0  0  0  0  0  0
    2.4103   -1.1770    5.8488 H   0  0  0  0  0  0  0  0  0  0  0  0
    2.4089   -1.6241    4.1974 H   0  0  0  0  0  0  0  0  0  0  0  0
    3.7764    0.3535    4.6784 H   0  0  0  0  0  0  0  0  0  0  0  0
    2.7155    0.6287    3.4234 H   0  0  0  0  0  0  0  0  0  0  0  0
    2.9256    1.6977    6.2237 H   0  0  0  0  0  0  0  0  0  0  0  0
    1.5665    4.7252    7.0767 H   0  0  0  0  0  0  0  0  0  0  0  0
   -1.4212    4.0495    5.4760 H   0  0  0  0  0  0  0  0  0  0  0  0
   -0.1092    4.5858    3.1300 H   0  0  0  0  0  0  0  0  0  0  0  0
   -2.3455    1.7844    2.4152 H   0  0  0  0  0  0  0  0  0  0  0  0
   -1.5824    3.3332    2.2013 H   0  0  0  0  0  0  0  0  0  0  0  0
   -2.8940    3.1538    3.3420 H   0  0  0  0  0  0  0  0  0  0  0  0
   -2.5638    0.8820    4.4600 H   0  0  0  0  0  0  0  0  0  0  0  0
   -1.5249   -0.9616    3.9442 H   0  0  0  0  0  0  0  0  0  0  0  0
    0.7853   -0.1817    2.7865 H   0  0  0  0  0  0  0  0  0  0  0  0
   -0.7045    0.4942    2.3312 H   0  0  0  0  0  0  0  0  0  0  0  0
    1.9558    2.0748    2.3199 H   0  0  0  0  0  0  0  0  0  0  0  0
    1.2594    3.5469    2.8629 H   0  0  0  0  0  0  0  0  0  0  0  0
    0.4091    2.4989    1.7846 H   0  0  0  0  0  0  0  0  0  0  0  0
    0.7675    0.7436    6.0301 H   0  0  0  0  0  0  0  0  0  0  0  0
    1.5041    1.6220    8.3254 H   0  0  0  0  0  0  0  0  0  0  0  0
    1.0413    3.2979    8.6122 H   0  0  0  0  0  0  0  0  0  0  0  0
    2.4131    2.9794    7.6676 H   0  0  0  0  0  0  0  0  0  0  0  0
   -1.1094    4.1202    8.0373 H   0  0  0  0  0  0  0  0  0  0  0  0
   -1.9486    1.7927    9.8510 H   0  0  0  0  0  0  0  0  0  0  0  0
   -1.7567    3.4634   10.3158 H   0  0  0  0  0  0  0  0  0  0  0  0
   -0.3498    2.5067    9.9112 H   0  0  0  0  0  0  0  0  0  0  0  0
   -3.7000    2.5463    8.2452 H   0  0  0  0  0  0  0  0  0  0  0  0
   -3.3347    3.6740    6.9443 H   0  0  0  0  0  0  0  0  0  0  0  0
   -3.4379    4.2298    8.6079 H   0  0  0  0  0  0  0  0  0  0  0  0
   -2.9715    1.2410    6.5517 H   0  0  0  0  0  0  0  0  0  0  0  0
  1  2  1  0
  1 27  1  0
  1 28  1  0
  1 29  1  0
  2 14  1  0
  2  3  1  0
  2 30  1  6
  3  4  1  0
  3 31  1  0
  3 32  1  0
  4  5  1  0
  4 33  1  0
  4 34  1  0
  5 18  1  0
  5  6  1  0
  5 35  1  1
  6  7  1  0
  7 19  1  0
  7  8  1  1
  7  9  1  0
  8 36  1  0
  9 10  1  0
  9 11  1  0
  9 37  1  1
 10 38  1  0
 11 16  1  0
 11 12  1  6
 11 13  1  0
 12 39  1  0
 12 40  1  0
 12 41  1  0
 13 26  1  0
 13 14  1  0
 13 42  1  6
 14 15  1  0
 14 43  1  6
 15 16  1  0
 15 44  1  0
 15 45  1  0
 16 17  1  6
 16 18  1  0
 17 46  1  0
 17 47  1  0
 17 48  1  0
 18 19  1  0
 18 49  1  1
 19 20  1  1
 19 21  1  0
 20 50  1  0
 20 51  1  0
 20 52  1  0
 21 26  1  0
 21 22  1  1
 21 25  1  0
 22 23  1  0
 22 24  1  0
 22 53  1  0
 23 54  1  0
 23 55  1  0
 23 56  1  0
 24 57  1  0
 24 58  1  0
 24 59  1  0
 25 26  1  0
 26 60  1  1
M  END
>  <i_m_ct_stereo_status>  (8) 
1

>  <s_m_source_file>  (8) 
/var/tmp/pbs.5076255.sched01/tmpcyubysk0/0_f5co88n.sdf

>  <i_m_source_file_index>  (8) 
4

>  <i_lp_mmshare_version>  (8) 
48012

>  <i_f3d_flags>  (8) 
0

>  <s_epik_input>  (8) 
W0NIM11bQ0hdKFtDSDNdKVtDQEBdMShPMilbQ0BIXTJbQ0BASF0oW0NAQF0oW0NIM10pKFtDQEBIXTNbT0hdKVtDQEBdNChbQ0gyXTUpW0NIM10pW0NAQEhdNVtDQEhdKFtDSDNdKVtDSDJdW0NIMl1bQ0BASF0oTzYpW0NASF00W0NAQF0xKFtDSDNdKVtDQF0zNltPSF0=

>  <s_epik_cmdline>  (8) 
J2VwaWtfcHl0aG9uJywgJy1waHQnLCAnMi4wJywgJy1waCcsICc3LjAnLCAnLXRuJywgJzgnLCAnLW1hJywgJzIwMCcsICctaW1hZScsICc8aW5maWxlLm1hZT4nLCAnLW9tYWUnLCAnPG91dGZpbGUubWFlPic=

>  <r_lp_tautomer_probability>  (8) 
1

>  <r_epik_Ionization_Penalty>  (8) 
8.36012e-07

>  <r_epik_Ionization_Penalty_Charging>  (8) 
0

>  <r_epik_Ionization_Penalty_Neutral>  (8) 
8.36012e-07

>  <r_epik_State_Penalty>  (8) 
-0

>  <r_epik_Charging_Adjusted_Penalty>  (8) 
0

>  <i_epik_Tot_Q>  (8) 
0

>  <i_epik_Tot_abs_Q>  (8) 
0

>  <s_lp_Force_Field>  (8) 
OPLS3e

>  <r_lp_Energy>  (8) 
233.196

>  <b_lp_Chiralities_Consistent>  (8) 
1

>  <s_lp_Variant>  (8) 
3:0-1

>  <s_i_glide_gridfile>  (8) 
pfpi4k_grid

>  <i_i_glide_lignum>  (8) 
4

>  <i_i_glide_rotatable_bonds>  (8) 
3

>  <r_i_docking_score>  (8) 
-2.66134

>  <r_i_glide_ligand_efficiency>  (8) 
-0.102359

>  <r_i_glide_ligand_efficiency_sa>  (8) 
-0.303239

>  <r_i_glide_ligand_efficiency_ln>  (8) 
-0.625008

>  <r_i_glide_gscore>  (8) 
-2.66134

>  <r_i_glide_lipo>  (8) 
-0.101564

>  <r_i_glide_hbond>  (8) 
-0.115092

>  <r_i_glide_metal>  (8) 
-0

>  <r_i_glide_rewards>  (8) 
-0.93748

>  <r_i_glide_evdw>  (8) 
-16.0787

>  <r_i_glide_ecoul>  (8) 
-4.67577

>  <r_i_glide_erotb>  (8) 
0

>  <r_i_glide_esite>  (8) 
-0.00190787

>  <r_i_glide_emodel>  (8) 
-23.9676

>  <r_i_glide_energy>  (8) 
-20.7545

>  <r_i_glide_einternal>  (8) 
0.723248

>  <r_i_glide_intrahb_reward>  (8) 
-0

>  <i_i_glide_confnum>  (8) 
1

>  <i_i_glide_posenum>  (8) 
31

>  <r_i_glide_eff_state_penalty>  (8) 
0

>  <ligand_id>  (8) 
3

>  <original_smiles>  (8) 
CC1CCC2OC3(O)C(O)C4(C)C5C1CC4(C)C2C3(C)C1(C(C)C)OC51

>  <smiles>  (8) 
[H]OC1([H])C2(O[H])OC3([H])C([H])([H])C([H])([H])C([H])(C([H])([H])[H])C4([H])C([H])([H])C5(C([H])([H])[H])C3([H])C2(C([H])([H])[H])C2(C([H])(C([H])([H])[H])C([H])([H])[H])OC2([H])C4([H])C15C([H])([H])[H]

$$$$
3:0:2
     RDKit          3D

 60 65  0  0  1  0  0  0  0  0999 V2000
   -0.2028   -1.9269    6.3428 C   0  0  0  0  0  0  0  0  0  0  0  0
    0.1764   -1.4247    4.9413 C   0  0  2  0  0  0  0  0  0  0  0  0
    1.7987   -1.2814    4.7648 C   0  0  0  0  0  0  0  0  0  0  0  0
    2.6401    0.0120    4.2753 C   0  0  0  0  0  0  0  0  0  0  0  0
    2.4467    1.3688    5.0637 C   0  0  1  0  0  0  0  0  0  0  0  0
    2.2268    2.7976    4.7188 O   0  0  0  0  0  0  0  0  0  0  0  0
    1.0848    3.4253    5.4460 C   0  0  1  0  0  0  0  0  0  0  0  0
    1.4274    4.6269    6.0822 O   0  0  0  0  0  0  0  0  0  0  0  0
   -0.2832    3.5988    4.6339 C   0  0  1  0  0  0  0  0  0  0  0  0
   -0.1823    4.6654    3.7021 O   0  0  0  0  0  0  0  0  0  0  0  0
   -0.8858    2.2376    4.0339 C   0  0  2  0  0  0  0  0  0  0  0  0
   -1.8921    2.6100    2.8962 C   0  0  0  0  0  0  0  0  0  0  0  0
   -1.5274    1.0184    4.8452 C   0  0  1  0  0  0  0  0  0  0  0  0
   -0.9054   -0.3972    4.3290 C   0  0  1  0  0  0  0  0  0  0  0  0
   -0.1919    0.1330    3.1369 C   0  0  0  0  0  0  0  0  0  0  0  0
    0.3362    1.4519    3.7114 C   0  0  1  0  0  0  0  0  0  0  0  0
    1.0680    2.1048    2.4582 C   0  0  0  0  0  0  0  0  0  0  0  0
    1.0334    1.3382    5.2709 C   0  0  2  0  0  0  0  0  0  0  0  0
    0.7502    2.3509    6.4215 C   0  0  1  0  0  0  0  0  0  0  0  0
    1.7663    2.3569    7.6078 C   0  0  0  0  0  0  0  0  0  0  0  0
   -0.7082    2.1739    7.0052 C   0  0  2  0  0  0  0  0  0  0  0  0
   -1.1484    3.2342    8.0576 C   0  0  0  0  0  0  0  0  0  0  0  0
   -0.8834    2.8360    9.5308 C   0  0  0  0  0  0  0  0  0  0  0  0
   -2.6412    3.6147    7.9590 C   0  0  0  0  0  0  0  0  0  0  0  0
   -0.9753    0.8251    7.3812 O   0  0  0  0  0  0  0  0  0  0  0  0
   -1.7621    1.3276    6.3204 C   0  0  2  0  0  0  0  0  0  0  0  0
    0.2039   -1.2917    7.1291 H   0  0  0  0  0  0  0  0  0  0  0  0
    0.1956   -2.9276    6.5161 H   0  0  0  0  0  0  0  0  0  0  0  0
   -1.2853   -1.9765    6.4614 H   0  0  0  0  0  0  0  0  0  0  0  0
   -0.0204   -2.3089    4.3281 H   0  0  0  0  0  0  0  0  0  0  0  0
    2.2419   -1.5791    5.7162 H   0  0  0  0  0  0  0  0  0  0  0  0
    2.0996   -2.0837    4.0888 H   0  0  0  0  0  0  0  0  0  0  0  0
    3.6895   -0.2475    4.4095 H   0  0  0  0  0  0  0  0  0  0  0  0
    2.5951    0.0932    3.2021 H   0  0  0  0  0  0  0  0  0  0  0  0
    3.0784    1.2328    5.9358 H   0  0  0  0  0  0  0  0  0  0  0  0
    1.5524    5.2784    5.3887 H   0  0  0  0  0  0  0  0  0  0  0  0
   -1.0268    4.0054    5.3201 H   0  0  0  0  0  0  0  0  0  0  0  0
    0.1453    4.3356    2.8577 H   0  0  0  0  0  0  0  0  0  0  0  0
   -2.3602    1.7521    2.4169 H   0  0  0  0  0  0  0  0  0  0  0  0
   -1.4570    3.1951    2.0796 H   0  0  0  0  0  0  0  0  0  0  0  0
   -2.7097    3.1997    3.3096 H   0  0  0  0  0  0  0  0  0  0  0  0
   -2.5497    0.9463    4.4788 H   0  0  0  0  0  0  0  0  0  0  0  0
   -1.7500   -1.0164    4.0256 H   0  0  0  0  0  0  0  0  0  0  0  0
    0.5606   -0.5282    2.7060 H   0  0  0  0  0  0  0  0  0  0  0  0
   -0.8749    0.2902    2.3072 H   0  0  0  0  0  0  0  0  0  0  0  0
    1.9267    1.5694    2.0792 H   0  0  0  0  0  0  0  0  0  0  0  0
    1.4138    3.1266    2.5775 H   0  0  0  0  0  0  0  0  0  0  0  0
    0.4024    2.1331    1.5977 H   0  0  0  0  0  0  0  0  0  0  0  0
    0.8196    0.5066    5.9043 H   0  0  0  0  0  0  0  0  0  0  0  0
    1.7814    1.4008    8.1261 H   0  0  0  0  0  0  0  0  0  0  0  0
    1.5398    3.1398    8.3239 H   0  0  0  0  0  0  0  0  0  0  0  0
    2.7883    2.6126    7.3377 H   0  0  0  0  0  0  0  0  0  0  0  0
   -0.5951    4.1432    7.8411 H   0  0  0  0  0  0  0  0  0  0  0  0
   -1.5061    1.9989    9.8382 H   0  0  0  0  0  0  0  0  0  0  0  0
   -1.1329    3.6649   10.1916 H   0  0  0  0  0  0  0  0  0  0  0  0
    0.1423    2.5610    9.7690 H   0  0  0  0  0  0  0  0  0  0  0  0
   -3.2879    2.8146    8.3208 H   0  0  0  0  0  0  0  0  0  0  0  0
   -2.9435    3.8515    6.9399 H   0  0  0  0  0  0  0  0  0  0  0  0
   -2.8658    4.4872    8.5725 H   0  0  0  0  0  0  0  0  0  0  0  0
   -2.8145    1.4216    6.5890 H   0  0  0  0  0  0  0  0  0  0  0  0
  1  2  1  0
  1 27  1  0
  1 28  1  0
  1 29  1  0
  2 14  1  0
  2  3  1  0
  2 30  1  6
  3  4  1  0
  3 31  1  0
  3 32  1  0
  4  5  1  0
  4 33  1  0
  4 34  1  0
  5 18  1  0
  5  6  1  0
  5 35  1  1
  6  7  1  0
  7 19  1  0
  7  8  1  1
  7  9  1  0
  8 36  1  0
  9 10  1  0
  9 11  1  0
  9 37  1  1
 10 38  1  0
 11 16  1  0
 11 12  1  6
 11 13  1  0
 12 39  1  0
 12 40  1  0
 12 41  1  0
 13 26  1  0
 13 14  1  0
 13 42  1  6
 14 15  1  0
 14 43  1  6
 15 16  1  0
 15 44  1  0
 15 45  1  0
 16 17  1  6
 16 18  1  0
 17 46  1  0
 17 47  1  0
 17 48  1  0
 18 19  1  0
 18 49  1  1
 19 20  1  1
 19 21  1  0
 20 50  1  0
 20 51  1  0
 20 52  1  0
 21 26  1  0
 21 22  1  1
 21 25  1  0
 22 23  1  0
 22 24  1  0
 22 53  1  0
 23 54  1  0
 23 55  1  0
 23 56  1  0
 24 57  1  0
 24 58  1  0
 24 59  1  0
 25 26  1  0
 26 60  1  1
M  END
>  <i_m_ct_stereo_status>  (9) 
1

>  <s_m_source_file>  (9) 
/var/tmp/pbs.5076255.sched01/tmpcyubysk0/0_f5co88n.sdf

>  <i_m_source_file_index>  (9) 
4

>  <i_lp_mmshare_version>  (9) 
48012

>  <i_f3d_flags>  (9) 
0

>  <s_epik_input>  (9) 
W0NIM11bQ0hdKFtDSDNdKVtDQEBdMShPMilbQ0BIXTJbQ0BASF0oW0NAQF0oW0NIM10pKFtDQEBIXTNbT0hdKVtDQEBdNChbQ0gyXTUpW0NIM10pW0NAQEhdNVtDQEhdKFtDSDNdKVtDSDJdW0NIMl1bQ0BASF0oTzYpW0NASF00W0NAQF0xKFtDSDNdKVtDQF0zNltPSF0=

>  <s_epik_cmdline>  (9) 
J2VwaWtfcHl0aG9uJywgJy1waHQnLCAnMi4wJywgJy1waCcsICc3LjAnLCAnLXRuJywgJzgnLCAnLW1hJywgJzIwMCcsICctaW1hZScsICc8aW5maWxlLm1hZT4nLCAnLW9tYWUnLCAnPG91dGZpbGUubWFlPic=

>  <r_lp_tautomer_probability>  (9) 
1

>  <r_epik_Ionization_Penalty>  (9) 
8.36012e-07

>  <r_epik_Ionization_Penalty_Charging>  (9) 
0

>  <r_epik_Ionization_Penalty_Neutral>  (9) 
8.36012e-07

>  <r_epik_State_Penalty>  (9) 
-0

>  <r_epik_Charging_Adjusted_Penalty>  (9) 
0

>  <i_epik_Tot_Q>  (9) 
0

>  <i_epik_Tot_abs_Q>  (9) 
0

>  <s_lp_Force_Field>  (9) 
OPLS3e

>  <r_lp_Energy>  (9) 
233.196

>  <b_lp_Chiralities_Consistent>  (9) 
1

>  <s_lp_Variant>  (9) 
3:0-1

>  <s_i_glide_gridfile>  (9) 
pfpi4k_grid

>  <i_i_glide_lignum>  (9) 
4

>  <i_i_glide_rotatable_bonds>  (9) 
3

>  <r_i_docking_score>  (9) 
-2.58095

>  <r_i_glide_ligand_efficiency>  (9) 
-0.0992672

>  <r_i_glide_ligand_efficiency_sa>  (9) 
-0.294079

>  <r_i_glide_ligand_efficiency_ln>  (9) 
-0.606127

>  <r_i_glide_gscore>  (9) 
-2.58095

>  <r_i_glide_lipo>  (9) 
-0.102627

>  <r_i_glide_hbond>  (9) 
-0.0735388

>  <r_i_glide_metal>  (9) 
-0

>  <r_i_glide_rewards>  (9) 
-0.93748

>  <r_i_glide_evdw>  (9) 
-17.1449

>  <r_i_glide_ecoul>  (9) 
-4.06372

>  <r_i_glide_erotb>  (9) 
0

>  <r_i_glide_esite>  (9) 
-0.000499312

>  <r_i_glide_emodel>  (9) 
-24.2506

>  <r_i_glide_energy>  (9) 
-21.2086

>  <r_i_glide_einternal>  (9) 
0.531246

>  <r_i_glide_intrahb_reward>  (9) 
-0

>  <i_i_glide_confnum>  (9) 
1

>  <i_i_glide_posenum>  (9) 
39

>  <r_i_glide_eff_state_penalty>  (9) 
0

>  <ligand_id>  (9) 
3

>  <original_smiles>  (9) 
CC1CCC2OC3(O)C(O)C4(C)C5C1CC4(C)C2C3(C)C1(C(C)C)OC51

>  <smiles>  (9) 
[H]OC1([H])C2(O[H])OC3([H])C([H])([H])C([H])([H])C([H])(C([H])([H])[H])C4([H])C([H])([H])C5(C([H])([H])[H])C3([H])C2(C([H])([H])[H])C2(C([H])(C([H])([H])[H])C([H])([H])[H])OC2([H])C4([H])C15C([H])([H])[H]

$$$$
4:0:0
     RDKit          3D

 32 32  0  0  1  0  0  0  0  0999 V2000
    4.7521   -3.7794   -3.3665 C   0  0  0  0  0  0  0  0  0  0  0  0
    3.8547   -3.0786   -2.4141 N   0  0  0  0  0  0  0  0  0  0  0  0
    3.3328   -1.8155   -2.9851 C   0  0  0  0  0  0  0  0  0  0  0  0
    4.4690   -2.8735   -1.0742 C   0  0  0  0  0  0  0  0  0  0  0  0
    4.5840   -4.1753   -0.2578 C   0  0  0  0  0  0  0  0  0  0  0  0
    3.2406   -4.8276    0.1131 C   0  0  0  0  0  0  0  0  0  0  0  0
    2.2169   -4.2210   -0.1976 O   0  0  0  0  0  0  0  0  0  0  0  0
    3.2234   -6.1551    0.8023 C   0  0  0  0  0  0  0  0  0  0  0  0
    4.3953   -6.8285    0.9111 C   0  0  0  0  0  0  0  0  0  0  0  0
    4.4424   -8.1291    1.5153 C   0  0  0  0  0  0  0  0  0  0  0  0
    6.1752   -9.0539    1.6694 Br  0  0  0  0  0  0  0  0  0  0  0  0
    3.3265   -8.6975    1.9800 C   0  0  0  0  0  0  0  0  0  0  0  0
    2.0953   -8.0287    1.8762 N   0  0  0  0  0  0  0  0  0  0  0  0
    0.9372   -8.7469    2.4186 C   0  0  0  0  0  0  0  0  0  0  0  0
    1.9709   -6.7867    1.3066 C   0  0  0  0  0  0  0  0  0  0  0  0
    0.8642   -6.2484    1.2142 O   0  0  0  0  0  0  0  0  0  0  0  0
    5.6802   -3.2222   -3.5177 H   0  0  0  0  0  0  0  0  0  0  0  0
    4.2641   -3.9013   -4.3353 H   0  0  0  0  0  0  0  0  0  0  0  0
    5.0154   -4.7745   -3.0114 H   0  0  0  0  0  0  0  0  0  0  0  0
    4.1428   -1.1036   -3.1659 H   0  0  0  0  0  0  0  0  0  0  0  0
    2.6134   -1.3512   -2.3097 H   0  0  0  0  0  0  0  0  0  0  0  0
    2.8211   -2.0006   -3.9315 H   0  0  0  0  0  0  0  0  0  0  0  0
    5.4537   -2.4168   -1.1870 H   0  0  0  0  0  0  0  0  0  0  0  0
    3.8795   -2.1526   -0.5077 H   0  0  0  0  0  0  0  0  0  0  0  0
    5.1961   -4.8816   -0.8112 H   0  0  0  0  0  0  0  0  0  0  0  0
    5.1080   -3.9651    0.6716 H   0  0  0  0  0  0  0  0  0  0  0  0
    5.3351   -6.4454    0.5439 H   0  0  0  0  0  0  0  0  0  0  0  0
    3.3032   -9.6719    2.4523 H   0  0  0  0  0  0  0  0  0  0  0  0
   -0.0147   -8.2296    2.2963 H   0  0  0  0  0  0  0  0  0  0  0  0
    1.0703   -8.9238    3.4855 H   0  0  0  0  0  0  0  0  0  0  0  0
    0.8313   -9.7165    1.9328 H   0  0  0  0  0  0  0  0  0  0  0  0
    3.0471   -3.6795   -2.2695 H   0  0  0  0  0  0  0  0  0  0  0  0
  1  2  1  0
  1 17  1  0
  1 18  1  0
  1 19  1  0
  2  3  1  0
  2  4  1  0
  2 32  1  0
  3 20  1  0
  3 21  1  0
  3 22  1  0
  4  5  1  0
  4 23  1  0
  4 24  1  0
  5  6  1  0
  5 25  1  0
  5 26  1  0
  6  7  2  0
  6  8  1  0
  8 15  1  0
  8  9  2  0
  9 10  1  0
  9 27  1  0
 10 11  1  0
 10 12  2  0
 12 13  1  0
 12 28  1  0
 13 14  1  0
 13 15  1  0
 14 29  1  0
 14 30  1  0
 14 31  1  0
 15 16  2  0
M  CHG  1   2   1
M  END
>  <i_m_ct_stereo_status>  (10) 
1

>  <s_m_source_file>  (10) 
/var/tmp/pbs.5076255.sched01/tmpcyubysk0/0_f5co88n.sdf

>  <i_m_source_file_index>  (10) 
5

>  <i_lp_mmshare_version>  (10) 
48012

>  <i_f3d_flags>  (10) 
0

>  <s_epik_input>  (10) 
W0NIM11OKFtDSDNdKVtDSDJdW0NIMl1DKD1PKWMxW2NIXWMoQnIpW2NIXW4oW0NIM10pYzE9Tw==

>  <s_epik_cmdline>  (10) 
J2VwaWtfcHl0aG9uJywgJy1waHQnLCAnMi4wJywgJy1waCcsICc3LjAnLCAnLXRuJywgJzgnLCAnLW1hJywgJzIwMCcsICctaW1hZScsICc8aW5maWxlLm1hZT4nLCAnLW9tYWUnLCAnPG91dGZpbGUubWFlPic=

>  <r_lp_tautomer_probability>  (10) 
0.9999

>  <r_epik_Ionization_Penalty>  (10) 
0.0653366

>  <r_epik_Ionization_Penalty_Charging>  (10) 
0.0653366

>  <r_epik_Ionization_Penalty_Neutral>  (10) 
1.31558e-16

>  <r_epik_State_Penalty>  (10) 
0.0569724

>  <r_epik_Charging_Adjusted_Penalty>  (10) 
0.122309

>  <i_epik_Tot_Q>  (10) 
1

>  <i_epik_Tot_abs_Q>  (10) 
1

>  <s_lp_Force_Field>  (10) 
OPLS3e

>  <r_lp_Energy>  (10) 
37.6225

>  <b_lp_Chiralities_Consistent>  (10) 
1

>  <s_lp_Variant>  (10) 
4:0-1

>  <s_i_glide_gridfile>  (10) 
pfpi4k_grid

>  <i_i_glide_lignum>  (10) 
5

>  <i_i_glide_rotatable_bonds>  (10) 
4

>  <r_i_docking_score>  (10) 
-3.84071

>  <r_i_glide_ligand_efficiency>  (10) 
-0.240044

>  <r_i_glide_ligand_efficiency_sa>  (10) 
-0.604874

>  <r_i_glide_ligand_efficiency_ln>  (10) 
-1.01806

>  <r_i_glide_gscore>  (10) 
-3.84071

>  <r_i_glide_lipo>  (10) 
-0.258076

>  <r_i_glide_hbond>  (10) 
-0.16

>  <r_i_glide_metal>  (10) 
-0

>  <r_i_glide_rewards>  (10) 
-1.94436

>  <r_i_glide_evdw>  (10) 
-22.3759

>  <r_i_glide_ecoul>  (10) 
-6.31688

>  <r_i_glide_erotb>  (10) 
0.657114

>  <r_i_glide_esite>  (10) 
-0.0690636

>  <r_i_glide_emodel>  (10) 
-43.1846

>  <r_i_glide_energy>  (10) 
-28.6928

>  <r_i_glide_einternal>  (10) 
0.338466

>  <r_i_glide_intrahb_reward>  (10) 
-0.5

>  <i_i_glide_confnum>  (10) 
2

>  <i_i_glide_posenum>  (10) 
31

>  <r_i_glide_eff_state_penalty>  (10) 
0

>  <ligand_id>  (10) 
4

>  <original_smiles>  (10) 
CN(C)CCC(=O)c1cc(Br)cn(C)c1=O

>  <smiles>  (10) 
[H]c1c(Br)c([H])n(C([H])([H])[H])c(=O)c1C(=O)C([H])([H])C([H])([H])[N+]([H])(C([H])([H])[H])C([H])([H])[H]

$$$$
4:0:1
     RDKit          3D

 32 32  0  0  1  0  0  0  0  0999 V2000
   -0.9556    1.3626    2.1040 C   0  0  0  0  0  0  0  0  0  0  0  0
   -1.7836    1.9124    3.2061 N   0  0  0  0  0  0  0  0  0  0  0  0
   -2.7260    2.9356    2.7032 C   0  0  0  0  0  0  0  0  0  0  0  0
   -1.0193    2.4135    4.3789 C   0  0  0  0  0  0  0  0  0  0  0  0
   -0.0040    1.3971    4.9420 C   0  0  0  0  0  0  0  0  0  0  0  0
   -0.6277    0.0546    5.4012 C   0  0  0  0  0  0  0  0  0  0  0  0
   -1.6634    0.1346    6.0706 O   0  0  0  0  0  0  0  0  0  0  0  0
    0.0113   -1.2505    5.0459 C   0  0  0  0  0  0  0  0  0  0  0  0
    1.0171   -1.2611    4.1338 C   0  0  0  0  0  0  0  0  0  0  0  0
    1.6420   -2.4875    3.7325 C   0  0  0  0  0  0  0  0  0  0  0  0
    3.0899   -2.4074    2.4018 Br  0  0  0  0  0  0  0  0  0  0  0  0
    1.2478   -3.6522    4.2506 C   0  0  0  0  0  0  0  0  0  0  0  0
    0.2141   -3.6740    5.2057 N   0  0  0  0  0  0  0  0  0  0  0  0
   -0.1510   -5.0103    5.6872 C   0  0  0  0  0  0  0  0  0  0  0  0
   -0.4281   -2.5470    5.6315 C   0  0  0  0  0  0  0  0  0  0  0  0
   -1.3451   -2.6285    6.4617 O   0  0  0  0  0  0  0  0  0  0  0  0
   -0.2598    2.1066    1.7122 H   0  0  0  0  0  0  0  0  0  0  0  0
   -1.5876    1.0160    1.2831 H   0  0  0  0  0  0  0  0  0  0  0  0
   -0.3827    0.4966    2.4206 H   0  0  0  0  0  0  0  0  0  0  0  0
   -2.1844    3.7981    2.3041 H   0  0  0  0  0  0  0  0  0  0  0  0
   -3.3910    3.2796    3.4990 H   0  0  0  0  0  0  0  0  0  0  0  0
   -3.3536    2.5343    1.9039 H   0  0  0  0  0  0  0  0  0  0  0  0
   -0.4590    3.3009    4.0819 H   0  0  0  0  0  0  0  0  0  0  0  0
   -1.7026    2.7302    5.1674 H   0  0  0  0  0  0  0  0  0  0  0  0
    0.7631    1.3045    4.1828 H   0  0  0  0  0  0  0  0  0  0  0  0
    0.5247    1.8287    5.8021 H   0  0  0  0  0  0  0  0  0  0  0  0
    1.4127   -0.3959    3.6302 H   0  0  0  0  0  0  0  0  0  0  0  0
    1.6820   -4.6066    3.9796 H   0  0  0  0  0  0  0  0  0  0  0  0
   -0.9800   -5.0225    6.3996 H   0  0  0  0  0  0  0  0  0  0  0  0
    0.7085   -5.4674    6.1817 H   0  0  0  0  0  0  0  0  0  0  0  0
   -0.4402   -5.6499    4.8493 H   0  0  0  0  0  0  0  0  0  0  0  0
   -2.3755    1.1486    3.5287 H   0  0  0  0  0  0  0  0  0  0  0  0
  1  2  1  0
  1 17  1  0
  1 18  1  0
  1 19  1  0
  2  3  1  0
  2  4  1  0
  2 32  1  0
  3 20  1  0
  3 21  1  0
  3 22  1  0
  4  5  1  0
  4 23  1  0
  4 24  1  0
  5  6  1  0
  5 25  1  0
  5 26  1  0
  6  7  2  0
  6  8  1  0
  8 15  1  0
  8  9  2  0
  9 10  1  0
  9 27  1  0
 10 11  1  0
 10 12  2  0
 12 13  1  0
 12 28  1  0
 13 14  1  0
 13 15  1  0
 14 29  1  0
 14 30  1  0
 14 31  1  0
 15 16  2  0
M  CHG  1   2   1
M  END
>  <i_m_ct_stereo_status>  (11) 
1

>  <s_m_source_file>  (11) 
/var/tmp/pbs.5076255.sched01/tmpcyubysk0/0_f5co88n.sdf

>  <i_m_source_file_index>  (11) 
5

>  <i_lp_mmshare_version>  (11) 
48012

>  <i_f3d_flags>  (11) 
0

>  <s_epik_input>  (11) 
W0NIM11OKFtDSDNdKVtDSDJdW0NIMl1DKD1PKWMxW2NIXWMoQnIpW2NIXW4oW0NIM10pYzE9Tw==

>  <s_epik_cmdline>  (11) 
J2VwaWtfcHl0aG9uJywgJy1waHQnLCAnMi4wJywgJy1waCcsICc3LjAnLCAnLXRuJywgJzgnLCAnLW1hJywgJzIwMCcsICctaW1hZScsICc8aW5maWxlLm1hZT4nLCAnLW9tYWUnLCAnPG91dGZpbGUubWFlPic=

>  <r_lp_tautomer_probability>  (11) 
0.9999

>  <r_epik_Ionization_Penalty>  (11) 
0.0653366

>  <r_epik_Ionization_Penalty_Charging>  (11) 
0.0653366

>  <r_epik_Ionization_Penalty_Neutral>  (11) 
1.31558e-16

>  <r_epik_State_Penalty>  (11) 
0.0569724

>  <r_epik_Charging_Adjusted_Penalty>  (11) 
0.122309

>  <i_epik_Tot_Q>  (11) 
1

>  <i_epik_Tot_abs_Q>  (11) 
1

>  <s_lp_Force_Field>  (11) 
OPLS3e

>  <r_lp_Energy>  (11) 
37.6225

>  <b_lp_Chiralities_Consistent>  (11) 
1

>  <s_lp_Variant>  (11) 
4:0-1

>  <s_i_glide_gridfile>  (11) 
pfpi4k_grid

>  <i_i_glide_lignum>  (11) 
5

>  <i_i_glide_rotatable_bonds>  (11) 
4

>  <r_i_docking_score>  (11) 
-3.05725

>  <r_i_glide_ligand_efficiency>  (11) 
-0.191078

>  <r_i_glide_ligand_efficiency_sa>  (11) 
-0.481487

>  <r_i_glide_ligand_efficiency_ln>  (11) 
-0.810385

>  <r_i_glide_gscore>  (11) 
-3.05725

>  <r_i_glide_lipo>  (11) 
-0.0405371

>  <r_i_glide_hbond>  (11) 
-0.127567

>  <r_i_glide_metal>  (11) 
-0

>  <r_i_glide_rewards>  (11) 
-1.44436

>  <r_i_glide_evdw>  (11) 
-17.0487

>  <r_i_glide_ecoul>  (11) 
-7.9732

>  <r_i_glide_erotb>  (11) 
0.657114

>  <r_i_glide_esite>  (11) 
-0.0534882

>  <r_i_glide_emodel>  (11) 
-32.1028

>  <r_i_glide_energy>  (11) 
-25.0219

>  <r_i_glide_einternal>  (11) 
0.980195

>  <r_i_glide_intrahb_reward>  (11) 
-0

>  <i_i_glide_confnum>  (11) 
2

>  <i_i_glide_posenum>  (11) 
5

>  <r_i_glide_eff_state_penalty>  (11) 
0

>  <ligand_id>  (11) 
4

>  <original_smiles>  (11) 
CN(C)CCC(=O)c1cc(Br)cn(C)c1=O

>  <smiles>  (11) 
[H]c1c(Br)c([H])n(C([H])([H])[H])c(=O)c1C(=O)C([H])([H])C([H])([H])[N+]([H])(C([H])([H])[H])C([H])([H])[H]

$$$$
4:0:2
     RDKit          3D

 32 32  0  0  1  0  0  0  0  0999 V2000
    2.7896  -10.8039    4.9225 C   0  0  0  0  0  0  0  0  0  0  0  0
    1.8439  -10.3210    3.8838 N   0  0  0  0  0  0  0  0  0  0  0  0
    0.6960  -11.2397    3.7393 C   0  0  0  0  0  0  0  0  0  0  0  0
    2.4886  -10.0452    2.5751 C   0  0  0  0  0  0  0  0  0  0  0  0
    3.4098   -8.8108    2.6034 C   0  0  0  0  0  0  0  0  0  0  0  0
    2.8408   -7.5440    1.9334 C   0  0  0  0  0  0  0  0  0  0  0  0
    1.6237   -7.3740    1.9967 O   0  0  0  0  0  0  0  0  0  0  0  0
    3.7733   -6.5652    1.2712 C   0  0  0  0  0  0  0  0  0  0  0  0
    5.1084   -6.7583    1.3889 C   0  0  0  0  0  0  0  0  0  0  0  0
    6.0454   -5.8495    0.7811 C   0  0  0  0  0  0  0  0  0  0  0  0
    7.9759   -6.2245    0.9277 Br  0  0  0  0  0  0  0  0  0  0  0  0
    5.6088   -4.7973    0.0954 C   0  0  0  0  0  0  0  0  0  0  0  0
    4.2328   -4.5533   -0.0332 N   0  0  0  0  0  0  0  0  0  0  0  0
    3.8763   -3.3544   -0.7940 C   0  0  0  0  0  0  0  0  0  0  0  0
    3.2765   -5.3844    0.5137 C   0  0  0  0  0  0  0  0  0  0  0  0
    2.0830   -5.1397    0.3731 O   0  0  0  0  0  0  0  0  0  0  0  0
    3.2799  -11.7272    4.6153 H   0  0  0  0  0  0  0  0  0  0  0  0
    2.2640  -11.0038    5.8539 H   0  0  0  0  0  0  0  0  0  0  0  0
    3.5613  -10.0711    5.1439 H   0  0  0  0  0  0  0  0  0  0  0  0
    1.0166  -12.2178    3.3820 H   0  0  0  0  0  0  0  0  0  0  0  0
   -0.0310  -10.8360    3.0383 H   0  0  0  0  0  0  0  0  0  0  0  0
    0.2075  -11.3743    4.6995 H   0  0  0  0  0  0  0  0  0  0  0  0
    3.0642  -10.9182    2.2653 H   0  0  0  0  0  0  0  0  0  0  0  0
    1.7310   -9.9260    1.8028 H   0  0  0  0  0  0  0  0  0  0  0  0
    3.7027   -8.5388    3.6199 H   0  0  0  0  0  0  0  0  0  0  0  0
    4.3108   -9.1394    2.0938 H   0  0  0  0  0  0  0  0  0  0  0  0
    5.5572   -7.5720    1.9380 H   0  0  0  0  0  0  0  0  0  0  0  0
    6.2721   -4.0922   -0.3985 H   0  0  0  0  0  0  0  0  0  0  0  0
    2.8056   -3.1608   -0.8560 H   0  0  0  0  0  0  0  0  0  0  0  0
    4.2456   -3.4343   -1.8189 H   0  0  0  0  0  0  0  0  0  0  0  0
    4.3306   -2.4700   -0.3410 H   0  0  0  0  0  0  0  0  0  0  0  0
    1.4617   -9.4397    4.2097 H   0  0  0  0  0  0  0  0  0  0  0  0
  1  2  1  0
  1 17  1  0
  1 18  1  0
  1 19  1  0
  2  3  1  0
  2  4  1  0
  2 32  1  0
  3 20  1  0
  3 21  1  0
  3 22  1  0
  4  5  1  0
  4 23  1  0
  4 24  1  0
  5  6  1  0
  5 25  1  0
  5 26  1  0
  6  7  2  0
  6  8  1  0
  8 15  1  0
  8  9  2  0
  9 10  1  0
  9 27  1  0
 10 11  1  0
 10 12  2  0
 12 13  1  0
 12 28  1  0
 13 14  1  0
 13 15  1  0
 14 29  1  0
 14 30  1  0
 14 31  1  0
 15 16  2  0
M  CHG  1   2   1
M  END
>  <i_m_ct_stereo_status>  (12) 
1

>  <s_m_source_file>  (12) 
/var/tmp/pbs.5076255.sched01/tmpcyubysk0/0_f5co88n.sdf

>  <i_m_source_file_index>  (12) 
5

>  <i_lp_mmshare_version>  (12) 
48012

>  <i_f3d_flags>  (12) 
0

>  <s_epik_input>  (12) 
W0NIM11OKFtDSDNdKVtDSDJdW0NIMl1DKD1PKWMxW2NIXWMoQnIpW2NIXW4oW0NIM10pYzE9Tw==

>  <s_epik_cmdline>  (12) 
J2VwaWtfcHl0aG9uJywgJy1waHQnLCAnMi4wJywgJy1waCcsICc3LjAnLCAnLXRuJywgJzgnLCAnLW1hJywgJzIwMCcsICctaW1hZScsICc8aW5maWxlLm1hZT4nLCAnLW9tYWUnLCAnPG91dGZpbGUubWFlPic=

>  <r_lp_tautomer_probability>  (12) 
0.9999

>  <r_epik_Ionization_Penalty>  (12) 
0.0653366

>  <r_epik_Ionization_Penalty_Charging>  (12) 
0.0653366

>  <r_epik_Ionization_Penalty_Neutral>  (12) 
1.31558e-16

>  <r_epik_State_Penalty>  (12) 
0.0569724

>  <r_epik_Charging_Adjusted_Penalty>  (12) 
0.122309

>  <i_epik_Tot_Q>  (12) 
1

>  <i_epik_Tot_abs_Q>  (12) 
1

>  <s_lp_Force_Field>  (12) 
OPLS3e

>  <r_lp_Energy>  (12) 
37.6225

>  <b_lp_Chiralities_Consistent>  (12) 
1

>  <s_lp_Variant>  (12) 
4:0-1

>  <s_i_glide_gridfile>  (12) 
pfpi4k_grid

>  <i_i_glide_lignum>  (12) 
5

>  <i_i_glide_rotatable_bonds>  (12) 
4

>  <r_i_docking_score>  (12) 
-2.98238

>  <r_i_glide_ligand_efficiency>  (12) 
-0.186399

>  <r_i_glide_ligand_efficiency_sa>  (12) 
-0.469696

>  <r_i_glide_ligand_efficiency_ln>  (12) 
-0.79054

>  <r_i_glide_gscore>  (12) 
-2.98238

>  <r_i_glide_lipo>  (12) 
-0.416578

>  <r_i_glide_hbond>  (12) 
-0.0393076

>  <r_i_glide_metal>  (12) 
-0

>  <r_i_glide_rewards>  (12) 
-1.44436

>  <r_i_glide_evdw>  (12) 
-19.5152

>  <r_i_glide_ecoul>  (12) 
-5.02739

>  <r_i_glide_erotb>  (12) 
0.657114

>  <r_i_glide_esite>  (12) 
-0.00938385

>  <r_i_glide_emodel>  (12) 
-30.5379

>  <r_i_glide_energy>  (12) 
-24.5426

>  <r_i_glide_einternal>  (12) 
2.56111

>  <r_i_glide_intrahb_reward>  (12) 
-0

>  <i_i_glide_confnum>  (12) 
2

>  <i_i_glide_posenum>  (12) 
10

>  <r_i_glide_eff_state_penalty>  (12) 
0

>  <ligand_id>  (12) 
4

>  <original_smiles>  (12) 
CN(C)CCC(=O)c1cc(Br)cn(C)c1=O

>  <smiles>  (12) 
[H]c1c(Br)c([H])n(C([H])([H])[H])c(=O)c1C(=O)C([H])([H])C([H])([H])[N+]([H])(C([H])([H])[H])C([H])([H])[H]

$$$$
4:1:0
     RDKit          3D

 31 31  0  0  1  0  0  0  0  0999 V2000
    7.3687   -3.0105   -0.8504 C   0  0  0  0  0  0  0  0  0  0  0  0
    6.0813   -2.5622   -1.3739 N   0  0  0  0  0  0  0  0  0  0  0  0
    5.8300   -3.1265   -2.6991 C   0  0  0  0  0  0  0  0  0  0  0  0
    4.9777   -2.8630   -0.4505 C   0  0  0  0  0  0  0  0  0  0  0  0
    4.8472   -4.3823   -0.1552 C   0  0  0  0  0  0  0  0  0  0  0  0
    3.5342   -4.8372    0.4750 C   0  0  0  0  0  0  0  0  0  0  0  0
    2.6109   -4.0296    0.5188 O   0  0  0  0  0  0  0  0  0  0  0  0
    3.4274   -6.2497    0.9351 C   0  0  0  0  0  0  0  0  0  0  0  0
    4.5403   -7.0323    0.8843 C   0  0  0  0  0  0  0  0  0  0  0  0
    4.5129   -8.3948    1.3257 C   0  0  0  0  0  0  0  0  0  0  0  0
    6.1822   -9.4601    1.2828 Br  0  0  0  0  0  0  0  0  0  0  0  0
    3.3763   -8.9175    1.7911 C   0  0  0  0  0  0  0  0  0  0  0  0
    2.1980   -8.1375    1.8354 N   0  0  0  0  0  0  0  0  0  0  0  0
    1.0194   -8.8345    2.3577 C   0  0  0  0  0  0  0  0  0  0  0  0
    2.1573   -6.8423    1.4209 C   0  0  0  0  0  0  0  0  0  0  0  0
    1.0874   -6.2126    1.4355 O   0  0  0  0  0  0  0  0  0  0  0  0
    7.5790   -2.5455    0.1165 H   0  0  0  0  0  0  0  0  0  0  0  0
    8.1745   -2.7523   -1.5381 H   0  0  0  0  0  0  0  0  0  0  0  0
    7.3938   -4.0909   -0.7137 H   0  0  0  0  0  0  0  0  0  0  0  0
    4.8777   -2.7602   -3.0903 H   0  0  0  0  0  0  0  0  0  0  0  0
    5.8038   -4.2158   -2.7001 H   0  0  0  0  0  0  0  0  0  0  0  0
    6.6116   -2.8307   -3.3886 H   0  0  0  0  0  0  0  0  0  0  0  0
    5.1611   -2.3430    0.4948 H   0  0  0  0  0  0  0  0  0  0  0  0
    4.0523   -2.4361   -0.8516 H   0  0  0  0  0  0  0  0  0  0  0  0
    4.9089   -4.9785   -1.0653 H   0  0  0  0  0  0  0  0  0  0  0  0
    5.6787   -4.6531    0.4956 H   0  0  0  0  0  0  0  0  0  0  0  0
    5.4969   -6.6942    0.5232 H   0  0  0  0  0  0  0  0  0  0  0  0
    3.2924   -9.9372    2.1451 H   0  0  0  0  0  0  0  0  0  0  0  0
    0.1115   -8.2245    2.3670 H   0  0  0  0  0  0  0  0  0  0  0  0
    1.2067   -9.1698    3.3808 H   0  0  0  0  0  0  0  0  0  0  0  0
    0.8195   -9.7164    1.7459 H   0  0  0  0  0  0  0  0  0  0  0  0
  1  2  1  0
  1 17  1  0
  1 18  1  0
  1 19  1  0
  2  3  1  0
  2  4  1  0
  3 20  1  0
  3 21  1  0
  3 22  1  0
  4  5  1  0
  4 23  1  0
  4 24  1  0
  5  6  1  0
  5 25  1  0
  5 26  1  0
  6  7  2  0
  6  8  1  0
  8 15  1  0
  8  9  2  0
  9 10  1  0
  9 27  1  0
 10 11  1  0
 10 12  2  0
 12 13  1  0
 12 28  1  0
 13 14  1  0
 13 15  1  0
 14 29  1  0
 14 30  1  0
 14 31  1  0
 15 16  2  0
M  END
>  <i_m_ct_stereo_status>  (13) 
1

>  <s_m_source_file>  (13) 
/var/tmp/pbs.5076255.sched01/tmpcyubysk0/0_f5co88n.sdf

>  <i_m_source_file_index>  (13) 
6

>  <i_lp_mmshare_version>  (13) 
48012

>  <i_f3d_flags>  (13) 
0

>  <s_epik_input>  (13) 
W0NIM11OKFtDSDNdKVtDSDJdW0NIMl1DKD1PKWMxW2NIXWMoQnIpW2NIXW4oW0NIM10pYzE9Tw==

>  <s_epik_cmdline>  (13) 
J2VwaWtfcHl0aG9uJywgJy1waHQnLCAnMi4wJywgJy1waCcsICc3LjAnLCAnLXRuJywgJzgnLCAnLW1hJywgJzIwMCcsICctaW1hZScsICc8aW5maWxlLm1hZT4nLCAnLW9tYWUnLCAnPG91dGZpbGUubWFlPic=

>  <r_lp_tautomer_probability>  (13) 
0.9999

>  <r_epik_Ionization_Penalty>  (13) 
1.33867

>  <r_epik_Ionization_Penalty_Charging>  (13) 
1.31297e-09

>  <r_epik_Ionization_Penalty_Neutral>  (13) 
1.33867

>  <r_epik_State_Penalty>  (13) 
1.41572

>  <r_epik_Charging_Adjusted_Penalty>  (13) 
1.41572

>  <i_epik_Tot_Q>  (13) 
0

>  <i_epik_Tot_abs_Q>  (13) 
0

>  <s_lp_Force_Field>  (13) 
OPLS3e

>  <r_lp_Energy>  (13) 
33.8309

>  <b_lp_Chiralities_Consistent>  (13) 
1

>  <s_lp_Variant>  (13) 
4:0-2

>  <s_i_glide_gridfile>  (13) 
pfpi4k_grid

>  <i_i_glide_lignum>  (13) 
6

>  <i_i_glide_rotatable_bonds>  (13) 
4

>  <r_i_docking_score>  (13) 
-3.12627

>  <r_i_glide_ligand_efficiency>  (13) 
-0.195392

>  <r_i_glide_ligand_efficiency_sa>  (13) 
-0.492357

>  <r_i_glide_ligand_efficiency_ln>  (13) 
-0.828681

>  <r_i_glide_gscore>  (13) 
-3.12627

>  <r_i_glide_lipo>  (13) 
-0.477903

>  <r_i_glide_hbond>  (13) 
-0.143758

>  <r_i_glide_metal>  (13) 
-0

>  <r_i_glide_rewards>  (13) 
-1.45123

>  <r_i_glide_evdw>  (13) 
-22.9242

>  <r_i_glide_ecoul>  (13) 
-3.6267

>  <r_i_glide_erotb>  (13) 
0.661137

>  <r_i_glide_esite>  (13) 
-0.0243027

>  <r_i_glide_emodel>  (13) 
-28.5471

>  <r_i_glide_energy>  (13) 
-26.5509

>  <r_i_glide_einternal>  (13) 
7.23275

>  <r_i_glide_intrahb_reward>  (13) 
-0

>  <i_i_glide_confnum>  (13) 
1

>  <i_i_glide_posenum>  (13) 
1

>  <r_i_glide_eff_state_penalty>  (13) 
0

>  <ligand_id>  (13) 
4

>  <original_smiles>  (13) 
CN(C)CCC(=O)c1cc(Br)cn(C)c1=O

>  <smiles>  (13) 
[H]c1c(Br)c([H])n(C([H])([H])[H])c(=O)c1C(=O)C([H])([H])C([H])([H])N(C([H])([H])[H])C([H])([H])[H]

$$$$
4:1:1
     RDKit          3D

 31 31  0  0  1  0  0  0  0  0999 V2000
   -1.9437    2.7020   10.1951 C   0  0  0  0  0  0  0  0  0  0  0  0
   -2.3395    2.5523    8.8026 N   0  0  0  0  0  0  0  0  0  0  0  0
   -3.6719    3.0957    8.5814 C   0  0  0  0  0  0  0  0  0  0  0  0
   -1.3696    3.1752    7.9048 C   0  0  0  0  0  0  0  0  0  0  0  0
   -1.5827    2.7859    6.4227 C   0  0  0  0  0  0  0  0  0  0  0  0
   -1.5511    1.2455    6.1627 C   0  0  0  0  0  0  0  0  0  0  0  0
   -2.3793    0.5461    6.7538 O   0  0  0  0  0  0  0  0  0  0  0  0
   -0.5827    0.6248    5.2268 C   0  0  0  0  0  0  0  0  0  0  0  0
    0.1803    1.4337    4.4527 C   0  0  0  0  0  0  0  0  0  0  0  0
    1.1173    0.8820    3.5220 C   0  0  0  0  0  0  0  0  0  0  0  0
    2.2047    2.1244    2.4827 Br  0  0  0  0  0  0  0  0  0  0  0  0
    1.2491   -0.4431    3.3894 C   0  0  0  0  0  0  0  0  0  0  0  0
    0.4625   -1.3089    4.1646 N   0  0  0  0  0  0  0  0  0  0  0  0
    0.7000   -2.7339    3.9268 C   0  0  0  0  0  0  0  0  0  0  0  0
   -0.4569   -0.8552    5.0726 C   0  0  0  0  0  0  0  0  0  0  0  0
   -1.1507   -1.6541    5.7266 O   0  0  0  0  0  0  0  0  0  0  0  0
   -0.9590    2.2569   10.3590 H   0  0  0  0  0  0  0  0  0  0  0  0
   -2.6527    2.1631   10.8295 H   0  0  0  0  0  0  0  0  0  0  0  0
   -1.9108    3.7496   10.5108 H   0  0  0  0  0  0  0  0  0  0  0  0
   -3.9887    2.9413    7.5489 H   0  0  0  0  0  0  0  0  0  0  0  0
   -3.7217    4.1678    8.7937 H   0  0  0  0  0  0  0  0  0  0  0  0
   -4.3931    2.5675    9.2060 H   0  0  0  0  0  0  0  0  0  0  0  0
   -1.4104    4.2612    7.9899 H   0  0  0  0  0  0  0  0  0  0  0  0
   -0.3568    2.8851    8.1899 H   0  0  0  0  0  0  0  0  0  0  0  0
   -2.5585    3.1307    6.0654 H   0  0  0  0  0  0  0  0  0  0  0  0
   -0.8440    3.3617    5.8685 H   0  0  0  0  0  0  0  0  0  0  0  0
    0.1317    2.5108    4.4654 H   0  0  0  0  0  0  0  0  0  0  0  0
    1.9474   -0.9024    2.7012 H   0  0  0  0  0  0  0  0  0  0  0  0
    0.0751   -3.4041    4.5236 H   0  0  0  0  0  0  0  0  0  0  0  0
    1.7472   -2.9602    4.1418 H   0  0  0  0  0  0  0  0  0  0  0  0
    0.5241   -2.9448    2.8758 H   0  0  0  0  0  0  0  0  0  0  0  0
  1  2  1  0
  1 17  1  0
  1 18  1  0
  1 19  1  0
  2  3  1  0
  2  4  1  0
  3 20  1  0
  3 21  1  0
  3 22  1  0
  4  5  1  0
  4 23  1  0
  4 24  1  0
  5  6  1  0
  5 25  1  0
  5 26  1  0
  6  7  2  0
  6  8  1  0
  8 15  1  0
  8  9  2  0
  9 10  1  0
  9 27  1  0
 10 11  1  0
 10 12  2  0
 12 13  1  0
 12 28  1  0
 13 14  1  0
 13 15  1  0
 14 29  1  0
 14 30  1  0
 14 31  1  0
 15 16  2  0
M  END
>  <i_m_ct_stereo_status>  (14) 
1

>  <s_m_source_file>  (14) 
/var/tmp/pbs.5076255.sched01/tmpcyubysk0/0_f5co88n.sdf

>  <i_m_source_file_index>  (14) 
6

>  <i_lp_mmshare_version>  (14) 
48012

>  <i_f3d_flags>  (14) 
0

>  <s_epik_input>  (14) 
W0NIM11OKFtDSDNdKVtDSDJdW0NIMl1DKD1PKWMxW2NIXWMoQnIpW2NIXW4oW0NIM10pYzE9Tw==

>  <s_epik_cmdline>  (14) 
J2VwaWtfcHl0aG9uJywgJy1waHQnLCAnMi4wJywgJy1waCcsICc3LjAnLCAnLXRuJywgJzgnLCAnLW1hJywgJzIwMCcsICctaW1hZScsICc8aW5maWxlLm1hZT4nLCAnLW9tYWUnLCAnPG91dGZpbGUubWFlPic=

>  <r_lp_tautomer_probability>  (14) 
0.9999

>  <r_epik_Ionization_Penalty>  (14) 
1.33867

>  <r_epik_Ionization_Penalty_Charging>  (14) 
1.31297e-09

>  <r_epik_Ionization_Penalty_Neutral>  (14) 
1.33867

>  <r_epik_State_Penalty>  (14) 
1.41572

>  <r_epik_Charging_Adjusted_Penalty>  (14) 
1.41572

>  <i_epik_Tot_Q>  (14) 
0

>  <i_epik_Tot_abs_Q>  (14) 
0

>  <s_lp_Force_Field>  (14) 
OPLS3e

>  <r_lp_Energy>  (14) 
33.8309

>  <b_lp_Chiralities_Consistent>  (14) 
1

>  <s_lp_Variant>  (14) 
4:0-2

>  <s_i_glide_gridfile>  (14) 
pfpi4k_grid

>  <i_i_glide_lignum>  (14) 
6

>  <i_i_glide_rotatable_bonds>  (14) 
4

>  <r_i_docking_score>  (14) 
-3.11222

>  <r_i_glide_ligand_efficiency>  (14) 
-0.194514

>  <r_i_glide_ligand_efficiency_sa>  (14) 
-0.490144

>  <r_i_glide_ligand_efficiency_ln>  (14) 
-0.824956

>  <r_i_glide_gscore>  (14) 
-3.11222

>  <r_i_glide_lipo>  (14) 
-0.0853984

>  <r_i_glide_hbond>  (14) 
-0.16

>  <r_i_glide_metal>  (14) 
-0

>  <r_i_glide_rewards>  (14) 
-1.45123

>  <r_i_glide_evdw>  (14) 
-16.8403

>  <r_i_glide_ecoul>  (14) 
-7.91951

>  <r_i_glide_erotb>  (14) 
0.661137

>  <r_i_glide_esite>  (14) 
-0.0467909

>  <r_i_glide_emodel>  (14) 
-29.8172

>  <r_i_glide_energy>  (14) 
-24.7598

>  <r_i_glide_einternal>  (14) 
1.21182

>  <r_i_glide_intrahb_reward>  (14) 
-0

>  <i_i_glide_confnum>  (14) 
3

>  <i_i_glide_posenum>  (14) 
29

>  <r_i_glide_eff_state_penalty>  (14) 
0

>  <ligand_id>  (14) 
4

>  <original_smiles>  (14) 
CN(C)CCC(=O)c1cc(Br)cn(C)c1=O

>  <smiles>  (14) 
[H]c1c(Br)c([H])n(C([H])([H])[H])c(=O)c1C(=O)C([H])([H])C([H])([H])N(C([H])([H])[H])C([H])([H])[H]

$$$$
4:1:2
     RDKit          3D

 31 31  0  0  1  0  0  0  0  0999 V2000
   -2.1947    3.1458   10.3446 C   0  0  0  0  0  0  0  0  0  0  0  0
   -2.5673    2.8884    8.9650 N   0  0  0  0  0  0  0  0  0  0  0  0
   -3.9809    3.1788    8.7648 C   0  0  0  0  0  0  0  0  0  0  0  0
   -1.7278    3.6389    8.0353 C   0  0  0  0  0  0  0  0  0  0  0  0
   -1.9941    3.2681    6.5526 C   0  0  0  0  0  0  0  0  0  0  0  0
   -1.7500    1.7681    6.2531 C   0  0  0  0  0  0  0  0  0  0  0  0
   -2.4683    0.9672    6.8570 O   0  0  0  0  0  0  0  0  0  0  0  0
   -0.7176    1.3244    5.2788 C   0  0  0  0  0  0  0  0  0  0  0  0
    0.0937    2.2599    4.7317 C   0  0  0  0  0  0  0  0  0  0  0  0
    1.0995    1.8916    3.7764 C   0  0  0  0  0  0  0  0  0  0  0  0
    2.2414    3.3113    3.0442 Br  0  0  0  0  0  0  0  0  0  0  0  0
    1.2661    0.6175    3.4258 C   0  0  0  0  0  0  0  0  0  0  0  0
    0.4473   -0.3799    3.9898 N   0  0  0  0  0  0  0  0  0  0  0  0
    0.7438   -1.7398    3.5370 C   0  0  0  0  0  0  0  0  0  0  0  0
   -0.5407   -0.1026    4.8959 C   0  0  0  0  0  0  0  0  0  0  0  0
   -1.2395   -1.0151    5.3627 O   0  0  0  0  0  0  0  0  0  0  0  0
   -1.1512    2.8819   10.5271 H   0  0  0  0  0  0  0  0  0  0  0  0
   -2.8094    2.5170   10.9881 H   0  0  0  0  0  0  0  0  0  0  0  0
   -2.3487    4.1896   10.6265 H   0  0  0  0  0  0  0  0  0  0  0  0
   -4.2999    2.9166    7.7565 H   0  0  0  0  0  0  0  0  0  0  0  0
   -4.2034    4.2363    8.9210 H   0  0  0  0  0  0  0  0  0  0  0  0
   -4.5904    2.5694    9.4317 H   0  0  0  0  0  0  0  0  0  0  0  0
   -1.8817    4.7098    8.1739 H   0  0  0  0  0  0  0  0  0  0  0  0
   -0.6754    3.4517    8.2650 H   0  0  0  0  0  0  0  0  0  0  0  0
   -3.0333    3.4790    6.2871 H   0  0  0  0  0  0  0  0  0  0  0  0
   -1.4313    3.9629    5.9329 H   0  0  0  0  0  0  0  0  0  0  0  0
    0.0591    3.3127    4.9647 H   0  0  0  0  0  0  0  0  0  0  0  0
    2.0216    0.2868    2.7183 H   0  0  0  0  0  0  0  0  0  0  0  0
    0.1052   -2.5137    3.9753 H   0  0  0  0  0  0  0  0  0  0  0  0
    1.7842   -1.9859    3.7762 H   0  0  0  0  0  0  0  0  0  0  0  0
    0.6264   -1.7838    2.4498 H   0  0  0  0  0  0  0  0  0  0  0  0
  1  2  1  0
  1 17  1  0
  1 18  1  0
  1 19  1  0
  2  3  1  0
  2  4  1  0
  3 20  1  0
  3 21  1  0
  3 22  1  0
  4  5  1  0
  4 23  1  0
  4 24  1  0
  5  6  1  0
  5 25  1  0
  5 26  1  0
  6  7  2  0
  6  8  1  0
  8 15  1  0
  8  9  2  0
  9 10  1  0
  9 27  1  0
 10 11  1  0
 10 12  2  0
 12 13  1  0
 12 28  1  0
 13 14  1  0
 13 15  1  0
 14 29  1  0
 14 30  1  0
 14 31  1  0
 15 16  2  0
M  END
>  <i_m_ct_stereo_status>  (15) 
1

>  <s_m_source_file>  (15) 
/var/tmp/pbs.5076255.sched01/tmpcyubysk0/0_f5co88n.sdf

>  <i_m_source_file_index>  (15) 
6

>  <i_lp_mmshare_version>  (15) 
48012

>  <i_f3d_flags>  (15) 
0

>  <s_epik_input>  (15) 
W0NIM11OKFtDSDNdKVtDSDJdW0NIMl1DKD1PKWMxW2NIXWMoQnIpW2NIXW4oW0NIM10pYzE9Tw==

>  <s_epik_cmdline>  (15) 
J2VwaWtfcHl0aG9uJywgJy1waHQnLCAnMi4wJywgJy1waCcsICc3LjAnLCAnLXRuJywgJzgnLCAnLW1hJywgJzIwMCcsICctaW1hZScsICc8aW5maWxlLm1hZT4nLCAnLW9tYWUnLCAnPG91dGZpbGUubWFlPic=

>  <r_lp_tautomer_probability>  (15) 
0.9999

>  <r_epik_Ionization_Penalty>  (15) 
1.33867

>  <r_epik_Ionization_Penalty_Charging>  (15) 
1.31297e-09

>  <r_epik_Ionization_Penalty_Neutral>  (15) 
1.33867

>  <r_epik_State_Penalty>  (15) 
1.41572

>  <r_epik_Charging_Adjusted_Penalty>  (15) 
1.41572

>  <i_epik_Tot_Q>  (15) 
0

>  <i_epik_Tot_abs_Q>  (15) 
0

>  <s_lp_Force_Field>  (15) 
OPLS3e

>  <r_lp_Energy>  (15) 
33.8309

>  <b_lp_Chiralities_Consistent>  (15) 
1

>  <s_lp_Variant>  (15) 
4:0-2

>  <s_i_glide_gridfile>  (15) 
pfpi4k_grid

>  <i_i_glide_lignum>  (15) 
6

>  <i_i_glide_rotatable_bonds>  (15) 
4

>  <r_i_docking_score>  (15) 
-2.90939

>  <r_i_glide_ligand_efficiency>  (15) 
-0.181837

>  <r_i_glide_ligand_efficiency_sa>  (15) 
-0.458201

>  <r_i_glide_ligand_efficiency_ln>  (15) 
-0.771192

>  <r_i_glide_gscore>  (15) 
-2.90939

>  <r_i_glide_lipo>  (15) 
-0.084135

>  <r_i_glide_hbond>  (15) 
-0.16

>  <r_i_glide_metal>  (15) 
-0

>  <r_i_glide_rewards>  (15) 
-1.45123

>  <r_i_glide_evdw>  (15) 
-19.9243

>  <r_i_glide_ecoul>  (15) 
-5.65267

>  <r_i_glide_erotb>  (15) 
0.661137

>  <r_i_glide_esite>  (15) 
-0.0310505

>  <r_i_glide_emodel>  (15) 
-30.3698

>  <r_i_glide_energy>  (15) 
-25.5769

>  <r_i_glide_einternal>  (15) 
1.02399

>  <r_i_glide_intrahb_reward>  (15) 
-0

>  <i_i_glide_confnum>  (15) 
3

>  <i_i_glide_posenum>  (15) 
11

>  <r_i_glide_eff_state_penalty>  (15) 
0

>  <ligand_id>  (15) 
4

>  <original_smiles>  (15) 
CN(C)CCC(=O)c1cc(Br)cn(C)c1=O

>  <smiles>  (15) 
[H]c1c(Br)c([H])n(C([H])([H])[H])c(=O)c1C(=O)C([H])([H])C([H])([H])N(C([H])([H])[H])C([H])([H])[H]

$$$$
5:0:0
     RDKit          3D

 58 63  0  0  1  0  0  0  0  0999 V2000
   -0.3575   -3.8510    6.6517 C   0  0  0  0  0  0  0  0  0  0  0  0
   -0.1886   -4.5402    5.4285 O   0  0  0  0  0  0  0  0  0  0  0  0
    1.0817   -4.9511    5.0831 C   0  0  0  0  0  0  0  0  0  0  0  0
    2.2741   -4.7490    5.8514 C   0  0  0  0  0  0  0  0  0  0  0  0
    3.5219   -5.3607    5.5055 C   0  0  0  0  0  0  0  0  0  0  0  0
    3.5133   -6.0412    4.2716 C   0  0  0  0  0  0  0  0  0  0  0  0
    2.4336   -6.0001    3.4098 C   0  0  0  0  0  0  0  0  0  0  0  0
    1.2120   -5.6643    3.8828 C   0  0  0  0  0  0  0  0  0  0  0  0
    0.2914   -6.3048    3.1021 O   0  0  0  0  0  0  0  0  0  0  0  0
    1.0340   -7.3733    2.4171 C   0  0  1  0  0  0  0  0  0  0  0  0
    2.4047   -6.7283    2.1096 C   0  0  1  0  0  0  0  0  0  0  0  0
    2.5763   -5.5813    1.0950 C   0  0  0  0  0  0  0  0  0  0  0  0
    3.9329   -4.8546    1.3849 C   0  0  0  0  0  0  0  0  0  0  0  0
    5.0981   -5.7569    1.7192 N   0  0  2  0  0  0  0  0  0  0  0  0
    5.9805   -5.8886    0.5345 C   0  0  0  0  0  0  0  0  0  0  0  0
    4.7767   -7.0976    2.3471 C   0  0  2  0  0  0  0  0  0  0  0  0
    3.5502   -7.6681    1.6945 C   0  0  0  0  0  0  0  0  0  0  0  0
    4.4960   -7.1160    3.8907 C   0  0  2  0  0  0  0  0  0  0  0  0
    3.8667   -8.5038    4.3651 C   0  0  0  0  0  0  0  0  0  0  0  0
    2.2796   -8.7204    4.5691 C   0  0  2  0  0  0  0  0  0  0  0  0
    2.0886  -10.0225    5.4301 C   0  0  1  0  0  0  0  0  0  0  0  0
    1.1504   -9.8542    6.4804 O   0  0  0  0  0  0  0  0  0  0  0  0
    1.7302  -11.2576    4.6302 C   0  0  0  0  0  0  0  0  0  0  0  0
    1.3459  -11.2431    3.3479 C   0  0  0  0  0  0  0  0  0  0  0  0
    1.1749   -9.9843    2.5305 C   0  0  0  0  0  0  0  0  0  0  0  0
    1.1746   -8.6648    3.3719 C   0  0  2  0  0  0  0  0  0  0  0  0
   -0.0336   -8.6367    4.1530 O   0  0  0  0  0  0  0  0  0  0  0  0
   -1.3118   -8.8199    3.5470 C   0  0  0  0  0  0  0  0  0  0  0  0
   -1.4165   -3.6136    6.7607 H   0  0  0  0  0  0  0  0  0  0  0  0
    0.1996   -2.9129    6.6657 H   0  0  0  0  0  0  0  0  0  0  0  0
   -0.0661   -4.4782    7.4956 H   0  0  0  0  0  0  0  0  0  0  0  0
    2.2335   -4.1967    6.7756 H   0  0  0  0  0  0  0  0  0  0  0  0
    4.3757   -5.3605    6.1726 H   0  0  0  0  0  0  0  0  0  0  0  0
    0.5172   -7.6354    1.4927 H   0  0  0  0  0  0  0  0  0  0  0  0
    2.5414   -5.9355    0.0604 H   0  0  0  0  0  0  0  0  0  0  0  0
    1.7773   -4.8495    1.1945 H   0  0  0  0  0  0  0  0  0  0  0  0
    4.1706   -4.1922    0.5519 H   0  0  0  0  0  0  0  0  0  0  0  0
    3.8064   -4.1714    2.2244 H   0  0  0  0  0  0  0  0  0  0  0  0
    5.4310   -6.3715   -0.2771 H   0  0  0  0  0  0  0  0  0  0  0  0
    6.8778   -6.4667    0.7653 H   0  0  0  0  0  0  0  0  0  0  0  0
    6.3078   -4.9090    0.1757 H   0  0  0  0  0  0  0  0  0  0  0  0
    5.6098   -7.7732    2.1621 H   0  0  0  0  0  0  0  0  0  0  0  0
    3.4458   -8.6948    1.9926 H   0  0  0  0  0  0  0  0  0  0  0  0
    3.6740   -7.7433    0.6128 H   0  0  0  0  0  0  0  0  0  0  0  0
    5.4381   -6.9449    4.4101 H   0  0  0  0  0  0  0  0  0  0  0  0
    4.3248   -9.3460    3.8406 H   0  0  0  0  0  0  0  0  0  0  0  0
    4.2860   -8.6176    5.3645 H   0  0  0  0  0  0  0  0  0  0  0  0
    2.0065   -7.9246    5.2617 H   0  0  0  0  0  0  0  0  0  0  0  0
    3.0128  -10.2805    5.9493 H   0  0  0  0  0  0  0  0  0  0  0  0
    1.0551  -10.7126    6.9001 H   0  0  0  0  0  0  0  0  0  0  0  0
    1.8121  -12.2041    5.1471 H   0  0  0  0  0  0  0  0  0  0  0  0
    1.1370  -12.1773    2.8486 H   0  0  0  0  0  0  0  0  0  0  0  0
    1.9358  -10.0129    1.7580 H   0  0  0  0  0  0  0  0  0  0  0  0
    0.2475  -10.0881    1.9760 H   0  0  0  0  0  0  0  0  0  0  0  0
   -2.0766   -8.5662    4.2782 H   0  0  0  0  0  0  0  0  0  0  0  0
   -1.4877   -9.8572    3.2664 H   0  0  0  0  0  0  0  0  0  0  0  0
   -1.4745   -8.1884    2.6758 H   0  0  0  0  0  0  0  0  0  0  0  0
    5.6537   -5.2564    2.3975 H   0  0  0  0  0  0  0  0  0  0  0  0
  1  2  1  0
  1 29  1  0
  1 30  1  0
  1 31  1  0
  2  3  1  0
  3  8  2  0
  3  4  1  0
  4  5  2  0
  4 32  1  0
  5  6  1  0
  5 33  1  0
  6 18  1  0
  6  7  2  0
  7 11  1  0
  7  8  1  0
  8  9  1  0
  9 10  1  0
 10 26  1  0
 10 11  1  0
 10 34  1  6
 11 17  1  0
 11 12  1  6
 12 13  1  0
 12 35  1  0
 12 36  1  0
 13 14  1  0
 13 37  1  0
 13 38  1  0
 14 15  1  0
 14 16  1  0
 14 58  1  1
 15 39  1  0
 15 40  1  0
 15 41  1  0
 16 17  1  0
 16 18  1  0
 16 42  1  1
 17 43  1  0
 17 44  1  0
 18 19  1  0
 18 45  1  1
 19 20  1  0
 19 46  1  0
 19 47  1  0
 20 26  1  0
 20 21  1  0
 20 48  1  1
 21 22  1  0
 21 23  1  0
 21 49  1  1
 22 50  1  0
 23 24  2  0
 23 51  1  0
 24 25  1  0
 24 52  1  0
 25 26  1  0
 25 53  1  0
 25 54  1  0
 26 27  1  1
 27 28  1  0
 28 55  1  0
 28 56  1  0
 28 57  1  0
M  CHG  1  14   1
M  END
>  <i_m_ct_stereo_status>  (16) 
1

>  <s_m_source_file>  (16) 
/var/tmp/pbs.5076255.sched01/tmpcyubysk0/0_f5co88n.sdf

>  <i_m_source_file_index>  (16) 
7

>  <i_lp_mmshare_version>  (16) 
48012

>  <i_f3d_flags>  (16) 
0

>  <s_epik_input>  (16) 
W0NIM11PYyhbY0hdW2NIXTEpYzJPW0NAQEhdM1tDQEBdKE9bQ0gzXSkoW0NIMl1bQ0hdPVtDSF1bQ0BASF00W09IXSlbQ0BASF00W0NIMl1bQ0BIXShjMWMyW0NAQF0zNTYpW0NAQEhdKFtDSDJdNilOKFtDSDNdKVtDSDJdW0NIMl01

>  <s_epik_cmdline>  (16) 
J2VwaWtfcHl0aG9uJywgJy1waHQnLCAnMi4wJywgJy1waCcsICc3LjAnLCAnLXRuJywgJzgnLCAnLW1hJywgJzIwMCcsICctaW1hZScsICc8aW5maWxlLm1hZT4nLCAnLW9tYWUnLCAnPG91dGZpbGUubWFlPic=

>  <r_lp_tautomer_probability>  (16) 
1

>  <r_epik_Ionization_Penalty>  (16) 
0.0196483

>  <r_epik_Ionization_Penalty_Charging>  (16) 
0.0196482

>  <r_epik_Ionization_Penalty_Neutral>  (16) 
6.96074e-08

>  <r_epik_State_Penalty>  (16) 
0.0157045

>  <r_epik_Charging_Adjusted_Penalty>  (16) 
0.0353528

>  <i_epik_Tot_Q>  (16) 
1

>  <i_epik_Tot_abs_Q>  (16) 
1

>  <s_lp_Force_Field>  (16) 
OPLS3e

>  <r_lp_Energy>  (16) 
130.928

>  <b_lp_Chiralities_Consistent>  (16) 
1

>  <s_lp_Variant>  (16) 
5:0-1

>  <s_i_glide_gridfile>  (16) 
pfpi4k_grid

>  <i_i_glide_lignum>  (16) 
7

>  <i_i_glide_rotatable_bonds>  (16) 
3

>  <r_i_docking_score>  (16) 
-3.20967

>  <r_i_glide_ligand_efficiency>  (16) 
-0.114631

>  <r_i_glide_ligand_efficiency_sa>  (16) 
-0.348087

>  <r_i_glide_ligand_efficiency_ln>  (16) 
-0.740886

>  <r_i_glide_gscore>  (16) 
-3.20967

>  <r_i_glide_lipo>  (16) 
-0.486655

>  <r_i_glide_hbond>  (16) 
-0.0741587

>  <r_i_glide_metal>  (16) 
-0

>  <r_i_glide_rewards>  (16) 
-0.787578

>  <r_i_glide_evdw>  (16) 
-20.3468

>  <r_i_glide_ecoul>  (16) 
-5.62626

>  <r_i_glide_erotb>  (16) 
0

>  <r_i_glide_esite>  (16) 
0

>  <r_i_glide_emodel>  (16) 
-31.8286

>  <r_i_glide_energy>  (16) 
-25.973

>  <r_i_glide_einternal>  (16) 
0.436468

>  <r_i_glide_intrahb_reward>  (16) 
-0

>  <i_i_glide_confnum>  (16) 
2

>  <i_i_glide_posenum>  (16) 
26

>  <r_i_glide_eff_state_penalty>  (16) 
0

>  <ligand_id>  (16) 
5

>  <original_smiles>  (16) 
COc1ccc2c3c1OC1C34CCN(C)C(C4)C2CC2C(O)C=CCC21OC

>  <smiles>  (16) 
[H]OC1([H])C([H])=C([H])C([H])([H])C2(OC([H])([H])[H])C3([H])Oc4c(OC([H])([H])[H])c([H])c([H])c5c4C34C([H])([H])C([H])([H])[N+]([H])(C([H])([H])[H])C([H])(C4([H])[H])C5([H])C([H])([H])C12[H]

$$$$
5:0:1
     RDKit          3D

 58 63  0  0  1  0  0  0  0  0999 V2000
    4.4994   -5.9023    5.8919 C   0  0  0  0  0  0  0  0  0  0  0  0
    3.8865   -5.3780    4.7305 O   0  0  0  0  0  0  0  0  0  0  0  0
    4.0389   -4.0379    4.4628 C   0  0  0  0  0  0  0  0  0  0  0  0
    4.7868   -3.0974    5.2441 C   0  0  0  0  0  0  0  0  0  0  0  0
    5.0332   -1.7565    4.8025 C   0  0  0  0  0  0  0  0  0  0  0  0
    4.3662   -1.3993    3.6089 C   0  0  0  0  0  0  0  0  0  0  0  0
    3.4418   -2.2275    3.0174 C   0  0  0  0  0  0  0  0  0  0  0  0
    3.4418   -3.5512    3.2969 C   0  0  0  0  0  0  0  0  0  0  0  0
    2.9604   -4.1910    2.1893 O   0  0  0  0  0  0  0  0  0  0  0  0
    3.0670   -3.2184    1.0933 C   0  0  1  0  0  0  0  0  0  0  0  0
    2.7216   -1.8700    1.7660 C   0  0  1  0  0  0  0  0  0  0  0  0
    1.3107   -1.5322    2.2922 C   0  0  0  0  0  0  0  0  0  0  0  0
    1.4196   -0.3450    3.3129 C   0  0  0  0  0  0  0  0  0  0  0  0
    2.3711    0.7625    2.9235 N   0  0  2  0  0  0  0  0  0  0  0  0
    1.6178    1.9310    2.4009 C   0  0  0  0  0  0  0  0  0  0  0  0
    3.5290    0.3901    2.0281 C   0  0  2  0  0  0  0  0  0  0  0  0
    3.0726   -0.5905    0.9988 C   0  0  0  0  0  0  0  0  0  0  0  0
    4.7866   -0.2682    2.7037 C   0  0  2  0  0  0  0  0  0  0  0  0
    5.7886   -0.8952    1.6259 C   0  0  0  0  0  0  0  0  0  0  0  0
    5.7854   -2.4610    1.2235 C   0  0  2  0  0  0  0  0  0  0  0  0
    7.1449   -2.7619    0.4902 C   0  0  1  0  0  0  0  0  0  0  0  0
    7.7355   -3.9620    0.9475 O   0  0  0  0  0  0  0  0  0  0  0  0
    7.0514   -2.8104   -1.0217 C   0  0  0  0  0  0  0  0  0  0  0  0
    5.8988   -2.8554   -1.7041 C   0  0  0  0  0  0  0  0  0  0  0  0
    4.5294   -2.9094   -1.0583 C   0  0  0  0  0  0  0  0  0  0  0  0
    4.5566   -3.2287    0.4753 C   0  0  2  0  0  0  0  0  0  0  0  0
    4.9869   -4.5927    0.6345 O   0  0  0  0  0  0  0  0  0  0  0  0
    4.3533   -5.6565   -0.0709 C   0  0  0  0  0  0  0  0  0  0  0  0
    4.2792   -6.9695    5.9423 H   0  0  0  0  0  0  0  0  0  0  0  0
    4.1095   -5.4379    6.7996 H   0  0  0  0  0  0  0  0  0  0  0  0
    5.5831   -5.7857    5.8490 H   0  0  0  0  0  0  0  0  0  0  0  0
    5.2737   -3.4139    6.1521 H   0  0  0  0  0  0  0  0  0  0  0  0
    5.7463   -1.1083    5.2896 H   0  0  0  0  0  0  0  0  0  0  0  0
    2.3311   -3.4617    0.3243 H   0  0  0  0  0  0  0  0  0  0  0  0
    0.6290   -1.2653    1.4805 H   0  0  0  0  0  0  0  0  0  0  0  0
    0.8624   -2.3944    2.7944 H   0  0  0  0  0  0  0  0  0  0  0  0
    0.4216    0.0481    3.5124 H   0  0  0  0  0  0  0  0  0  0  0  0
    1.7488   -0.7306    4.2800 H   0  0  0  0  0  0  0  0  0  0  0  0
    1.0942    1.6721    1.4770 H   0  0  0  0  0  0  0  0  0  0  0  0
    2.2752    2.7799    2.2007 H   0  0  0  0  0  0  0  0  0  0  0  0
    0.8708    2.2647    3.1243 H   0  0  0  0  0  0  0  0  0  0  0  0
    3.8166    1.2891    1.4924 H   0  0  0  0  0  0  0  0  0  0  0  0
    3.8170   -0.6846    0.2293 H   0  0  0  0  0  0  0  0  0  0  0  0
    2.2227   -0.1725    0.4710 H   0  0  0  0  0  0  0  0  0  0  0  0
    5.3049    0.4895    3.2911 H   0  0  0  0  0  0  0  0  0  0  0  0
    5.8666   -0.2586    0.7424 H   0  0  0  0  0  0  0  0  0  0  0  0
    6.7582   -0.7402    2.0984 H   0  0  0  0  0  0  0  0  0  0  0  0
    5.9023   -2.9617    2.1846 H   0  0  0  0  0  0  0  0  0  0  0  0
    7.8804   -1.9905    0.7193 H   0  0  0  0  0  0  0  0  0  0  0  0
    8.5791   -4.0667    0.5393 H   0  0  0  0  0  0  0  0  0  0  0  0
    7.9880   -2.8120   -1.5637 H   0  0  0  0  0  0  0  0  0  0  0  0
    5.9178   -2.8740   -2.7849 H   0  0  0  0  0  0  0  0  0  0  0  0
    4.0380   -1.9737   -1.3011 H   0  0  0  0  0  0  0  0  0  0  0  0
    3.9306   -3.6441   -1.5949 H   0  0  0  0  0  0  0  0  0  0  0  0
    4.6816   -6.6027    0.3564 H   0  0  0  0  0  0  0  0  0  0  0  0
    4.6480   -5.6729   -1.1189 H   0  0  0  0  0  0  0  0  0  0  0  0
    3.2664   -5.6338   -0.0069 H   0  0  0  0  0  0  0  0  0  0  0  0
    2.7871    1.0903    3.7839 H   0  0  0  0  0  0  0  0  0  0  0  0
  1  2  1  0
  1 29  1  0
  1 30  1  0
  1 31  1  0
  2  3  1  0
  3  8  2  0
  3  4  1  0
  4  5  2  0
  4 32  1  0
  5  6  1  0
  5 33  1  0
  6 18  1  0
  6  7  2  0
  7 11  1  0
  7  8  1  0
  8  9  1  0
  9 10  1  0
 10 26  1  0
 10 11  1  0
 10 34  1  6
 11 17  1  0
 11 12  1  1
 12 13  1  0
 12 35  1  0
 12 36  1  0
 13 14  1  0
 13 37  1  0
 13 38  1  0
 14 15  1  0
 14 16  1  0
 14 58  1  1
 15 39  1  0
 15 40  1  0
 15 41  1  0
 16 17  1  0
 16 18  1  0
 16 42  1  6
 17 43  1  0
 17 44  1  0
 18 19  1  0
 18 45  1  1
 19 20  1  0
 19 46  1  0
 19 47  1  0
 20 26  1  0
 20 21  1  0
 20 48  1  1
 21 22  1  0
 21 23  1  0
 21 49  1  6
 22 50  1  0
 23 24  2  0
 23 51  1  0
 24 25  1  0
 24 52  1  0
 25 26  1  0
 25 53  1  0
 25 54  1  0
 26 27  1  6
 27 28  1  0
 28 55  1  0
 28 56  1  0
 28 57  1  0
M  CHG  1  14   1
M  END
>  <i_m_ct_stereo_status>  (17) 
1

>  <s_m_source_file>  (17) 
/var/tmp/pbs.5076255.sched01/tmpcyubysk0/0_f5co88n.sdf

>  <i_m_source_file_index>  (17) 
7

>  <i_lp_mmshare_version>  (17) 
48012

>  <i_f3d_flags>  (17) 
0

>  <s_epik_input>  (17) 
W0NIM11PYyhbY0hdW2NIXTEpYzJPW0NAQEhdM1tDQEBdKE9bQ0gzXSkoW0NIMl1bQ0hdPVtDSF1bQ0BASF00W09IXSlbQ0BASF00W0NIMl1bQ0BIXShjMWMyW0NAQF0zNTYpW0NAQEhdKFtDSDJdNilOKFtDSDNdKVtDSDJdW0NIMl01

>  <s_epik_cmdline>  (17) 
J2VwaWtfcHl0aG9uJywgJy1waHQnLCAnMi4wJywgJy1waCcsICc3LjAnLCAnLXRuJywgJzgnLCAnLW1hJywgJzIwMCcsICctaW1hZScsICc8aW5maWxlLm1hZT4nLCAnLW9tYWUnLCAnPG91dGZpbGUubWFlPic=

>  <r_lp_tautomer_probability>  (17) 
1

>  <r_epik_Ionization_Penalty>  (17) 
0.0196483

>  <r_epik_Ionization_Penalty_Charging>  (17) 
0.0196482

>  <r_epik_Ionization_Penalty_Neutral>  (17) 
6.96074e-08

>  <r_epik_State_Penalty>  (17) 
0.0157045

>  <r_epik_Charging_Adjusted_Penalty>  (17) 
0.0353528

>  <i_epik_Tot_Q>  (17) 
1

>  <i_epik_Tot_abs_Q>  (17) 
1

>  <s_lp_Force_Field>  (17) 
OPLS3e

>  <r_lp_Energy>  (17) 
130.928

>  <b_lp_Chiralities_Consistent>  (17) 
1

>  <s_lp_Variant>  (17) 
5:0-1

>  <s_i_glide_gridfile>  (17) 
pfpi4k_grid

>  <i_i_glide_lignum>  (17) 
7

>  <i_i_glide_rotatable_bonds>  (17) 
3

>  <r_i_docking_score>  (17) 
-3.10861

>  <r_i_glide_ligand_efficiency>  (17) 
-0.111022

>  <r_i_glide_ligand_efficiency_sa>  (17) 
-0.337128

>  <r_i_glide_ligand_efficiency_ln>  (17) 
-0.717559

>  <r_i_glide_gscore>  (17) 
-3.10861

>  <r_i_glide_lipo>  (17) 
-0.585296

>  <r_i_glide_hbond>  (17) 
0

>  <r_i_glide_metal>  (17) 
-0

>  <r_i_glide_rewards>  (17) 
-0.787578

>  <r_i_glide_evdw>  (17) 
-22.3001

>  <r_i_glide_ecoul>  (17) 
-4.11463

>  <r_i_glide_erotb>  (17) 
0

>  <r_i_glide_esite>  (17) 
-0.00353544

>  <r_i_glide_emodel>  (17) 
-32.0789

>  <r_i_glide_energy>  (17) 
-26.4148

>  <r_i_glide_einternal>  (17) 
0.38433

>  <r_i_glide_intrahb_reward>  (17) 
-0

>  <i_i_glide_confnum>  (17) 
1

>  <i_i_glide_posenum>  (17) 
2

>  <r_i_glide_eff_state_penalty>  (17) 
0

>  <ligand_id>  (17) 
5

>  <original_smiles>  (17) 
COc1ccc2c3c1OC1C34CCN(C)C(C4)C2CC2C(O)C=CCC21OC

>  <smiles>  (17) 
[H]OC1([H])C([H])=C([H])C([H])([H])C2(OC([H])([H])[H])C3([H])Oc4c(OC([H])([H])[H])c([H])c([H])c5c4C34C([H])([H])C([H])([H])[N+]([H])(C([H])([H])[H])C([H])(C4([H])[H])C5([H])C([H])([H])C12[H]

$$$$
5:0:2
     RDKit          3D

 58 63  0  0  1  0  0  0  0  0999 V2000
    5.3679  -11.7575    3.1899 C   0  0  0  0  0  0  0  0  0  0  0  0
    4.9594  -10.5625    3.8272 O   0  0  0  0  0  0  0  0  0  0  0  0
    4.6410   -9.4826    3.0396 C   0  0  0  0  0  0  0  0  0  0  0  0
    4.7667   -9.4127    1.6145 C   0  0  0  0  0  0  0  0  0  0  0  0
    4.2655   -8.3120    0.8556 C   0  0  0  0  0  0  0  0  0  0  0  0
    3.7653   -7.2417    1.6254 C   0  0  0  0  0  0  0  0  0  0  0  0
    3.8978   -7.2064    3.0003 C   0  0  0  0  0  0  0  0  0  0  0  0
    4.1188   -8.3537    3.6812 C   0  0  0  0  0  0  0  0  0  0  0  0
    3.5621   -8.1957    4.9166 O   0  0  0  0  0  0  0  0  0  0  0  0
    2.6437   -7.0581    4.7972 C   0  0  1  0  0  0  0  0  0  0  0  0
    3.3729   -6.0909    3.8355 C   0  0  1  0  0  0  0  0  0  0  0  0
    4.6664   -5.3482    4.2245 C   0  0  0  0  0  0  0  0  0  0  0  0
    5.3789   -4.8748    2.9088 C   0  0  0  0  0  0  0  0  0  0  0  0
    4.4742   -4.3176    1.8350 N   0  0  2  0  0  0  0  0  0  0  0  0
    4.5454   -2.8351    1.8259 C   0  0  0  0  0  0  0  0  0  0  0  0
    3.0485   -4.8201    1.8098 C   0  0  2  0  0  0  0  0  0  0  0  0
    2.5439   -4.9509    3.2197 C   0  0  0  0  0  0  0  0  0  0  0  0
    2.7901   -6.2091    1.1242 C   0  0  2  0  0  0  0  0  0  0  0  0
    1.3264   -6.7651    1.4387 C   0  0  0  0  0  0  0  0  0  0  0  0
    1.0319   -7.8322    2.6121 C   0  0  2  0  0  0  0  0  0  0  0  0
   -0.3919   -8.4374    2.3420 C   0  0  1  0  0  0  0  0  0  0  0  0
   -0.4049   -9.8431    2.4772 O   0  0  0  0  0  0  0  0  0  0  0  0
   -1.5043   -7.8507    3.1824 C   0  0  0  0  0  0  0  0  0  0  0  0
   -1.3098   -7.0604    4.2468 C   0  0  0  0  0  0  0  0  0  0  0  0
    0.0531   -6.6877    4.7871 C   0  0  0  0  0  0  0  0  0  0  0  0
    1.2272   -7.5450    4.2052 C   0  0  2  0  0  0  0  0  0  0  0  0
    1.0839   -8.8834    4.7115 O   0  0  0  0  0  0  0  0  0  0  0  0
    0.9228   -9.1428    6.1057 C   0  0  0  0  0  0  0  0  0  0  0  0
    5.5633  -12.5036    3.9611 H   0  0  0  0  0  0  0  0  0  0  0  0
    6.2876  -11.6182    2.6185 H   0  0  0  0  0  0  0  0  0  0  0  0
    4.5780  -12.1432    2.5442 H   0  0  0  0  0  0  0  0  0  0  0  0
    5.1641  -10.2508    1.0635 H   0  0  0  0  0  0  0  0  0  0  0  0
    4.2112   -8.3373   -0.2282 H   0  0  0  0  0  0  0  0  0  0  0  0
    2.5154   -6.5997    5.7782 H   0  0  0  0  0  0  0  0  0  0  0  0
    4.4694   -4.4968    4.8835 H   0  0  0  0  0  0  0  0  0  0  0  0
    5.3417   -6.0042    4.7777 H   0  0  0  0  0  0  0  0  0  0  0  0
    6.1682   -4.1681    3.1607 H   0  0  0  0  0  0  0  0  0  0  0  0
    5.9257   -5.7111    2.4716 H   0  0  0  0  0  0  0  0  0  0  0  0
    4.1588   -2.4254    2.7629 H   0  0  0  0  0  0  0  0  0  0  0  0
    3.9722   -2.4072    1.0006 H   0  0  0  0  0  0  0  0  0  0  0  0
    5.5790   -2.4933    1.7158 H   0  0  0  0  0  0  0  0  0  0  0  0
    2.4347   -4.0842    1.2908 H   0  0  0  0  0  0  0  0  0  0  0  0
    1.4821   -5.1072    3.1927 H   0  0  0  0  0  0  0  0  0  0  0  0
    2.6338   -4.0124    3.7725 H   0  0  0  0  0  0  0  0  0  0  0  0
    2.9118   -6.0846    0.0489 H   0  0  0  0  0  0  0  0  0  0  0  0
    0.5901   -5.9622    1.4437 H   0  0  0  0  0  0  0  0  0  0  0  0
    1.0682   -7.2943    0.5208 H   0  0  0  0  0  0  0  0  0  0  0  0
    1.7059   -8.6549    2.3748 H   0  0  0  0  0  0  0  0  0  0  0  0
   -0.7001   -8.2546    1.3110 H   0  0  0  0  0  0  0  0  0  0  0  0
   -0.1818  -10.2180    1.6372 H   0  0  0  0  0  0  0  0  0  0  0  0
   -2.5117   -8.1031    2.8797 H   0  0  0  0  0  0  0  0  0  0  0  0
   -2.1589   -6.6626    4.7835 H   0  0  0  0  0  0  0  0  0  0  0  0
    0.1657   -5.6224    4.6272 H   0  0  0  0  0  0  0  0  0  0  0  0
    0.0166   -6.7692    5.8717 H   0  0  0  0  0  0  0  0  0  0  0  0
    1.0588  -10.2092    6.2818 H   0  0  0  0  0  0  0  0  0  0  0  0
   -0.0830   -8.9012    6.4475 H   0  0  0  0  0  0  0  0  0  0  0  0
    1.6465   -8.6181    6.7284 H   0  0  0  0  0  0  0  0  0  0  0  0
    4.8834   -4.5973    0.9557 H   0  0  0  0  0  0  0  0  0  0  0  0
  1  2  1  0
  1 29  1  0
  1 30  1  0
  1 31  1  0
  2  3  1  0
  3  8  2  0
  3  4  1  0
  4  5  2  0
  4 32  1  0
  5  6  1  0
  5 33  1  0
  6 18  1  0
  6  7  2  0
  7 11  1  0
  7  8  1  0
  8  9  1  0
  9 10  1  0
 10 26  1  0
 10 11  1  0
 10 34  1  1
 11 17  1  0
 11 12  1  1
 12 13  1  0
 12 35  1  0
 12 36  1  0
 13 14  1  0
 13 37  1  0
 13 38  1  0
 14 15  1  0
 14 16  1  0
 14 58  1  6
 15 39  1  0
 15 40  1  0
 15 41  1  0
 16 17  1  0
 16 18  1  0
 16 42  1  6
 17 43  1  0
 17 44  1  0
 18 19  1  0
 18 45  1  6
 19 20  1  0
 19 46  1  0
 19 47  1  0
 20 26  1  0
 20 21  1  0
 20 48  1  6
 21 22  1  0
 21 23  1  0
 21 49  1  6
 22 50  1  0
 23 24  2  0
 23 51  1  0
 24 25  1  0
 24 52  1  0
 25 26  1  0
 25 53  1  0
 25 54  1  0
 26 27  1  1
 27 28  1  0
 28 55  1  0
 28 56  1  0
 28 57  1  0
M  CHG  1  14   1
M  END
>  <i_m_ct_stereo_status>  (18) 
1

>  <s_m_source_file>  (18) 
/var/tmp/pbs.5076255.sched01/tmpcyubysk0/0_f5co88n.sdf

>  <i_m_source_file_index>  (18) 
7

>  <i_lp_mmshare_version>  (18) 
48012

>  <i_f3d_flags>  (18) 
0

>  <s_epik_input>  (18) 
W0NIM11PYyhbY0hdW2NIXTEpYzJPW0NAQEhdM1tDQEBdKE9bQ0gzXSkoW0NIMl1bQ0hdPVtDSF1bQ0BASF00W09IXSlbQ0BASF00W0NIMl1bQ0BIXShjMWMyW0NAQF0zNTYpW0NAQEhdKFtDSDJdNilOKFtDSDNdKVtDSDJdW0NIMl01

>  <s_epik_cmdline>  (18) 
J2VwaWtfcHl0aG9uJywgJy1waHQnLCAnMi4wJywgJy1waCcsICc3LjAnLCAnLXRuJywgJzgnLCAnLW1hJywgJzIwMCcsICctaW1hZScsICc8aW5maWxlLm1hZT4nLCAnLW9tYWUnLCAnPG91dGZpbGUubWFlPic=

>  <r_lp_tautomer_probability>  (18) 
1

>  <r_epik_Ionization_Penalty>  (18) 
0.0196483

>  <r_epik_Ionization_Penalty_Charging>  (18) 
0.0196482

>  <r_epik_Ionization_Penalty_Neutral>  (18) 
6.96074e-08

>  <r_epik_State_Penalty>  (18) 
0.0157045

>  <r_epik_Charging_Adjusted_Penalty>  (18) 
0.0353528

>  <i_epik_Tot_Q>  (18) 
1

>  <i_epik_Tot_abs_Q>  (18) 
1

>  <s_lp_Force_Field>  (18) 
OPLS3e

>  <r_lp_Energy>  (18) 
130.928

>  <b_lp_Chiralities_Consistent>  (18) 
1

>  <s_lp_Variant>  (18) 
5:0-1

>  <s_i_glide_gridfile>  (18) 
pfpi4k_grid

>  <i_i_glide_lignum>  (18) 
7

>  <i_i_glide_rotatable_bonds>  (18) 
3

>  <r_i_docking_score>  (18) 
-2.50461

>  <r_i_glide_ligand_efficiency>  (18) 
-0.0894503

>  <r_i_glide_ligand_efficiency_sa>  (18) 
-0.271624

>  <r_i_glide_ligand_efficiency_ln>  (18) 
-0.578137

>  <r_i_glide_gscore>  (18) 
-2.50461

>  <r_i_glide_lipo>  (18) 
-0.0927407

>  <r_i_glide_hbond>  (18) 
0

>  <r_i_glide_metal>  (18) 
-0

>  <r_i_glide_rewards>  (18) 
-0.787578

>  <r_i_glide_evdw>  (18) 
-22.4177

>  <r_i_glide_ecoul>  (18) 
-3.35603

>  <r_i_glide_erotb>  (18) 
0

>  <r_i_glide_esite>  (18) 
0

>  <r_i_glide_emodel>  (18) 
-30.0515

>  <r_i_glide_energy>  (18) 
-25.7738

>  <r_i_glide_einternal>  (18) 
0.747819

>  <r_i_glide_intrahb_reward>  (18) 
-0

>  <i_i_glide_confnum>  (18) 
2

>  <i_i_glide_posenum>  (18) 
16

>  <r_i_glide_eff_state_penalty>  (18) 
0

>  <ligand_id>  (18) 
5

>  <original_smiles>  (18) 
COc1ccc2c3c1OC1C34CCN(C)C(C4)C2CC2C(O)C=CCC21OC

>  <smiles>  (18) 
[H]OC1([H])C([H])=C([H])C([H])([H])C2(OC([H])([H])[H])C3([H])Oc4c(OC([H])([H])[H])c([H])c([H])c5c4C34C([H])([H])C([H])([H])[N+]([H])(C([H])([H])[H])C([H])(C4([H])[H])C5([H])C([H])([H])C12[H]

$$$$
5:1:0
     RDKit          3D

 57 62  0  0  1  0  0  0  0  0999 V2000
    0.1361    0.8087    8.7755 C   0  0  0  0  0  0  0  0  0  0  0  0
   -0.2279   -0.3060    7.9613 O   0  0  0  0  0  0  0  0  0  0  0  0
    0.1587   -0.3019    6.6390 C   0  0  0  0  0  0  0  0  0  0  0  0
   -0.3215   -1.3128    5.7770 C   0  0  0  0  0  0  0  0  0  0  0  0
   -0.0868   -1.3074    4.3591 C   0  0  0  0  0  0  0  0  0  0  0  0
    0.7661   -0.2774    3.9126 C   0  0  0  0  0  0  0  0  0  0  0  0
    1.4305    0.5504    4.7911 C   0  0  0  0  0  0  0  0  0  0  0  0
    0.9863    0.6723    6.0616 C   0  0  0  0  0  0  0  0  0  0  0  0
    1.3391    1.9210    6.4786 O   0  0  0  0  0  0  0  0  0  0  0  0
    1.6301    2.6760    5.2658 C   0  0  1  0  0  0  0  0  0  0  0  0
    2.3124    1.6604    4.3281 C   0  0  1  0  0  0  0  0  0  0  0  0
    3.7026    1.0911    4.6461 C   0  0  0  0  0  0  0  0  0  0  0  0
    3.9090   -0.2113    3.7827 C   0  0  0  0  0  0  0  0  0  0  0  0
    3.4228   -0.0976    2.3817 N   0  0  0  0  0  0  0  0  0  0  0  0
    3.3419   -1.4060    1.7599 C   0  0  0  0  0  0  0  0  0  0  0  0
    2.2343    0.7478    2.0967 C   0  0  2  0  0  0  0  0  0  0  0  0
    2.4466    2.0279    2.8495 C   0  0  0  0  0  0  0  0  0  0  0  0
    0.7978    0.2417    2.5014 C   0  0  2  0  0  0  0  0  0  0  0  0
   -0.2578    1.4396    2.4501 C   0  0  0  0  0  0  0  0  0  0  0  0
   -0.7135    2.2755    3.7526 C   0  0  2  0  0  0  0  0  0  0  0  0
   -2.0187    3.0546    3.3588 C   0  0  1  0  0  0  0  0  0  0  0  0
   -2.9882    2.9557    4.3676 O   0  0  0  0  0  0  0  0  0  0  0  0
   -1.8405    4.5155    3.0300 C   0  0  0  0  0  0  0  0  0  0  0  0
   -0.7161    5.2077    3.2774 C   0  0  0  0  0  0  0  0  0  0  0  0
    0.4883    4.6142    3.9686 C   0  0  0  0  0  0  0  0  0  0  0  0
    0.2575    3.2297    4.6455 C   0  0  2  0  0  0  0  0  0  0  0  0
   -0.6050    3.4452    5.7788 O   0  0  0  0  0  0  0  0  0  0  0  0
   -0.3017    4.4330    6.7618 C   0  0  0  0  0  0  0  0  0  0  0  0
   -0.2032    0.7372    9.8106 H   0  0  0  0  0  0  0  0  0  0  0  0
   -0.3134    1.7083    8.3457 H   0  0  0  0  0  0  0  0  0  0  0  0
    1.2240    0.9100    8.7945 H   0  0  0  0  0  0  0  0  0  0  0  0
   -0.9424   -2.0925    6.1787 H   0  0  0  0  0  0  0  0  0  0  0  0
   -0.5873   -2.0083    3.7074 H   0  0  0  0  0  0  0  0  0  0  0  0
    2.3175    3.5046    5.4481 H   0  0  0  0  0  0  0  0  0  0  0  0
    4.4922    1.8263    4.4524 H   0  0  0  0  0  0  0  0  0  0  0  0
    3.7765    0.8321    5.7058 H   0  0  0  0  0  0  0  0  0  0  0  0
    4.9743   -0.4688    3.7870 H   0  0  0  0  0  0  0  0  0  0  0  0
    3.4048   -1.0596    4.2626 H   0  0  0  0  0  0  0  0  0  0  0  0
    3.1121   -1.2992    0.6990 H   0  0  0  0  0  0  0  0  0  0  0  0
    2.5712   -2.0213    2.2304 H   0  0  0  0  0  0  0  0  0  0  0  0
    4.3028   -1.9158    1.8553 H   0  0  0  0  0  0  0  0  0  0  0  0
    2.2100    0.9406    1.0190 H   0  0  0  0  0  0  0  0  0  0  0  0
    1.7591    2.7655    2.4971 H   0  0  0  0  0  0  0  0  0  0  0  0
    3.4177    2.4880    2.6308 H   0  0  0  0  0  0  0  0  0  0  0  0
    0.4999   -0.5405    1.8049 H   0  0  0  0  0  0  0  0  0  0  0  0
   -0.0418    2.1194    1.6212 H   0  0  0  0  0  0  0  0  0  0  0  0
   -1.1674    0.9406    2.1044 H   0  0  0  0  0  0  0  0  0  0  0  0
   -1.0729    1.4968    4.4250 H   0  0  0  0  0  0  0  0  0  0  0  0
   -2.4717    2.6292    2.4572 H   0  0  0  0  0  0  0  0  0  0  0  0
   -3.4841    2.1716    4.1741 H   0  0  0  0  0  0  0  0  0  0  0  0
   -2.6797    4.9579    2.5180 H   0  0  0  0  0  0  0  0  0  0  0  0
   -0.5801    6.2365    2.9567 H   0  0  0  0  0  0  0  0  0  0  0  0
    1.2482    4.5920    3.1975 H   0  0  0  0  0  0  0  0  0  0  0  0
    0.8598    5.3369    4.6931 H   0  0  0  0  0  0  0  0  0  0  0  0
   -0.9641    4.2833    7.6121 H   0  0  0  0  0  0  0  0  0  0  0  0
   -0.4844    5.4466    6.4072 H   0  0  0  0  0  0  0  0  0  0  0  0
    0.7195    4.3593    7.1276 H   0  0  0  0  0  0  0  0  0  0  0  0
  1  2  1  0
  1 29  1  0
  1 30  1  0
  1 31  1  0
  2  3  1  0
  3  8  2  0
  3  4  1  0
  4  5  2  0
  4 32  1  0
  5  6  1  0
  5 33  1  0
  6 18  1  0
  6  7  2  0
  7 11  1  0
  7  8  1  0
  8  9  1  0
  9 10  1  0
 10 26  1  0
 10 11  1  0
 10 34  1  1
 11 17  1  0
 11 12  1  1
 12 13  1  0
 12 35  1  0
 12 36  1  0
 13 14  1  0
 13 37  1  0
 13 38  1  0
 14 15  1  0
 14 16  1  0
 15 39  1  0
 15 40  1  0
 15 41  1  0
 16 17  1  0
 16 18  1  0
 16 42  1  6
 17 43  1  0
 17 44  1  0
 18 19  1  0
 18 45  1  6
 19 20  1  0
 19 46  1  0
 19 47  1  0
 20 26  1  0
 20 21  1  0
 20 48  1  1
 21 22  1  0
 21 23  1  0
 21 49  1  6
 22 50  1  0
 23 24  2  0
 23 51  1  0
 24 25  1  0
 24 52  1  0
 25 26  1  0
 25 53  1  0
 25 54  1  0
 26 27  1  1
 27 28  1  0
 28 55  1  0
 28 56  1  0
 28 57  1  0
M  END
>  <i_m_ct_stereo_status>  (19) 
1

>  <s_m_source_file>  (19) 
/var/tmp/pbs.5076255.sched01/tmpcyubysk0/0_f5co88n.sdf

>  <i_m_source_file_index>  (19) 
8

>  <i_lp_mmshare_version>  (19) 
48012

>  <i_f3d_flags>  (19) 
0

>  <s_epik_input>  (19) 
W0NIM11PYyhbY0hdW2NIXTEpYzJPW0NAQEhdM1tDQEBdKE9bQ0gzXSkoW0NIMl1bQ0hdPVtDSF1bQ0BASF00W09IXSlbQ0BASF00W0NIMl1bQ0BIXShjMWMyW0NAQF0zNTYpW0NAQEhdKFtDSDJdNilOKFtDSDNdKVtDSDJdW0NIMl01

>  <s_epik_cmdline>  (19) 
J2VwaWtfcHl0aG9uJywgJy1waHQnLCAnMi4wJywgJy1waCcsICc3LjAnLCAnLXRuJywgJzgnLCAnLW1hJywgJzIwMCcsICctaW1hZScsICc8aW5maWxlLm1hZT4nLCAnLW9tYWUnLCAnPG91dGZpbGUubWFlPic=

>  <r_lp_tautomer_probability>  (19) 
1

>  <r_epik_Ionization_Penalty>  (19) 
2.028

>  <r_epik_Ionization_Penalty_Charging>  (19) 
0

>  <r_epik_Ionization_Penalty_Neutral>  (19) 
2.028

>  <r_epik_State_Penalty>  (19) 
2.15878

>  <r_epik_Charging_Adjusted_Penalty>  (19) 
2.15878

>  <i_epik_Tot_Q>  (19) 
0

>  <i_epik_Tot_abs_Q>  (19) 
0

>  <s_lp_Force_Field>  (19) 
OPLS3e

>  <r_lp_Energy>  (19) 
117.734

>  <b_lp_Chiralities_Consistent>  (19) 
1

>  <s_lp_Variant>  (19) 
5:0-2

>  <s_i_glide_gridfile>  (19) 
pfpi4k_grid

>  <i_i_glide_lignum>  (19) 
8

>  <i_i_glide_rotatable_bonds>  (19) 
3

>  <r_i_docking_score>  (19) 
-2.51912

>  <r_i_glide_ligand_efficiency>  (19) 
-0.0899687

>  <r_i_glide_ligand_efficiency_sa>  (19) 
-0.273198

>  <r_i_glide_ligand_efficiency_ln>  (19) 
-0.581487

>  <r_i_glide_gscore>  (19) 
-2.51912

>  <r_i_glide_lipo>  (19) 
-0.00940261

>  <r_i_glide_hbond>  (19) 
-0.00530143

>  <r_i_glide_metal>  (19) 
-0

>  <r_i_glide_rewards>  (19) 
-0.79445

>  <r_i_glide_evdw>  (19) 
-18.2617

>  <r_i_glide_ecoul>  (19) 
-5.31257

>  <r_i_glide_erotb>  (19) 
0

>  <r_i_glide_esite>  (19) 
0

>  <r_i_glide_emodel>  (19) 
-23.8999

>  <r_i_glide_energy>  (19) 
-23.5742

>  <r_i_glide_einternal>  (19) 
6.40865

>  <r_i_glide_intrahb_reward>  (19) 
-0

>  <i_i_glide_confnum>  (19) 
2

>  <i_i_glide_posenum>  (19) 
6

>  <r_i_glide_eff_state_penalty>  (19) 
0

>  <ligand_id>  (19) 
5

>  <original_smiles>  (19) 
COc1ccc2c3c1OC1C34CCN(C)C(C4)C2CC2C(O)C=CCC21OC

>  <smiles>  (19) 
[H]OC1([H])C([H])=C([H])C([H])([H])C2(OC([H])([H])[H])C3([H])Oc4c(OC([H])([H])[H])c([H])c([H])c5c4C34C([H])([H])C([H])([H])N(C([H])([H])[H])C([H])(C4([H])[H])C5([H])C([H])([H])C12[H]

$$$$
5:1:1
     RDKit          3D

 57 62  0  0  1  0  0  0  0  0999 V2000
   -1.1668    4.0351    9.2457 C   0  0  0  0  0  0  0  0  0  0  0  0
   -0.1011    3.2326    8.7589 O   0  0  0  0  0  0  0  0  0  0  0  0
   -0.4264    2.1063    8.0414 C   0  0  0  0  0  0  0  0  0  0  0  0
   -1.7386    1.7028    7.6548 C   0  0  0  0  0  0  0  0  0  0  0  0
   -1.9524    0.6174    6.7556 C   0  0  0  0  0  0  0  0  0  0  0  0
   -0.8240   -0.1682    6.4639 C   0  0  0  0  0  0  0  0  0  0  0  0
    0.3920    0.0666    7.0608 C   0  0  0  0  0  0  0  0  0  0  0  0
    0.6273    1.2748    7.6298 C   0  0  0  0  0  0  0  0  0  0  0  0
    1.9603    1.5319    7.4896 O   0  0  0  0  0  0  0  0  0  0  0  0
    2.4320    0.6093    6.4472 C   0  0  1  0  0  0  0  0  0  0  0  0
    1.6330   -0.6869    6.6871 C   0  0  1  0  0  0  0  0  0  0  0  0
    1.8626   -1.5849    7.9111 C   0  0  0  0  0  0  0  0  0  0  0  0
    0.6144   -2.5319    8.0665 C   0  0  0  0  0  0  0  0  0  0  0  0
    0.0947   -3.0970    6.7927 N   0  0  0  0  0  0  0  0  0  0  0  0
   -1.1897   -3.7421    6.9739 C   0  0  0  0  0  0  0  0  0  0  0  0
    0.2141   -2.3036    5.5468 C   0  0  2  0  0  0  0  0  0  0  0  0
    1.6108   -1.7423    5.5545 C   0  0  0  0  0  0  0  0  0  0  0  0
   -0.7288   -1.0799    5.2830 C   0  0  2  0  0  0  0  0  0  0  0  0
   -0.2048   -0.1758    4.0900 C   0  0  0  0  0  0  0  0  0  0  0  0
    0.6403    1.1711    4.3472 C   0  0  2  0  0  0  0  0  0  0  0  0
    0.5848    1.9830    3.0274 C   0  0  1  0  0  0  0  0  0  0  0  0
    0.3097    3.3401    3.2745 O   0  0  0  0  0  0  0  0  0  0  0  0
    1.8242    1.8537    2.1864 C   0  0  0  0  0  0  0  0  0  0  0  0
    2.9723    1.2817    2.5737 C   0  0  0  0  0  0  0  0  0  0  0  0
    3.2294    0.7811    3.9715 C   0  0  0  0  0  0  0  0  0  0  0  0
    2.1355    1.2290    4.9942 C   0  0  2  0  0  0  0  0  0  0  0  0
    2.2593    2.6547    5.1881 O   0  0  0  0  0  0  0  0  0  0  0  0
    3.5139    3.2483    5.5028 C   0  0  0  0  0  0  0  0  0  0  0  0
   -0.7383    4.8934    9.7605 H   0  0  0  0  0  0  0  0  0  0  0  0
   -1.7904    3.4905    9.9614 H   0  0  0  0  0  0  0  0  0  0  0  0
   -1.7854    4.4105    8.4265 H   0  0  0  0  0  0  0  0  0  0  0  0
   -2.6010    2.2493    7.9965 H   0  0  0  0  0  0  0  0  0  0  0  0
   -2.9163    0.4012    6.3222 H   0  0  0  0  0  0  0  0  0  0  0  0
    3.4972    0.4161    6.5595 H   0  0  0  0  0  0  0  0  0  0  0  0
    2.7841   -2.1684    7.8100 H   0  0  0  0  0  0  0  0  0  0  0  0
    1.9739   -0.9835    8.8173 H   0  0  0  0  0  0  0  0  0  0  0  0
    0.8738   -3.3499    8.7386 H   0  0  0  0  0  0  0  0  0  0  0  0
   -0.1897   -1.9841    8.5605 H   0  0  0  0  0  0  0  0  0  0  0  0
   -1.4481   -4.3105    6.0875 H   0  0  0  0  0  0  0  0  0  0  0  0
   -1.9841   -3.0224    7.1474 H   0  0  0  0  0  0  0  0  0  0  0  0
   -1.1760   -4.4244    7.8247 H   0  0  0  0  0  0  0  0  0  0  0  0
    0.1108   -2.9896    4.7061 H   0  0  0  0  0  0  0  0  0  0  0  0
    1.8435   -1.3782    4.5747 H   0  0  0  0  0  0  0  0  0  0  0  0
    2.3585   -2.5208    5.6877 H   0  0  0  0  0  0  0  0  0  0  0  0
   -1.7209   -1.4497    5.0521 H   0  0  0  0  0  0  0  0  0  0  0  0
    0.2356   -0.7866    3.2945 H   0  0  0  0  0  0  0  0  0  0  0  0
   -1.1363    0.1646    3.6305 H   0  0  0  0  0  0  0  0  0  0  0  0
    0.0008    1.7577    5.0099 H   0  0  0  0  0  0  0  0  0  0  0  0
   -0.2154    1.6407    2.3719 H   0  0  0  0  0  0  0  0  0  0  0  0
    0.2167    3.7486    2.4129 H   0  0  0  0  0  0  0  0  0  0  0  0
    1.7391    2.2598    1.1999 H   0  0  0  0  0  0  0  0  0  0  0  0
    3.8013    1.1950    1.8796 H   0  0  0  0  0  0  0  0  0  0  0  0
    3.3586   -0.2887    3.8823 H   0  0  0  0  0  0  0  0  0  0  0  0
    4.2135    1.1396    4.2697 H   0  0  0  0  0  0  0  0  0  0  0  0
    3.3296    4.2719    5.8202 H   0  0  0  0  0  0  0  0  0  0  0  0
    4.1697    3.3030    4.6349 H   0  0  0  0  0  0  0  0  0  0  0  0
    4.0310    2.7411    6.3147 H   0  0  0  0  0  0  0  0  0  0  0  0
  1  2  1  0
  1 29  1  0
  1 30  1  0
  1 31  1  0
  2  3  1  0
  3  8  2  0
  3  4  1  0
  4  5  2  0
  4 32  1  0
  5  6  1  0
  5 33  1  0
  6 18  1  0
  6  7  2  0
  7 11  1  0
  7  8  1  0
  8  9  1  0
  9 10  1  0
 10 26  1  0
 10 11  1  0
 10 34  1  1
 11 17  1  0
 11 12  1  1
 12 13  1  0
 12 35  1  0
 12 36  1  0
 13 14  1  0
 13 37  1  0
 13 38  1  0
 14 15  1  0
 14 16  1  0
 15 39  1  0
 15 40  1  0
 15 41  1  0
 16 17  1  0
 16 18  1  0
 16 42  1  6
 17 43  1  0
 17 44  1  0
 18 19  1  0
 18 45  1  6
 19 20  1  0
 19 46  1  0
 19 47  1  0
 20 26  1  0
 20 21  1  0
 20 48  1  1
 21 22  1  0
 21 23  1  0
 21 49  1  6
 22 50  1  0
 23 24  2  0
 23 51  1  0
 24 25  1  0
 24 52  1  0
 25 26  1  0
 25 53  1  0
 25 54  1  0
 26 27  1  1
 27 28  1  0
 28 55  1  0
 28 56  1  0
 28 57  1  0
M  END
>  <i_m_ct_stereo_status>  (20) 
1

>  <s_m_source_file>  (20) 
/var/tmp/pbs.5076255.sched01/tmpcyubysk0/0_f5co88n.sdf

>  <i_m_source_file_index>  (20) 
8

>  <i_lp_mmshare_version>  (20) 
48012

>  <i_f3d_flags>  (20) 
0

>  <s_epik_input>  (20) 
W0NIM11PYyhbY0hdW2NIXTEpYzJPW0NAQEhdM1tDQEBdKE9bQ0gzXSkoW0NIMl1bQ0hdPVtDSF1bQ0BASF00W09IXSlbQ0BASF00W0NIMl1bQ0BIXShjMWMyW0NAQF0zNTYpW0NAQEhdKFtDSDJdNilOKFtDSDNdKVtDSDJdW0NIMl01

>  <s_epik_cmdline>  (20) 
J2VwaWtfcHl0aG9uJywgJy1waHQnLCAnMi4wJywgJy1waCcsICc3LjAnLCAnLXRuJywgJzgnLCAnLW1hJywgJzIwMCcsICctaW1hZScsICc8aW5maWxlLm1hZT4nLCAnLW9tYWUnLCAnPG91dGZpbGUubWFlPic=

>  <r_lp_tautomer_probability>  (20) 
1

>  <r_epik_Ionization_Penalty>  (20) 
2.028

>  <r_epik_Ionization_Penalty_Charging>  (20) 
0

>  <r_epik_Ionization_Penalty_Neutral>  (20) 
2.028

>  <r_epik_State_Penalty>  (20) 
2.15878

>  <r_epik_Charging_Adjusted_Penalty>  (20) 
2.15878

>  <i_epik_Tot_Q>  (20) 
0

>  <i_epik_Tot_abs_Q>  (20) 
0

>  <s_lp_Force_Field>  (20) 
OPLS3e

>  <r_lp_Energy>  (20) 
117.734

>  <b_lp_Chiralities_Consistent>  (20) 
1

>  <s_lp_Variant>  (20) 
5:0-2

>  <s_i_glide_gridfile>  (20) 
pfpi4k_grid

>  <i_i_glide_lignum>  (20) 
8

>  <i_i_glide_rotatable_bonds>  (20) 
3

>  <r_i_docking_score>  (20) 
-2.059

>  <r_i_glide_ligand_efficiency>  (20) 
-0.0735356

>  <r_i_glide_ligand_efficiency_sa>  (20) 
-0.223297

>  <r_i_glide_ligand_efficiency_ln>  (20) 
-0.475277

>  <r_i_glide_gscore>  (20) 
-2.059

>  <r_i_glide_lipo>  (20) 
0

>  <r_i_glide_hbond>  (20) 
0

>  <r_i_glide_metal>  (20) 
-0

>  <r_i_glide_rewards>  (20) 
-0.79445

>  <r_i_glide_evdw>  (20) 
-10.7622

>  <r_i_glide_ecoul>  (20) 
-4.84291

>  <r_i_glide_erotb>  (20) 
0

>  <r_i_glide_esite>  (20) 
0

>  <r_i_glide_emodel>  (20) 
-18.4959

>  <r_i_glide_energy>  (20) 
-15.6051

>  <r_i_glide_einternal>  (20) 
0.398991

>  <r_i_glide_intrahb_reward>  (20) 
-0

>  <i_i_glide_confnum>  (20) 
1

>  <i_i_glide_posenum>  (20) 
11

>  <r_i_glide_eff_state_penalty>  (20) 
0

>  <ligand_id>  (20) 
5

>  <original_smiles>  (20) 
COc1ccc2c3c1OC1C34CCN(C)C(C4)C2CC2C(O)C=CCC21OC

>  <smiles>  (20) 
[H]OC1([H])C([H])=C([H])C([H])([H])C2(OC([H])([H])[H])C3([H])Oc4c(OC([H])([H])[H])c([H])c([H])c5c4C34C([H])([H])C([H])([H])N(C([H])([H])[H])C([H])(C4([H])[H])C5([H])C([H])([H])C12[H]

$$$$
5:1:2
     RDKit          3D

 57 62  0  0  1  0  0  0  0  0999 V2000
    4.7856    4.3594    5.8362 C   0  0  0  0  0  0  0  0  0  0  0  0
    3.9668    3.8198    6.8713 O   0  0  0  0  0  0  0  0  0  0  0  0
    3.3070    2.6543    6.5617 C   0  0  0  0  0  0  0  0  0  0  0  0
    3.1240    1.6486    7.5514 C   0  0  0  0  0  0  0  0  0  0  0  0
    2.3405    0.4745    7.3152 C   0  0  0  0  0  0  0  0  0  0  0  0
    1.8664    0.3332    5.9962 C   0  0  0  0  0  0  0  0  0  0  0  0
    2.2392    1.1924    4.9819 C   0  0  0  0  0  0  0  0  0  0  0  0
    2.7338    2.4106    5.3022 C   0  0  0  0  0  0  0  0  0  0  0  0
    2.3778    3.2539    4.2880 O   0  0  0  0  0  0  0  0  0  0  0  0
    1.3092    2.5706    3.5498 C   0  0  1  0  0  0  0  0  0  0  0  0
    1.7109    1.0797    3.5890 C   0  0  1  0  0  0  0  0  0  0  0  0
    2.9317    0.5339    2.8306 C   0  0  0  0  0  0  0  0  0  0  0  0
    3.2945   -0.8675    3.4415 C   0  0  0  0  0  0  0  0  0  0  0  0
    2.1297   -1.7414    3.7494 N   0  0  0  0  0  0  0  0  0  0  0  0
    2.5216   -2.8596    4.5969 C   0  0  0  0  0  0  0  0  0  0  0  0
    0.8505   -1.1132    4.1662 C   0  0  2  0  0  0  0  0  0  0  0  0
    0.6368    0.0388    3.2223 C   0  0  0  0  0  0  0  0  0  0  0  0
    0.6890   -0.5241    5.6104 C   0  0  2  0  0  0  0  0  0  0  0  0
   -0.5982    0.4098    5.7260 C   0  0  0  0  0  0  0  0  0  0  0  0
   -0.5297    2.0199    5.6145 C   0  0  2  0  0  0  0  0  0  0  0  0
   -1.8821    2.5778    6.1847 C   0  0  1  0  0  0  0  0  0  0  0  0
   -1.7032    3.6771    7.0545 O   0  0  0  0  0  0  0  0  0  0  0  0
   -2.8853    2.9640    5.1277 C   0  0  0  0  0  0  0  0  0  0  0  0
   -2.6218    3.0726    3.8184 C   0  0  0  0  0  0  0  0  0  0  0  0
   -1.2539    2.8817    3.2183 C   0  0  0  0  0  0  0  0  0  0  0  0
   -0.1006    2.8438    4.2714 C   0  0  2  0  0  0  0  0  0  0  0  0
    0.0113    4.1697    4.8294 O   0  0  0  0  0  0  0  0  0  0  0  0
    0.2230    5.3051    3.9900 C   0  0  0  0  0  0  0  0  0  0  0  0
    5.1559    5.3493    6.1154 H   0  0  0  0  0  0  0  0  0  0  0  0
    4.2892    4.4818    4.8765 H   0  0  0  0  0  0  0  0  0  0  0  0
    5.6403    3.7001    5.6851 H   0  0  0  0  0  0  0  0  0  0  0  0
    3.5453    1.8186    8.5278 H   0  0  0  0  0  0  0  0  0  0  0  0
    2.0820   -0.2156    8.1097 H   0  0  0  0  0  0  0  0  0  0  0  0
    1.2830    2.9260    2.5188 H   0  0  0  0  0  0  0  0  0  0  0  0
    2.7342    0.4564    1.7590 H   0  0  0  0  0  0  0  0  0  0  0  0
    3.7870    1.2053    2.9357 H   0  0  0  0  0  0  0  0  0  0  0  0
    3.9658   -1.3956    2.7607 H   0  0  0  0  0  0  0  0  0  0  0  0
    3.8750   -0.7220    4.3577 H   0  0  0  0  0  0  0  0  0  0  0  0
    1.6969   -3.5669    4.7033 H   0  0  0  0  0  0  0  0  0  0  0  0
    2.8219   -2.5226    5.5922 H   0  0  0  0  0  0  0  0  0  0  0  0
    3.3655   -3.3927    4.1526 H   0  0  0  0  0  0  0  0  0  0  0  0
    0.0612   -1.8492    4.0076 H   0  0  0  0  0  0  0  0  0  0  0  0
   -0.3771    0.3780    3.3068 H   0  0  0  0  0  0  0  0  0  0  0  0
    0.6928   -0.2673    2.1779 H   0  0  0  0  0  0  0  0  0  0  0  0
    0.6110   -1.3485    6.3151 H   0  0  0  0  0  0  0  0  0  0  0  0
   -1.4241    0.0077    5.1357 H   0  0  0  0  0  0  0  0  0  0  0  0
   -0.9324    0.2201    6.7466 H   0  0  0  0  0  0  0  0  0  0  0  0
    0.2005    2.2913    6.3756 H   0  0  0  0  0  0  0  0  0  0  0  0
   -2.3839    1.8237    6.7917 H   0  0  0  0  0  0  0  0  0  0  0  0
   -1.1067    3.4274    7.7451 H   0  0  0  0  0  0  0  0  0  0  0  0
   -3.8870    3.1453    5.4860 H   0  0  0  0  0  0  0  0  0  0  0  0
   -3.4115    3.3185    3.1221 H   0  0  0  0  0  0  0  0  0  0  0  0
   -1.3191    1.9958    2.5975 H   0  0  0  0  0  0  0  0  0  0  0  0
   -1.0971    3.6799    2.4952 H   0  0  0  0  0  0  0  0  0  0  0  0
    0.5088    6.1431    4.6239 H   0  0  0  0  0  0  0  0  0  0  0  0
   -0.6831    5.5998    3.4649 H   0  0  0  0  0  0  0  0  0  0  0  0
    1.0198    5.1686    3.2619 H   0  0  0  0  0  0  0  0  0  0  0  0
  1  2  1  0
  1 29  1  0
  1 30  1  0
  1 31  1  0
  2  3  1  0
  3  8  2  0
  3  4  1  0
  4  5  2  0
  4 32  1  0
  5  6  1  0
  5 33  1  0
  6 18  1  0
  6  7  2  0
  7 11  1  0
  7  8  1  0
  8  9  1  0
  9 10  1  0
 10 26  1  0
 10 11  1  0
 10 34  1  6
 11 17  1  0
 11 12  1  6
 12 13  1  0
 12 35  1  0
 12 36  1  0
 13 14  1  0
 13 37  1  0
 13 38  1  0
 14 15  1  0
 14 16  1  0
 15 39  1  0
 15 40  1  0
 15 41  1  0
 16 17  1  0
 16 18  1  0
 16 42  1  6
 17 43  1  0
 17 44  1  0
 18 19  1  0
 18 45  1  1
 19 20  1  0
 19 46  1  0
 19 47  1  0
 20 26  1  0
 20 21  1  0
 20 48  1  1
 21 22  1  0
 21 23  1  0
 21 49  1  1
 22 50  1  0
 23 24  2  0
 23 51  1  0
 24 25  1  0
 24 52  1  0
 25 26  1  0
 25 53  1  0
 25 54  1  0
 26 27  1  1
 27 28  1  0
 28 55  1  0
 28 56  1  0
 28 57  1  0
M  END
>  <i_m_ct_stereo_status>  (21) 
1

>  <s_m_source_file>  (21) 
/var/tmp/pbs.5076255.sched01/tmpcyubysk0/0_f5co88n.sdf

>  <i_m_source_file_index>  (21) 
8

>  <i_lp_mmshare_version>  (21) 
48012

>  <i_f3d_flags>  (21) 
0

>  <s_epik_input>  (21) 
W0NIM11PYyhbY0hdW2NIXTEpYzJPW0NAQEhdM1tDQEBdKE9bQ0gzXSkoW0NIMl1bQ0hdPVtDSF1bQ0BASF00W09IXSlbQ0BASF00W0NIMl1bQ0BIXShjMWMyW0NAQF0zNTYpW0NAQEhdKFtDSDJdNilOKFtDSDNdKVtDSDJdW0NIMl01

>  <s_epik_cmdline>  (21) 
J2VwaWtfcHl0aG9uJywgJy1waHQnLCAnMi4wJywgJy1waCcsICc3LjAnLCAnLXRuJywgJzgnLCAnLW1hJywgJzIwMCcsICctaW1hZScsICc8aW5maWxlLm1hZT4nLCAnLW9tYWUnLCAnPG91dGZpbGUubWFlPic=

>  <r_lp_tautomer_probability>  (21) 
1

>  <r_epik_Ionization_Penalty>  (21) 
2.028

>  <r_epik_Ionization_Penalty_Charging>  (21) 
0

>  <r_epik_Ionization_Penalty_Neutral>  (21) 
2.028

>  <r_epik_State_Penalty>  (21) 
2.15878

>  <r_epik_Charging_Adjusted_Penalty>  (21) 
2.15878

>  <i_epik_Tot_Q>  (21) 
0

>  <i_epik_Tot_abs_Q>  (21) 
0

>  <s_lp_Force_Field>  (21) 
OPLS3e

>  <r_lp_Energy>  (21) 
117.734

>  <b_lp_Chiralities_Consistent>  (21) 
1

>  <s_lp_Variant>  (21) 
5:0-2

>  <s_i_glide_gridfile>  (21) 
pfpi4k_grid

>  <i_i_glide_lignum>  (21) 
8

>  <i_i_glide_rotatable_bonds>  (21) 
3

>  <r_i_docking_score>  (21) 
-1.83698

>  <r_i_glide_ligand_efficiency>  (21) 
-0.0656063

>  <r_i_glide_ligand_efficiency_sa>  (21) 
-0.199219

>  <r_i_glide_ligand_efficiency_ln>  (21) 
-0.424028

>  <r_i_glide_gscore>  (21) 
-1.83698

>  <r_i_glide_lipo>  (21) 
-0.0905314

>  <r_i_glide_hbond>  (21) 
0

>  <r_i_glide_metal>  (21) 
-0

>  <r_i_glide_rewards>  (21) 
-0.79445

>  <r_i_glide_evdw>  (21) 
-16.6279

>  <r_i_glide_ecoul>  (21) 
-0.804001

>  <r_i_glide_erotb>  (21) 
0

>  <r_i_glide_esite>  (21) 
0

>  <r_i_glide_emodel>  (21) 
-17.3256

>  <r_i_glide_energy>  (21) 
-17.4319

>  <r_i_glide_einternal>  (21) 
5.33812

>  <r_i_glide_intrahb_reward>  (21) 
-0

>  <i_i_glide_confnum>  (21) 
1

>  <i_i_glide_posenum>  (21) 
9

>  <r_i_glide_eff_state_penalty>  (21) 
0

>  <ligand_id>  (21) 
5

>  <original_smiles>  (21) 
COc1ccc2c3c1OC1C34CCN(C)C(C4)C2CC2C(O)C=CCC21OC

>  <smiles>  (21) 
[H]OC1([H])C([H])=C([H])C([H])([H])C2(OC([H])([H])[H])C3([H])Oc4c(OC([H])([H])[H])c([H])c([H])c5c4C34C([H])([H])C([H])([H])N(C([H])([H])[H])C([H])(C4([H])[H])C5([H])C([H])([H])C12[H]

$$$$
6:0:0
     RDKit          3D

 70 74  0  0  1  0  0  0  0  0999 V2000
    2.2040   -4.4085    5.1690 C   0  0  0  0  0  0  0  0  0  0  0  0
    2.3370   -5.4080    4.2744 C   0  0  0  0  0  0  0  0  0  0  0  0
    1.3874   -5.4930    3.0980 C   0  0  0  0  0  0  0  0  0  0  0  0
    1.9258   -6.1581    1.8092 C   0  0  1  0  0  0  0  0  0  0  0  0
    0.7606   -6.2651    0.9874 O   0  0  0  0  0  0  0  0  0  0  0  0
    2.8501   -5.2501    0.9248 C   0  0  1  0  0  0  0  0  0  0  0  0
    2.3011   -3.9632    0.8066 O   0  0  0  0  0  0  0  0  0  0  0  0
    4.3465   -5.0255    1.1580 C   0  0  0  0  0  0  0  0  0  0  0  0
    5.0943   -4.5195    0.1184 C   0  0  0  0  0  0  0  0  0  0  0  0
    4.5531   -4.2317   -1.2862 C   0  0  0  0  0  0  0  0  0  0  0  0
    4.8300   -2.8262   -1.8397 C   0  0  0  0  0  0  0  0  0  0  0  0
    4.3162   -2.7397   -3.2944 C   0  0  0  0  0  0  0  0  0  0  0  0
    4.0954   -1.7543   -0.9943 C   0  0  0  0  0  0  0  0  0  0  0  0
    6.3433   -2.6001   -1.8505 C   0  0  0  0  0  0  0  0  0  0  0  0
    6.9426   -2.8401   -0.4792 C   0  0  0  0  0  0  0  0  0  0  0  0
    7.7075   -2.0085    0.0070 O   0  0  0  0  0  0  0  0  0  0  0  0
    6.5867   -4.1747    0.2152 C   0  0  1  0  0  0  0  0  0  0  0  0
    7.0374   -4.1456    1.6486 C   0  0  0  0  0  0  0  0  0  0  0  0
    6.5075   -5.3441    2.4161 C   0  0  0  0  0  0  0  0  0  0  0  0
    4.9593   -5.3547    2.5562 C   0  0  1  0  0  0  0  0  0  0  0  0
    4.7596   -4.2316    3.3940 O   0  0  0  0  0  0  0  0  0  0  0  0
    4.4545   -6.7034    3.2990 C   0  0  1  0  0  0  0  0  0  0  0  0
    5.6603   -7.4040    4.0204 C   0  0  0  0  0  0  0  0  0  0  0  0
    3.3861   -6.5048    4.4597 C   0  0  2  0  0  0  0  0  0  0  0  0
    2.7451   -7.8102    5.0342 C   0  0  0  0  0  0  0  0  0  0  0  0
    1.4552   -8.3283    4.3703 C   0  0  0  0  0  0  0  0  0  0  0  0
    1.5219   -8.6143    2.8443 C   0  0  1  0  0  0  0  0  0  0  0  0
    1.9091  -10.0869    2.6264 C   0  0  0  0  0  0  0  0  0  0  0  0
    0.1926   -8.5626    2.3489 O   0  0  0  0  0  0  0  0  0  0  0  0
    2.4077   -7.6458    1.9618 C   0  0  2  0  0  0  0  0  0  0  0  0
    3.9138   -7.7656    2.3007 C   0  0  1  0  0  0  0  0  0  0  0  0
    4.6973   -7.8943    1.1260 O   0  0  0  0  0  0  0  0  0  0  0  0
    2.8451   -4.3270    6.0312 H   0  0  0  0  0  0  0  0  0  0  0  0
    1.4484   -3.6483    5.0500 H   0  0  0  0  0  0  0  0  0  0  0  0
    0.4772   -5.9874    3.4267 H   0  0  0  0  0  0  0  0  0  0  0  0
    1.0421   -4.4805    2.8793 H   0  0  0  0  0  0  0  0  0  0  0  0
    0.3509   -7.0855    1.2422 H   0  0  0  0  0  0  0  0  0  0  0  0
    2.7968   -5.7316   -0.0512 H   0  0  0  0  0  0  0  0  0  0  0  0
    2.7516   -3.5198    0.1073 H   0  0  0  0  0  0  0  0  0  0  0  0
    5.0064   -4.9787   -1.9436 H   0  0  0  0  0  0  0  0  0  0  0  0
    3.4809   -4.3420   -1.3669 H   0  0  0  0  0  0  0  0  0  0  0  0
    4.5148   -1.7611   -3.7321 H   0  0  0  0  0  0  0  0  0  0  0  0
    3.2421   -2.9207   -3.3553 H   0  0  0  0  0  0  0  0  0  0  0  0
    4.8083   -3.4867   -3.9197 H   0  0  0  0  0  0  0  0  0  0  0  0
    4.3181   -0.7426   -1.3397 H   0  0  0  0  0  0  0  0  0  0  0  0
    4.3783   -1.8078    0.0598 H   0  0  0  0  0  0  0  0  0  0  0  0
    3.0142   -1.8864   -1.0414 H   0  0  0  0  0  0  0  0  0  0  0  0
    6.8238   -3.2768   -2.5566 H   0  0  0  0  0  0  0  0  0  0  0  0
    6.5482   -1.5847   -2.1795 H   0  0  0  0  0  0  0  0  0  0  0  0
    7.1273   -4.9609   -0.3056 H   0  0  0  0  0  0  0  0  0  0  0  0
    8.1292   -4.1471    1.6803 H   0  0  0  0  0  0  0  0  0  0  0  0
    6.6906   -3.2060    2.0819 H   0  0  0  0  0  0  0  0  0  0  0  0
    6.8423   -6.2317    1.8762 H   0  0  0  0  0  0  0  0  0  0  0  0
    7.0053   -5.3451    3.3881 H   0  0  0  0  0  0  0  0  0  0  0  0
    5.1970   -4.3827    4.2180 H   0  0  0  0  0  0  0  0  0  0  0  0
    5.3944   -8.3194    4.5429 H   0  0  0  0  0  0  0  0  0  0  0  0
    6.1165   -6.7593    4.7728 H   0  0  0  0  0  0  0  0  0  0  0  0
    6.4344   -7.7297    3.3261 H   0  0  0  0  0  0  0  0  0  0  0  0
    3.9820   -6.1317    5.2939 H   0  0  0  0  0  0  0  0  0  0  0  0
    3.4518   -8.6347    5.0997 H   0  0  0  0  0  0  0  0  0  0  0  0
    2.4919   -7.6094    6.0764 H   0  0  0  0  0  0  0  0  0  0  0  0
    1.1731   -9.2504    4.8868 H   0  0  0  0  0  0  0  0  0  0  0  0
    0.6350   -7.6640    4.6194 H   0  0  0  0  0  0  0  0  0  0  0  0
    2.8292  -10.3911    3.1273 H   0  0  0  0  0  0  0  0  0  0  0  0
    2.0461  -10.2545    1.5627 H   0  0  0  0  0  0  0  0  0  0  0  0
    1.1440  -10.7785    2.9826 H   0  0  0  0  0  0  0  0  0  0  0  0
    0.1328   -9.1359    1.5904 H   0  0  0  0  0  0  0  0  0  0  0  0
    2.3195   -8.0712    0.9589 H   0  0  0  0  0  0  0  0  0  0  0  0
    4.0690   -8.7318    2.7676 H   0  0  0  0  0  0  0  0  0  0  0  0
    4.4970   -8.7293    0.7266 H   0  0  0  0  0  0  0  0  0  0  0  0
  1  2  2  0
  1 33  1  0
  1 34  1  0
  2 24  1  0
  2  3  1  0
  3  4  1  0
  3 35  1  0
  3 36  1  0
  4 30  1  0
  4  5  1  6
  4  6  1  0
  5 37  1  0
  6  7  1  0
  6  8  1  0
  6 38  1  6
  7 39  1  0
  8 20  1  0
  8  9  2  0
  9 17  1  0
  9 10  1  0
 10 11  1  0
 10 40  1  0
 10 41  1  0
 11 12  1  0
 11 13  1  0
 11 14  1  0
 12 42  1  0
 12 43  1  0
 12 44  1  0
 13 45  1  0
 13 46  1  0
 13 47  1  0
 14 15  1  0
 14 48  1  0
 14 49  1  0
 15 16  2  0
 15 17  1  0
 17 18  1  0
 17 50  1  6
 18 19  1  0
 18 51  1  0
 18 52  1  0
 19 20  1  0
 19 53  1  0
 19 54  1  0
 20 21  1  1
 20 22  1  0
 21 55  1  0
 22 31  1  0
 22 23  1  1
 22 24  1  0
 23 56  1  0
 23 57  1  0
 23 58  1  0
 24 25  1  0
 24 59  1  1
 25 26  1  0
 25 60  1  0
 25 61  1  0
 26 27  1  0
 26 62  1  0
 26 63  1  0
 27 28  1  0
 27 29  1  6
 27 30  1  0
 28 64  1  0
 28 65  1  0
 28 66  1  0
 29 67  1  0
 30 31  1  0
 30 68  1  6
 31 32  1  0
 31 69  1  1
 32 70  1  0
M  END
>  <i_m_ct_stereo_status>  (22) 
1

>  <s_m_source_file>  (22) 
/var/tmp/pbs.5076255.sched01/tmpcyubysk0/0_f5co88n.sdf

>  <i_m_source_file_index>  (22) 
9

>  <i_lp_mmshare_version>  (22) 
48012

>  <i_f3d_flags>  (22) 
0

>  <s_epik_input>  (22) 
W09IXVtDQF0xMltDQEBIXTNbQ0BdKFtDSDNdKShbT0hdKVtDSDJdW0NIMl1bQ0BIXShDKD1bQ0gyXSlbQ0gyXTEpW0NAQF0oW0NIM10pKFtDQEBIXTNbT0hdKVtDQF00KFtPSF0pQyhbQ0BASF0yW09IXSk9QzVbQ0BIXShbQ0gyXVtDSDJdNClDKD1PKVtDSDJdQyhbQ0gyXTUpKFtDSDNdKVtDSDNd

>  <s_epik_cmdline>  (22) 
J2VwaWtfcHl0aG9uJywgJy1waHQnLCAnMi4wJywgJy1waCcsICc3LjAnLCAnLXRuJywgJzgnLCAnLW1hJywgJzIwMCcsICctaW1hZScsICc8aW5maWxlLm1hZT4nLCAnLW9tYWUnLCAnPG91dGZpbGUubWFlPic=

>  <r_lp_tautomer_probability>  (22) 
1

>  <r_epik_Ionization_Penalty>  (22) 
1.11549e-06

>  <r_epik_Ionization_Penalty_Charging>  (22) 
0

>  <r_epik_Ionization_Penalty_Neutral>  (22) 
1.11549e-06

>  <r_epik_State_Penalty>  (22) 
-0

>  <r_epik_Charging_Adjusted_Penalty>  (22) 
0

>  <i_epik_Tot_Q>  (22) 
0

>  <i_epik_Tot_abs_Q>  (22) 
0

>  <s_lp_Force_Field>  (22) 
OPLS3e

>  <r_lp_Energy>  (22) 
81.3684

>  <b_lp_Chiralities_Consistent>  (22) 
1

>  <s_lp_Variant>  (22) 
6:0-1

>  <s_i_glide_gridfile>  (22) 
pfpi4k_grid

>  <i_i_glide_lignum>  (22) 
9

>  <i_i_glide_rotatable_bonds>  (22) 
5

>  <r_i_docking_score>  (22) 
-4.07112

>  <r_i_glide_ligand_efficiency>  (22) 
-0.127222

>  <r_i_glide_ligand_efficiency_sa>  (22) 
-0.403906

>  <r_i_glide_ligand_efficiency_ln>  (22) 
-0.911634

>  <r_i_glide_gscore>  (22) 
-4.07112

>  <r_i_glide_lipo>  (22) 
-0.536807

>  <r_i_glide_hbond>  (22) 
-0.0829643

>  <r_i_glide_metal>  (22) 
-0

>  <r_i_glide_rewards>  (22) 
-0.887358

>  <r_i_glide_evdw>  (22) 
-28.2338

>  <r_i_glide_ecoul>  (22) 
-7.68199

>  <r_i_glide_erotb>  (22) 
0

>  <r_i_glide_esite>  (22) 
0

>  <r_i_glide_emodel>  (22) 
-50.7135

>  <r_i_glide_energy>  (22) 
-35.9158

>  <r_i_glide_einternal>  (22) 
2.10427

>  <r_i_glide_intrahb_reward>  (22) 
-0.5

>  <i_i_glide_confnum>  (22) 
1

>  <i_i_glide_posenum>  (22) 
38

>  <r_i_glide_eff_state_penalty>  (22) 
0

>  <ligand_id>  (22) 
6

>  <original_smiles>  (22) 
C=C1CC2(O)C(O)C3=C4CC(C)(C)CC(=O)C4CCC3(O)C3(C)C1CCC(C)(O)C2C3O

>  <smiles>  (22) 
[H]OC1([H])C2=C3C([H])([H])C(C([H])([H])[H])(C([H])([H])[H])C([H])([H])C(=O)C3([H])C([H])([H])C([H])([H])C2(O[H])C2(C([H])([H])[H])C([H])(O[H])C3([H])C1(O[H])C([H])([H])C(=C([H])[H])C2([H])C([H])([H])C([H])([H])C3(O[H])C([H])([H])[H]

$$$$
6:0:1
     RDKit          3D

 70 74  0  0  1  0  0  0  0  0999 V2000
    2.9531   -6.1721    6.8014 C   0  0  0  0  0  0  0  0  0  0  0  0
    2.6148   -6.9159    5.7285 C   0  0  0  0  0  0  0  0  0  0  0  0
    1.4335   -6.5033    4.8783 C   0  0  0  0  0  0  0  0  0  0  0  0
    1.4667   -6.9151    3.3866 C   0  0  1  0  0  0  0  0  0  0  0  0
    0.1450   -6.5958    2.9577 O   0  0  0  0  0  0  0  0  0  0  0  0
    2.3518   -5.9925    2.4805 C   0  0  1  0  0  0  0  0  0  0  0  0
    2.0436   -4.6307    2.7374 O   0  0  0  0  0  0  0  0  0  0  0  0
    3.8912   -6.1186    2.3498 C   0  0  0  0  0  0  0  0  0  0  0  0
    4.5012   -5.5198    1.2676 C   0  0  0  0  0  0  0  0  0  0  0  0
    3.7430   -4.8172    0.1334 C   0  0  0  0  0  0  0  0  0  0  0  0
    4.2512   -3.3923   -0.1977 C   0  0  0  0  0  0  0  0  0  0  0  0
    3.4799   -2.8374   -1.4138 C   0  0  0  0  0  0  0  0  0  0  0  0
    4.0297   -2.4519    1.0088 C   0  0  0  0  0  0  0  0  0  0  0  0
    5.7388   -3.4694   -0.5778 C   0  0  0  0  0  0  0  0  0  0  0  0
    6.5522   -4.1733    0.4959 C   0  0  0  0  0  0  0  0  0  0  0  0
    7.6136   -3.6894    0.8775 O   0  0  0  0  0  0  0  0  0  0  0  0
    6.0221   -5.5273    1.0103 C   0  0  1  0  0  0  0  0  0  0  0  0
    6.8154   -5.9708    2.2316 C   0  0  0  0  0  0  0  0  0  0  0  0
    6.1513   -7.1875    2.8494 C   0  0  0  0  0  0  0  0  0  0  0  0
    4.7118   -6.9243    3.4046 C   0  0  1  0  0  0  0  0  0  0  0  0
    5.0019   -6.0459    4.4734 O   0  0  0  0  0  0  0  0  0  0  0  0
    4.0547   -8.3024    3.9652 C   0  0  1  0  0  0  0  0  0  0  0  0
    5.1687   -9.3917    4.1670 C   0  0  0  0  0  0  0  0  0  0  0  0
    3.3612   -8.2071    5.3923 C   0  0  2  0  0  0  0  0  0  0  0  0
    2.5518   -9.4648    5.8487 C   0  0  0  0  0  0  0  0  0  0  0  0
    1.0608   -9.5379    5.4759 C   0  0  0  0  0  0  0  0  0  0  0  0
    0.7010   -9.4379    3.9693 C   0  0  1  0  0  0  0  0  0  0  0  0
    0.6277  -10.8518    3.3528 C   0  0  0  0  0  0  0  0  0  0  0  0
   -0.6571   -9.0297    3.9443 O   0  0  0  0  0  0  0  0  0  0  0  0
    1.5789   -8.4556    3.0854 C   0  0  2  0  0  0  0  0  0  0  0  0
    3.0489   -8.9403    2.9626 C   0  0  1  0  0  0  0  0  0  0  0  0
    3.5036   -8.9197    1.6181 O   0  0  0  0  0  0  0  0  0  0  0  0
    3.7703   -6.4449    7.4495 H   0  0  0  0  0  0  0  0  0  0  0  0
    2.4113   -5.2733    7.0503 H   0  0  0  0  0  0  0  0  0  0  0  0
    0.5243   -6.8721    5.3480 H   0  0  0  0  0  0  0  0  0  0  0  0
    1.3262   -5.4215    4.9643 H   0  0  0  0  0  0  0  0  0  0  0  0
   -0.4112   -7.2628    3.3495 H   0  0  0  0  0  0  0  0  0  0  0  0
    1.9816   -6.2251    1.4845 H   0  0  0  0  0  0  0  0  0  0  0  0
    2.6371   -4.0967    2.2309 H   0  0  0  0  0  0  0  0  0  0  0  0
    3.9148   -5.4687   -0.7228 H   0  0  0  0  0  0  0  0  0  0  0  0
    2.6629   -4.7591    0.2487 H   0  0  0  0  0  0  0  0  0  0  0  0
    3.8253   -1.8377   -1.6843 H   0  0  0  0  0  0  0  0  0  0  0  0
    2.4088   -2.7714   -1.2162 H   0  0  0  0  0  0  0  0  0  0  0  0
    3.6125   -3.4777   -2.2869 H   0  0  0  0  0  0  0  0  0  0  0  0
    4.4294   -1.4534    0.8145 H   0  0  0  0  0  0  0  0  0  0  0  0
    4.5224   -2.8297    1.9077 H   0  0  0  0  0  0  0  0  0  0  0  0
    2.9664   -2.3493    1.2372 H   0  0  0  0  0  0  0  0  0  0  0  0
    5.8580   -4.0230   -1.5081 H   0  0  0  0  0  0  0  0  0  0  0  0
    6.1379   -2.4702   -0.7561 H   0  0  0  0  0  0  0  0  0  0  0  0
    6.2006   -6.2447    0.2089 H   0  0  0  0  0  0  0  0  0  0  0  0
    7.8388   -6.2161    1.9410 H   0  0  0  0  0  0  0  0  0  0  0  0
    6.8910   -5.1637    2.9619 H   0  0  0  0  0  0  0  0  0  0  0  0
    6.1175   -7.9473    2.0685 H   0  0  0  0  0  0  0  0  0  0  0  0
    6.8315   -7.5453    3.6229 H   0  0  0  0  0  0  0  0  0  0  0  0
    5.5678   -6.4964    5.0813 H   0  0  0  0  0  0  0  0  0  0  0  0
    4.7979  -10.3373    4.5509 H   0  0  0  0  0  0  0  0  0  0  0  0
    5.9312   -9.0703    4.8763 H   0  0  0  0  0  0  0  0  0  0  0  0
    5.6588   -9.6757    3.2363 H   0  0  0  0  0  0  0  0  0  0  0  0
    4.2029   -8.1885    6.0824 H   0  0  0  0  0  0  0  0  0  0  0  0
    3.0166  -10.4022    5.5539 H   0  0  0  0  0  0  0  0  0  0  0  0
    2.5934   -9.4939    6.9376 H   0  0  0  0  0  0  0  0  0  0  0  0
    0.6740  -10.4819    5.8668 H   0  0  0  0  0  0  0  0  0  0  0  0
    0.5208   -8.8052    6.0700 H   0  0  0  0  0  0  0  0  0  0  0  0
    1.5372  -11.4347    3.4922 H   0  0  0  0  0  0  0  0  0  0  0  0
    0.4177  -10.8111    2.2843 H   0  0  0  0  0  0  0  0  0  0  0  0
   -0.1603  -11.4399    3.8193 H   0  0  0  0  0  0  0  0  0  0  0  0
   -1.1784   -9.7095    4.3744 H   0  0  0  0  0  0  0  0  0  0  0  0
    1.1648   -8.5733    2.0804 H   0  0  0  0  0  0  0  0  0  0  0  0
    3.0473  -10.0043    3.1693 H   0  0  0  0  0  0  0  0  0  0  0  0
    3.5530   -9.8147    1.3032 H   0  0  0  0  0  0  0  0  0  0  0  0
  1  2  2  0
  1 33  1  0
  1 34  1  0
  2 24  1  0
  2  3  1  0
  3  4  1  0
  3 35  1  0
  3 36  1  0
  4 30  1  0
  4  5  1  6
  4  6  1  0
  5 37  1  0
  6  7  1  0
  6  8  1  0
  6 38  1  6
  7 39  1  0
  8 20  1  0
  8  9  2  0
  9 17  1  0
  9 10  1  0
 10 11  1  0
 10 40  1  0
 10 41  1  0
 11 12  1  0
 11 13  1  0
 11 14  1  0
 12 42  1  0
 12 43  1  0
 12 44  1  0
 13 45  1  0
 13 46  1  0
 13 47  1  0
 14 15  1  0
 14 48  1  0
 14 49  1  0
 15 16  2  0
 15 17  1  0
 17 18  1  0
 17 50  1  6
 18 19  1  0
 18 51  1  0
 18 52  1  0
 19 20  1  0
 19 53  1  0
 19 54  1  0
 20 21  1  1
 20 22  1  0
 21 55  1  0
 22 31  1  0
 22 23  1  1
 22 24  1  0
 23 56  1  0
 23 57  1  0
 23 58  1  0
 24 25  1  0
 24 59  1  1
 25 26  1  0
 25 60  1  0
 25 61  1  0
 26 27  1  0
 26 62  1  0
 26 63  1  0
 27 28  1  0
 27 29  1  1
 27 30  1  0
 28 64  1  0
 28 65  1  0
 28 66  1  0
 29 67  1  0
 30 31  1  0
 30 68  1  6
 31 32  1  0
 31 69  1  1
 32 70  1  0
M  END
>  <i_m_ct_stereo_status>  (23) 
1

>  <s_m_source_file>  (23) 
/var/tmp/pbs.5076255.sched01/tmpcyubysk0/0_f5co88n.sdf

>  <i_m_source_file_index>  (23) 
9

>  <i_lp_mmshare_version>  (23) 
48012

>  <i_f3d_flags>  (23) 
0

>  <s_epik_input>  (23) 
W09IXVtDQF0xMltDQEBIXTNbQ0BdKFtDSDNdKShbT0hdKVtDSDJdW0NIMl1bQ0BIXShDKD1bQ0gyXSlbQ0gyXTEpW0NAQF0oW0NIM10pKFtDQEBIXTNbT0hdKVtDQF00KFtPSF0pQyhbQ0BASF0yW09IXSk9QzVbQ0BIXShbQ0gyXVtDSDJdNClDKD1PKVtDSDJdQyhbQ0gyXTUpKFtDSDNdKVtDSDNd

>  <s_epik_cmdline>  (23) 
J2VwaWtfcHl0aG9uJywgJy1waHQnLCAnMi4wJywgJy1waCcsICc3LjAnLCAnLXRuJywgJzgnLCAnLW1hJywgJzIwMCcsICctaW1hZScsICc8aW5maWxlLm1hZT4nLCAnLW9tYWUnLCAnPG91dGZpbGUubWFlPic=

>  <r_lp_tautomer_probability>  (23) 
1

>  <r_epik_Ionization_Penalty>  (23) 
1.11549e-06

>  <r_epik_Ionization_Penalty_Charging>  (23) 
0

>  <r_epik_Ionization_Penalty_Neutral>  (23) 
1.11549e-06

>  <r_epik_State_Penalty>  (23) 
-0

>  <r_epik_Charging_Adjusted_Penalty>  (23) 
0

>  <i_epik_Tot_Q>  (23) 
0

>  <i_epik_Tot_abs_Q>  (23) 
0

>  <s_lp_Force_Field>  (23) 
OPLS3e

>  <r_lp_Energy>  (23) 
81.3684

>  <b_lp_Chiralities_Consistent>  (23) 
1

>  <s_lp_Variant>  (23) 
6:0-1

>  <s_i_glide_gridfile>  (23) 
pfpi4k_grid

>  <i_i_glide_lignum>  (23) 
9

>  <i_i_glide_rotatable_bonds>  (23) 
5

>  <r_i_docking_score>  (23) 
-3.78891

>  <r_i_glide_ligand_efficiency>  (23) 
-0.118403

>  <r_i_glide_ligand_efficiency_sa>  (23) 
-0.375907

>  <r_i_glide_ligand_efficiency_ln>  (23) 
-0.84844

>  <r_i_glide_gscore>  (23) 
-3.78891

>  <r_i_glide_lipo>  (23) 
-0.361348

>  <r_i_glide_hbond>  (23) 
0

>  <r_i_glide_metal>  (23) 
-0

>  <r_i_glide_rewards>  (23) 
-1.01888

>  <r_i_glide_evdw>  (23) 
-29.4425

>  <r_i_glide_ecoul>  (23) 
-6.24364

>  <r_i_glide_erotb>  (23) 
0

>  <r_i_glide_esite>  (23) 
0

>  <r_i_glide_emodel>  (23) 
-49.938

>  <r_i_glide_energy>  (23) 
-35.6862

>  <r_i_glide_einternal>  (23) 
2.14382

>  <r_i_glide_intrahb_reward>  (23) 
-0.5

>  <i_i_glide_confnum>  (23) 
1

>  <i_i_glide_posenum>  (23) 
9

>  <r_i_glide_eff_state_penalty>  (23) 
0

>  <ligand_id>  (23) 
6

>  <original_smiles>  (23) 
C=C1CC2(O)C(O)C3=C4CC(C)(C)CC(=O)C4CCC3(O)C3(C)C1CCC(C)(O)C2C3O

>  <smiles>  (23) 
[H]OC1([H])C2=C3C([H])([H])C(C([H])([H])[H])(C([H])([H])[H])C([H])([H])C(=O)C3([H])C([H])([H])C([H])([H])C2(O[H])C2(C([H])([H])[H])C([H])(O[H])C3([H])C1(O[H])C([H])([H])C(=C([H])[H])C2([H])C([H])([H])C([H])([H])C3(O[H])C([H])([H])[H]

$$$$
6:0:2
     RDKit          3D

 70 74  0  0  1  0  0  0  0  0999 V2000
    2.8109   -6.0036    6.8623 C   0  0  0  0  0  0  0  0  0  0  0  0
    2.4988   -6.7939    5.8129 C   0  0  0  0  0  0  0  0  0  0  0  0
    1.3221   -6.4342    4.9330 C   0  0  0  0  0  0  0  0  0  0  0  0
    1.3868   -6.8958    3.4558 C   0  0  1  0  0  0  0  0  0  0  0  0
    0.0649   -6.6215    2.9947 O   0  0  0  0  0  0  0  0  0  0  0  0
    2.2699   -5.9858    2.5313 C   0  0  1  0  0  0  0  0  0  0  0  0
    1.9466   -4.6231    2.7581 O   0  0  0  0  0  0  0  0  0  0  0  0
    3.8118   -6.0892    2.4191 C   0  0  0  0  0  0  0  0  0  0  0  0
    4.4251   -5.5247    1.3192 C   0  0  0  0  0  0  0  0  0  0  0  0
    3.6738   -4.8708    0.1468 C   0  0  0  0  0  0  0  0  0  0  0  0
    4.1563   -3.4459   -0.2100 C   0  0  0  0  0  0  0  0  0  0  0  0
    3.3933   -2.9422   -1.4515 C   0  0  0  0  0  0  0  0  0  0  0  0
    3.8995   -2.4704    0.9642 C   0  0  0  0  0  0  0  0  0  0  0  0
    5.6490   -3.5036   -0.5673 C   0  0  0  0  0  0  0  0  0  0  0  0
    6.4614   -4.1562    0.5361 C   0  0  0  0  0  0  0  0  0  0  0  0
    7.5225   -3.6489    0.8916 O   0  0  0  0  0  0  0  0  0  0  0  0
    5.9503   -5.4998    1.0968 C   0  0  1  0  0  0  0  0  0  0  0  0
    6.7288   -5.8841    2.3487 C   0  0  0  0  0  0  0  0  0  0  0  0
    6.0805   -7.0932    2.9978 C   0  0  0  0  0  0  0  0  0  0  0  0
    4.6295   -6.8445    3.5193 C   0  0  1  0  0  0  0  0  0  0  0  0
    4.8888   -5.9423    4.5762 O   0  0  0  0  0  0  0  0  0  0  0  0
    3.9901   -8.2124    4.1184 C   0  0  1  0  0  0  0  0  0  0  0  0
    5.1224   -9.2713    4.3750 C   0  0  0  0  0  0  0  0  0  0  0  0
    3.2741   -8.0813    5.5332 C   0  0  2  0  0  0  0  0  0  0  0  0
    2.4836   -9.3382    6.0230 C   0  0  0  0  0  0  0  0  0  0  0  0
    1.0002   -9.4522    5.6308 C   0  0  0  0  0  0  0  0  0  0  0  0
    0.6622   -9.4135    4.1157 C   0  0  1  0  0  0  0  0  0  0  0  0
    0.6291  -10.8494    3.5491 C   0  0  0  0  0  0  0  0  0  0  0  0
   -0.7009   -9.0309    4.0509 O   0  0  0  0  0  0  0  0  0  0  0  0
    1.5325   -8.4438    3.2110 C   0  0  2  0  0  0  0  0  0  0  0  0
    3.0128   -8.9049    3.1254 C   0  0  1  0  0  0  0  0  0  0  0  0
    3.4887   -8.9158    1.7896 O   0  0  0  0  0  0  0  0  0  0  0  0
    3.6243   -6.2389    7.5298 H   0  0  0  0  0  0  0  0  0  0  0  0
    2.2481   -5.1083    7.0747 H   0  0  0  0  0  0  0  0  0  0  0  0
    0.4131   -6.8037    5.4021 H   0  0  0  0  0  0  0  0  0  0  0  0
    1.1891   -5.3519    4.9820 H   0  0  0  0  0  0  0  0  0  0  0  0
   -0.4806   -7.3007    3.3819 H   0  0  0  0  0  0  0  0  0  0  0  0
    1.9128   -6.2517    1.5383 H   0  0  0  0  0  0  0  0  0  0  0  0
    2.5387   -4.0951    2.2446 H   0  0  0  0  0  0  0  0  0  0  0  0
    3.8539   -5.5190   -0.7093 H   0  0  0  0  0  0  0  0  0  0  0  0
    2.5945   -4.8243    0.2592 H   0  0  0  0  0  0  0  0  0  0  0  0
    3.7242   -1.9461   -1.7483 H   0  0  0  0  0  0  0  0  0  0  0  0
    2.3183   -2.8924   -1.2714 H   0  0  0  0  0  0  0  0  0  0  0  0
    3.5531   -3.6088   -2.3006 H   0  0  0  0  0  0  0  0  0  0  0  0
    4.2824   -1.4717    0.7433 H   0  0  0  0  0  0  0  0  0  0  0  0
    4.3873   -2.8032    1.8831 H   0  0  0  0  0  0  0  0  0  0  0  0
    2.8332   -2.3752    1.1763 H   0  0  0  0  0  0  0  0  0  0  0  0
    5.7939   -4.0856   -1.4771 H   0  0  0  0  0  0  0  0  0  0  0  0
    6.0296   -2.5029   -0.7700 H   0  0  0  0  0  0  0  0  0  0  0  0
    6.1543   -6.2424    0.3270 H   0  0  0  0  0  0  0  0  0  0  0  0
    7.7613   -6.1210    2.0822 H   0  0  0  0  0  0  0  0  0  0  0  0
    6.7765   -5.0579    3.0556 H   0  0  0  0  0  0  0  0  0  0  0  0
    6.0760   -7.8820    2.2448 H   0  0  0  0  0  0  0  0  0  0  0  0
    6.7509   -7.4038    3.7989 H   0  0  0  0  0  0  0  0  0  0  0  0
    4.0803   -5.8192    5.0535 H   0  0  0  0  0  0  0  0  0  0  0  0
    4.7660  -10.2114    4.7876 H   0  0  0  0  0  0  0  0  0  0  0  0
    5.8668   -8.9063    5.0830 H   0  0  0  0  0  0  0  0  0  0  0  0
    5.6332   -9.5760    3.4618 H   0  0  0  0  0  0  0  0  0  0  0  0
    4.1075   -8.0225    6.2329 H   0  0  0  0  0  0  0  0  0  0  0  0
    2.9707  -10.2752    5.7668 H   0  0  0  0  0  0  0  0  0  0  0  0
    2.5107   -9.3271    7.1133 H   0  0  0  0  0  0  0  0  0  0  0  0
    0.6258  -10.3898    6.0490 H   0  0  0  0  0  0  0  0  0  0  0  0
    0.4380   -8.7105    6.1905 H   0  0  0  0  0  0  0  0  0  0  0  0
    1.5468  -11.4073    3.7232 H   0  0  0  0  0  0  0  0  0  0  0  0
    0.4374  -10.8512    2.4756 H   0  0  0  0  0  0  0  0  0  0  0  0
   -0.1566  -11.4404    4.0208 H   0  0  0  0  0  0  0  0  0  0  0  0
   -1.2239   -9.7208    4.4645 H   0  0  0  0  0  0  0  0  0  0  0  0
    1.1369   -8.6047    2.2050 H   0  0  0  0  0  0  0  0  0  0  0  0
    3.0317   -9.9613    3.3690 H   0  0  0  0  0  0  0  0  0  0  0  0
    3.4280   -9.8021    1.4545 H   0  0  0  0  0  0  0  0  0  0  0  0
  1  2  2  0
  1 33  1  0
  1 34  1  0
  2 24  1  0
  2  3  1  0
  3  4  1  0
  3 35  1  0
  3 36  1  0
  4 30  1  0
  4  5  1  6
  4  6  1  0
  5 37  1  0
  6  7  1  0
  6  8  1  0
  6 38  1  6
  7 39  1  0
  8 20  1  0
  8  9  2  0
  9 17  1  0
  9 10  1  0
 10 11  1  0
 10 40  1  0
 10 41  1  0
 11 12  1  0
 11 13  1  0
 11 14  1  0
 12 42  1  0
 12 43  1  0
 12 44  1  0
 13 45  1  0
 13 46  1  0
 13 47  1  0
 14 15  1  0
 14 48  1  0
 14 49  1  0
 15 16  2  0
 15 17  1  0
 17 18  1  0
 17 50  1  6
 18 19  1  0
 18 51  1  0
 18 52  1  0
 19 20  1  0
 19 53  1  0
 19 54  1  0
 20 21  1  1
 20 22  1  0
 21 55  1  0
 22 31  1  0
 22 23  1  1
 22 24  1  0
 23 56  1  0
 23 57  1  0
 23 58  1  0
 24 25  1  0
 24 59  1  1
 25 26  1  0
 25 60  1  0
 25 61  1  0
 26 27  1  0
 26 62  1  0
 26 63  1  0
 27 28  1  0
 27 29  1  1
 27 30  1  0
 28 64  1  0
 28 65  1  0
 28 66  1  0
 29 67  1  0
 30 31  1  0
 30 68  1  6
 31 32  1  0
 31 69  1  1
 32 70  1  0
M  END
>  <i_m_ct_stereo_status>  (24) 
1

>  <s_m_source_file>  (24) 
/var/tmp/pbs.5076255.sched01/tmpcyubysk0/0_f5co88n.sdf

>  <i_m_source_file_index>  (24) 
9

>  <i_lp_mmshare_version>  (24) 
48012

>  <i_f3d_flags>  (24) 
0

>  <s_epik_input>  (24) 
W09IXVtDQF0xMltDQEBIXTNbQ0BdKFtDSDNdKShbT0hdKVtDSDJdW0NIMl1bQ0BIXShDKD1bQ0gyXSlbQ0gyXTEpW0NAQF0oW0NIM10pKFtDQEBIXTNbT0hdKVtDQF00KFtPSF0pQyhbQ0BASF0yW09IXSk9QzVbQ0BIXShbQ0gyXVtDSDJdNClDKD1PKVtDSDJdQyhbQ0gyXTUpKFtDSDNdKVtDSDNd

>  <s_epik_cmdline>  (24) 
J2VwaWtfcHl0aG9uJywgJy1waHQnLCAnMi4wJywgJy1waCcsICc3LjAnLCAnLXRuJywgJzgnLCAnLW1hJywgJzIwMCcsICctaW1hZScsICc8aW5maWxlLm1hZT4nLCAnLW9tYWUnLCAnPG91dGZpbGUubWFlPic=

>  <r_lp_tautomer_probability>  (24) 
1

>  <r_epik_Ionization_Penalty>  (24) 
1.11549e-06

>  <r_epik_Ionization_Penalty_Charging>  (24) 
0

>  <r_epik_Ionization_Penalty_Neutral>  (24) 
1.11549e-06

>  <r_epik_State_Penalty>  (24) 
-0

>  <r_epik_Charging_Adjusted_Penalty>  (24) 
0

>  <i_epik_Tot_Q>  (24) 
0

>  <i_epik_Tot_abs_Q>  (24) 
0

>  <s_lp_Force_Field>  (24) 
OPLS3e

>  <r_lp_Energy>  (24) 
81.3684

>  <b_lp_Chiralities_Consistent>  (24) 
1

>  <s_lp_Variant>  (24) 
6:0-1

>  <s_i_glide_gridfile>  (24) 
pfpi4k_grid

>  <i_i_glide_lignum>  (24) 
9

>  <i_i_glide_rotatable_bonds>  (24) 
5

>  <r_i_docking_score>  (24) 
-3.75083

>  <r_i_glide_ligand_efficiency>  (24) 
-0.117213

>  <r_i_glide_ligand_efficiency_sa>  (24) 
-0.372129

>  <r_i_glide_ligand_efficiency_ln>  (24) 
-0.839913

>  <r_i_glide_gscore>  (24) 
-3.75083

>  <r_i_glide_lipo>  (24) 
-0.295867

>  <r_i_glide_hbond>  (24) 
0

>  <r_i_glide_metal>  (24) 
-0

>  <r_i_glide_rewards>  (24) 
-1.01154

>  <r_i_glide_evdw>  (24) 
-28.5932

>  <r_i_glide_ecoul>  (24) 
-6.7584

>  <r_i_glide_erotb>  (24) 
0

>  <r_i_glide_esite>  (24) 
0

>  <r_i_glide_emodel>  (24) 
-49.4457

>  <r_i_glide_energy>  (24) 
-35.3516

>  <r_i_glide_einternal>  (24) 
1.96603

>  <r_i_glide_intrahb_reward>  (24) 
-0.5

>  <i_i_glide_confnum>  (24) 
1

>  <i_i_glide_posenum>  (24) 
1

>  <r_i_glide_eff_state_penalty>  (24) 
0

>  <ligand_id>  (24) 
6

>  <original_smiles>  (24) 
C=C1CC2(O)C(O)C3=C4CC(C)(C)CC(=O)C4CCC3(O)C3(C)C1CCC(C)(O)C2C3O

>  <smiles>  (24) 
[H]OC1([H])C2=C3C([H])([H])C(C([H])([H])[H])(C([H])([H])[H])C([H])([H])C(=O)C3([H])C([H])([H])C([H])([H])C2(O[H])C2(C([H])([H])[H])C([H])(O[H])C3([H])C1(O[H])C([H])([H])C(=C([H])[H])C2([H])C([H])([H])C([H])([H])C3(O[H])C([H])([H])[H]

$$$$
8:0:0
     RDKit          3D

 74 81  0  0  1  0  0  0  0  0999 V2000
    0.2310   -8.6506    8.4177 C   0  0  0  0  0  0  0  0  0  0  0  0
    0.8245   -8.2256    7.0784 C   0  0  0  0  0  0  0  0  0  0  0  0
    0.5548   -6.7423    6.9053 C   0  0  0  0  0  0  0  0  0  0  0  0
    2.0556   -9.0020    6.6026 C   0  0  2  0  0  0  0  0  0  0  0  0
    3.4155   -8.5990    5.9997 C   0  0  0  0  0  0  0  0  0  0  0  0
    3.6928   -7.7356    4.6831 C   0  0  1  0  0  0  0  0  0  0  0  0
    3.5941   -6.2882    5.1943 C   0  0  0  0  0  0  0  0  0  0  0  0
    5.1183   -8.1390    4.1077 C   0  0  2  0  0  0  0  0  0  0  0  0
    5.9521   -8.6874    5.1221 O   0  0  0  0  0  0  0  0  0  0  0  0
    6.0999   -7.0092    3.5718 C   0  0  0  0  0  0  0  0  0  0  0  0
    5.7096   -5.5728    3.1136 C   0  0  0  0  0  0  0  0  0  0  0  0
    4.9151   -5.2823    1.8182 C   0  0  2  0  0  0  0  0  0  0  0  0
    5.7911   -5.7253    0.6207 C   0  0  0  0  0  0  0  0  0  0  0  0
    4.8130   -3.7029    1.7250 C   0  0  1  0  0  0  0  0  0  0  0  0
    4.7035   -3.0462    0.3379 C   0  0  0  0  0  0  0  0  0  0  0  0
    3.5568   -2.3984   -0.2109 C   0  0  0  0  0  0  0  0  0  0  0  0
    3.9007   -1.9245   -1.4447 C   0  0  0  0  0  0  0  0  0  0  0  0
    5.1981   -2.2149   -1.7161 O   0  0  0  0  0  0  0  0  0  0  0  0
    5.6643   -2.8920   -0.6294 C   0  0  0  0  0  0  0  0  0  0  0  0
    3.8576   -3.1456    2.6251 O   0  0  0  0  0  0  0  0  0  0  0  0
    2.5986   -3.6234    2.7761 C   0  0  0  0  0  0  0  0  0  0  0  0
    1.7414   -3.0391    3.4370 O   0  0  0  0  0  0  0  0  0  0  0  0
    2.3016   -4.9732    2.1734 C   0  0  1  0  0  0  0  0  0  0  0  0
    2.6864   -5.2531    0.8180 O   0  0  0  0  0  0  0  0  0  0  0  0
    3.4740   -5.8705    1.8475 C   0  0  1  0  0  0  0  0  0  0  0  0
    3.2442   -7.4076    1.9830 C   0  0  1  0  0  0  0  0  0  0  0  0
    4.0771   -8.3019    0.9962 C   0  0  0  0  0  0  0  0  0  0  0  0
    5.0663   -9.2729    1.6640 C   0  0  1  0  0  0  0  0  0  0  0  0
    6.4162   -9.1277    1.2787 O   0  0  0  0  0  0  0  0  0  0  0  0
    4.7976   -9.3839    3.1726 C   0  0  2  0  0  0  0  0  0  0  0  0
    3.2615   -9.5603    3.2648 C   0  0  0  0  0  0  0  0  0  0  0  0
    2.8217   -8.0904    3.4099 C   0  0  1  0  0  0  0  0  0  0  0  0
    1.2802   -7.8941    3.6448 C   0  0  0  0  0  0  0  0  0  0  0  0
    0.4165   -8.8941    4.4632 C   0  0  1  0  0  0  0  0  0  0  0  0
    0.2587  -10.1049    3.7496 O   0  0  0  0  0  0  0  0  0  0  0  0
    0.7443   -9.2211    5.9132 C   0  0  2  0  0  0  0  0  0  0  0  0
    0.7223   -8.1329    9.2405 H   0  0  0  0  0  0  0  0  0  0  0  0
    0.3539   -9.7226    8.5735 H   0  0  0  0  0  0  0  0  0  0  0  0
   -0.8343   -8.4341    8.4615 H   0  0  0  0  0  0  0  0  0  0  0  0
    0.7762   -6.3902    5.9100 H   0  0  0  0  0  0  0  0  0  0  0  0
    1.1374   -6.1668    7.6259 H   0  0  0  0  0  0  0  0  0  0  0  0
   -0.5008   -6.5302    7.0760 H   0  0  0  0  0  0  0  0  0  0  0  0
    2.2784   -9.8159    7.2895 H   0  0  0  0  0  0  0  0  0  0  0  0
    3.9675   -8.1426    6.8216 H   0  0  0  0  0  0  0  0  0  0  0  0
    3.8947   -9.5715    5.9023 H   0  0  0  0  0  0  0  0  0  0  0  0
    3.3208   -5.5849    4.4288 H   0  0  0  0  0  0  0  0  0  0  0  0
    4.5262   -5.9764    5.6617 H   0  0  0  0  0  0  0  0  0  0  0  0
    2.8549   -6.1651    5.9725 H   0  0  0  0  0  0  0  0  0  0  0  0
    5.5176   -9.4430    5.4869 H   0  0  0  0  0  0  0  0  0  0  0  0
    6.7491   -6.7474    4.4111 H   0  0  0  0  0  0  0  0  0  0  0  0
    6.8291   -7.4164    2.8809 H   0  0  0  0  0  0  0  0  0  0  0  0
    5.3045   -4.9854    3.9298 H   0  0  0  0  0  0  0  0  0  0  0  0
    6.6771   -5.0848    2.9720 H   0  0  0  0  0  0  0  0  0  0  0  0
    5.2523   -5.6844   -0.3311 H   0  0  0  0  0  0  0  0  0  0  0  0
    6.2236   -6.7123    0.7343 H   0  0  0  0  0  0  0  0  0  0  0  0
    6.6686   -5.0808    0.5360 H   0  0  0  0  0  0  0  0  0  0  0  0
    5.7718   -3.3166    2.0716 H   0  0  0  0  0  0  0  0  0  0  0  0
    2.5852   -2.2695    0.2378 H   0  0  0  0  0  0  0  0  0  0  0  0
    3.3626   -1.3731   -2.1996 H   0  0  0  0  0  0  0  0  0  0  0  0
    6.7014   -3.1815   -0.7181 H   0  0  0  0  0  0  0  0  0  0  0  0
    1.3339   -5.3938    2.4172 H   0  0  0  0  0  0  0  0  0  0  0  0
    2.3107   -7.4751    1.4253 H   0  0  0  0  0  0  0  0  0  0  0  0
    3.3658   -8.9556    0.4833 H   0  0  0  0  0  0  0  0  0  0  0  0
    4.4894   -7.7725    0.1484 H   0  0  0  0  0  0  0  0  0  0  0  0
    4.8365  -10.2569    1.2539 H   0  0  0  0  0  0  0  0  0  0  0  0
    6.7773   -8.3542    1.6856 H   0  0  0  0  0  0  0  0  0  0  0  0
    5.2857  -10.2931    3.5250 H   0  0  0  0  0  0  0  0  0  0  0  0
    2.8154  -10.0597    2.4027 H   0  0  0  0  0  0  0  0  0  0  0  0
    2.9748  -10.1948    4.0984 H   0  0  0  0  0  0  0  0  0  0  0  0
    1.1272   -6.8829    3.9974 H   0  0  0  0  0  0  0  0  0  0  0  0
    0.7721   -7.8845    2.6797 H   0  0  0  0  0  0  0  0  0  0  0  0
   -0.5932   -8.4829    4.4873 H   0  0  0  0  0  0  0  0  0  0  0  0
   -0.4022  -10.6292    4.1933 H   0  0  0  0  0  0  0  0  0  0  0  0
    0.2273  -10.1342    6.2041 H   0  0  0  0  0  0  0  0  0  0  0  0
  1  2  1  0
  1 37  1  0
  1 38  1  0
  1 39  1  0
  2 36  1  0
  2  3  1  0
  2  4  1  0
  3 40  1  0
  3 41  1  0
  3 42  1  0
  4 36  1  0
  4  5  1  0
  4 43  1  1
  5  6  1  0
  5 44  1  0
  5 45  1  0
  6 32  1  0
  6  7  1  1
  6  8  1  0
  7 46  1  0
  7 47  1  0
  7 48  1  0
  8 30  1  0
  8  9  1  1
  8 10  1  0
  9 49  1  0
 10 11  1  0
 10 50  1  0
 10 51  1  0
 11 12  1  0
 11 52  1  0
 11 53  1  0
 12 25  1  0
 12 13  1  6
 12 14  1  0
 13 54  1  0
 13 55  1  0
 13 56  1  0
 14 15  1  0
 14 20  1  0
 14 57  1  1
 15 19  2  0
 15 16  1  0
 16 17  2  0
 16 58  1  0
 17 18  1  0
 17 59  1  0
 18 19  1  0
 19 60  1  0
 20 21  1  0
 21 22  2  0
 21 23  1  0
 23 25  1  0
 23 24  1  0
 23 61  1  6
 25 24  1  6
 25 26  1  0
 26 32  1  0
 26 27  1  0
 26 62  1  6
 27 28  1  0
 27 63  1  0
 27 64  1  0
 28 29  1  0
 28 30  1  0
 28 65  1  6
 29 66  1  0
 30 31  1  0
 30 67  1  1
 31 32  1  0
 31 68  1  0
 31 69  1  0
 32 33  1  1
 33 34  1  0
 33 70  1  0
 33 71  1  0
 34 35  1  0
 34 36  1  0
 34 72  1  1
 35 73  1  0
 36 74  1  1
M  END
>  <i_m_ct_stereo_status>  (25) 
1

>  <s_m_source_file>  (25) 
/var/tmp/pbs.5076255.sched01/tmpcyubysk0/0_f5co88n.sdf

>  <i_m_source_file_index>  (25) 
11

>  <i_lp_mmshare_version>  (25) 
48012

>  <i_f3d_flags>  (25) 
0

>  <s_epik_input>  (25) 
W0NIM11DMShbQ0gzXSlbQ0BIXShbQ0gyXTIpW0NAQEhdMVtDQEhdKFtPSF0pW0NIMl1bQ0BAXTMoW0NAQEhdNFtDSDJdW0NAQEhdKFtPSF0pW0NAQEhdNVtDSDJdMylbQ0BdMihbQ0gzXSlbQ0BdNShbT0hdKVtDSDJdW0NIMl1bQ0BdKFtDQEBdNDY3KShbQ0gzXSlbQ0BIXShPQyg9TylbQ0BIXTZPNyljOFtjSF1bY0hdb1tjSF04

>  <s_epik_cmdline>  (25) 
J2VwaWtfcHl0aG9uJywgJy1waHQnLCAnMi4wJywgJy1waCcsICc3LjAnLCAnLXRuJywgJzgnLCAnLW1hJywgJzIwMCcsICctaW1hZScsICc8aW5maWxlLm1hZT4nLCAnLW9tYWUnLCAnPG91dGZpbGUubWFlPic=

>  <r_lp_tautomer_probability>  (25) 
1

>  <r_epik_Ionization_Penalty>  (25) 
3.1069e-06

>  <r_epik_Ionization_Penalty_Charging>  (25) 
0

>  <r_epik_Ionization_Penalty_Neutral>  (25) 
3.1069e-06

>  <r_epik_State_Penalty>  (25) 
-0

>  <r_epik_Charging_Adjusted_Penalty>  (25) 
0

>  <i_epik_Tot_Q>  (25) 
0

>  <i_epik_Tot_abs_Q>  (25) 
0

>  <s_epik_Chemistry_Notes>  (25) 
This compound has an ester and may undergo hydrolysis at high or low pH.

>  <s_lp_Force_Field>  (25) 
OPLS3e

>  <r_lp_Energy>  (25) 
160.799

>  <b_lp_Chiralities_Consistent>  (25) 
1

>  <s_lp_Variant>  (25) 
8:0-1

>  <s_i_glide_gridfile>  (25) 
pfpi4k_grid

>  <i_i_glide_lignum>  (25) 
11

>  <i_i_glide_rotatable_bonds>  (25) 
4

>  <r_i_docking_score>  (25) 
-2.28012

>  <r_i_glide_ligand_efficiency>  (25) 
-0.0633366

>  <r_i_glide_ligand_efficiency_sa>  (25) 
-0.209133

>  <r_i_glide_ligand_efficiency_ln>  (25) 
-0.49746

>  <r_i_glide_gscore>  (25) 
-2.28012

>  <r_i_glide_lipo>  (25) 
-0.230382

>  <r_i_glide_hbond>  (25) 
-0.151863

>  <r_i_glide_metal>  (25) 
-0

>  <r_i_glide_rewards>  (25) 
-0.00949214

>  <r_i_glide_evdw>  (25) 
-32.6422

>  <r_i_glide_ecoul>  (25) 
-2.24349

>  <r_i_glide_erotb>  (25) 
0.0820852

>  <r_i_glide_esite>  (25) 
-0.00182968

>  <r_i_glide_emodel>  (25) 
-39.6793

>  <r_i_glide_energy>  (25) 
-34.8857

>  <r_i_glide_einternal>  (25) 
0.696915

>  <r_i_glide_intrahb_reward>  (25) 
-0

>  <i_i_glide_confnum>  (25) 
3

>  <i_i_glide_posenum>  (25) 
1

>  <r_i_glide_eff_state_penalty>  (25) 
0

>  <ligand_id>  (25) 
8

>  <original_smiles>  (25) 
CC1(C)C2CC3(C)C4(O)CCC5(C)C(c6ccoc6)OC(=O)C6OC65C5CC(O)C4CC53CC(O)C21

>  <smiles>  (25) 
[H]OC1([H])C([H])([H])C2([H])C34OC3([H])C(=O)OC([H])(c3c([H])oc([H])c3[H])C4(C([H])([H])[H])C([H])([H])C([H])([H])C3(O[H])C1([H])C([H])([H])C21C([H])([H])C([H])(O[H])C2([H])C([H])(C([H])([H])C31C([H])([H])[H])C2(C([H])([H])[H])C([H])([H])[H]

$$$$
8:0:1
     RDKit          3D

 74 81  0  0  1  0  0  0  0  0999 V2000
    0.2690   -8.6293    8.5582 C   0  0  0  0  0  0  0  0  0  0  0  0
    0.8390   -8.2020    7.2117 C   0  0  0  0  0  0  0  0  0  0  0  0
    0.5866   -6.7154    7.0548 C   0  0  0  0  0  0  0  0  0  0  0  0
    2.0465   -8.9943    6.7028 C   0  0  2  0  0  0  0  0  0  0  0  0
    3.3976   -8.6106    6.0701 C   0  0  0  0  0  0  0  0  0  0  0  0
    3.6589   -7.7418    4.7535 C   0  0  1  0  0  0  0  0  0  0  0  0
    3.5951   -6.2972    5.2771 C   0  0  0  0  0  0  0  0  0  0  0  0
    5.0638   -8.1648    4.1432 C   0  0  2  0  0  0  0  0  0  0  0  0
    5.9112   -8.7361    5.1341 O   0  0  0  0  0  0  0  0  0  0  0  0
    6.0496   -7.0481    3.5897 C   0  0  0  0  0  0  0  0  0  0  0  0
    5.6734   -5.6016    3.1524 C   0  0  0  0  0  0  0  0  0  0  0  0
    4.8552   -5.2891    1.8773 C   0  0  2  0  0  0  0  0  0  0  0  0
    5.6958   -5.7394    0.6573 C   0  0  0  0  0  0  0  0  0  0  0  0
    4.7759   -3.7070    1.7989 C   0  0  1  0  0  0  0  0  0  0  0  0
    4.6451   -3.0395    0.4193 C   0  0  0  0  0  0  0  0  0  0  0  0
    3.4933   -2.3789   -0.1041 C   0  0  0  0  0  0  0  0  0  0  0  0
    3.8184   -1.8980   -1.3395 C   0  0  0  0  0  0  0  0  0  0  0  0
    5.1090   -2.1958   -1.6375 O   0  0  0  0  0  0  0  0  0  0  0  0
    5.5893   -2.8859   -0.5647 C   0  0  0  0  0  0  0  0  0  0  0  0
    3.8491   -3.1406    2.7240 O   0  0  0  0  0  0  0  0  0  0  0  0
    2.5866   -3.6007    2.8994 C   0  0  0  0  0  0  0  0  0  0  0  0
    1.7528   -3.0055    3.5824 O   0  0  0  0  0  0  0  0  0  0  0  0
    2.2547   -4.9413    2.2954 C   0  0  1  0  0  0  0  0  0  0  0  0
    2.6021   -5.2170    0.9288 O   0  0  0  0  0  0  0  0  0  0  0  0
    3.4050   -5.8536    1.9345 C   0  0  1  0  0  0  0  0  0  0  0  0
    3.1537   -7.3876    2.0670 C   0  0  1  0  0  0  0  0  0  0  0  0
    3.9475   -8.2895    1.0562 C   0  0  0  0  0  0  0  0  0  0  0  0
    4.9320   -9.2855    1.6956 C   0  0  1  0  0  0  0  0  0  0  0  0
    6.2740   -9.1621    1.2888 O   0  0  0  0  0  0  0  0  0  0  0  0
    4.6982   -9.3977    3.2091 C   0  0  2  0  0  0  0  0  0  0  0  0
    3.1640   -9.5487    3.3339 C   0  0  0  0  0  0  0  0  0  0  0  0
    2.7538   -8.0718    3.4985 C   0  0  1  0  0  0  0  0  0  0  0  0
    1.2233   -7.8516    3.7708 C   0  0  0  0  0  0  0  0  0  0  0  0
    0.3681   -8.8464    4.6014 C   0  0  1  0  0  0  0  0  0  0  0  0
    0.2149  -10.0597    3.8949 O   0  0  0  0  0  0  0  0  0  0  0  0
    0.7162   -9.1859    6.0423 C   0  0  2  0  0  0  0  0  0  0  0  0
    0.7854   -8.1253    9.3739 H   0  0  0  0  0  0  0  0  0  0  0  0
    0.3793   -9.7038    8.7045 H   0  0  0  0  0  0  0  0  0  0  0  0
   -0.7919   -8.3976    8.6194 H   0  0  0  0  0  0  0  0  0  0  0  0
    0.7916   -6.3602    6.0566 H   0  0  0  0  0  0  0  0  0  0  0  0
    1.1950   -6.1550    7.7657 H   0  0  0  0  0  0  0  0  0  0  0  0
   -0.4618   -6.4896    7.2508 H   0  0  0  0  0  0  0  0  0  0  0  0
    2.2702   -9.8187    7.3768 H   0  0  0  0  0  0  0  0  0  0  0  0
    3.9753   -8.1696    6.8820 H   0  0  0  0  0  0  0  0  0  0  0  0
    3.8580   -9.5902    5.9551 H   0  0  0  0  0  0  0  0  0  0  0  0
    3.3159   -5.5842    4.5227 H   0  0  0  0  0  0  0  0  0  0  0  0
    4.5426   -6.0039    5.7251 H   0  0  0  0  0  0  0  0  0  0  0  0
    2.8752   -6.1686    6.0724 H   0  0  0  0  0  0  0  0  0  0  0  0
    5.4689   -9.4851    5.5040 H   0  0  0  0  0  0  0  0  0  0  0  0
    6.7274   -6.8066    4.4117 H   0  0  0  0  0  0  0  0  0  0  0  0
    6.7470   -7.4640    2.8703 H   0  0  0  0  0  0  0  0  0  0  0  0
    5.2968   -5.0139    3.9818 H   0  0  0  0  0  0  0  0  0  0  0  0
    6.6458   -5.1290    2.9918 H   0  0  0  0  0  0  0  0  0  0  0  0
    5.1373   -5.6834   -0.2824 H   0  0  0  0  0  0  0  0  0  0  0  0
    6.1131   -6.7359    0.7586 H   0  0  0  0  0  0  0  0  0  0  0  0
    6.5820   -5.1095    0.5570 H   0  0  0  0  0  0  0  0  0  0  0  0
    5.7493   -3.3394    2.1240 H   0  0  0  0  0  0  0  0  0  0  0  0
    2.5305   -2.2462    0.3633 H   0  0  0  0  0  0  0  0  0  0  0  0
    3.2707   -1.3360   -2.0799 H   0  0  0  0  0  0  0  0  0  0  0  0
    6.6226   -3.1826   -0.6725 H   0  0  0  0  0  0  0  0  0  0  0  0
    1.2855   -5.3467    2.5596 H   0  0  0  0  0  0  0  0  0  0  0  0
    2.2069   -7.4369    1.5294 H   0  0  0  0  0  0  0  0  0  0  0  0
    3.2163   -8.9291    0.5535 H   0  0  0  0  0  0  0  0  0  0  0  0
    4.3561   -7.7607    0.2055 H   0  0  0  0  0  0  0  0  0  0  0  0
    4.6748  -10.2593    1.2805 H   0  0  0  0  0  0  0  0  0  0  0  0
    6.7530   -9.8861    1.6628 H   0  0  0  0  0  0  0  0  0  0  0  0
    5.1786  -10.3164    3.5456 H   0  0  0  0  0  0  0  0  0  0  0  0
    2.6912  -10.0340    2.4783 H   0  0  0  0  0  0  0  0  0  0  0  0
    2.8885  -10.1851    4.1694 H   0  0  0  0  0  0  0  0  0  0  0  0
    1.0919   -6.8404    4.1330 H   0  0  0  0  0  0  0  0  0  0  0  0
    0.6926   -7.8303    2.8180 H   0  0  0  0  0  0  0  0  0  0  0  0
   -0.6408   -8.4309    4.6437 H   0  0  0  0  0  0  0  0  0  0  0  0
   -0.4721  -10.5617    4.3172 H   0  0  0  0  0  0  0  0  0  0  0  0
    0.1915  -10.0938    6.3364 H   0  0  0  0  0  0  0  0  0  0  0  0
  1  2  1  0
  1 37  1  0
  1 38  1  0
  1 39  1  0
  2 36  1  0
  2  3  1  0
  2  4  1  0
  3 40  1  0
  3 41  1  0
  3 42  1  0
  4 36  1  0
  4  5  1  0
  4 43  1  1
  5  6  1  0
  5 44  1  0
  5 45  1  0
  6 32  1  0
  6  7  1  1
  6  8  1  0
  7 46  1  0
  7 47  1  0
  7 48  1  0
  8 30  1  0
  8  9  1  1
  8 10  1  0
  9 49  1  0
 10 11  1  0
 10 50  1  0
 10 51  1  0
 11 12  1  0
 11 52  1  0
 11 53  1  0
 12 25  1  0
 12 13  1  6
 12 14  1  0
 13 54  1  0
 13 55  1  0
 13 56  1  0
 14 15  1  0
 14 20  1  0
 14 57  1  1
 15 19  2  0
 15 16  1  0
 16 17  2  0
 16 58  1  0
 17 18  1  0
 17 59  1  0
 18 19  1  0
 19 60  1  0
 20 21  1  0
 21 22  2  0
 21 23  1  0
 23 25  1  0
 23 24  1  0
 23 61  1  1
 25 24  1  6
 25 26  1  0
 26 32  1  0
 26 27  1  0
 26 62  1  6
 27 28  1  0
 27 63  1  0
 27 64  1  0
 28 29  1  0
 28 30  1  0
 28 65  1  6
 29 66  1  0
 30 31  1  0
 30 67  1  1
 31 32  1  0
 31 68  1  0
 31 69  1  0
 32 33  1  1
 33 34  1  0
 33 70  1  0
 33 71  1  0
 34 35  1  0
 34 36  1  0
 34 72  1  1
 35 73  1  0
 36 74  1  1
M  END
>  <i_m_ct_stereo_status>  (26) 
1

>  <s_m_source_file>  (26) 
/var/tmp/pbs.5076255.sched01/tmpcyubysk0/0_f5co88n.sdf

>  <i_m_source_file_index>  (26) 
11

>  <i_lp_mmshare_version>  (26) 
48012

>  <i_f3d_flags>  (26) 
0

>  <s_epik_input>  (26) 
W0NIM11DMShbQ0gzXSlbQ0BIXShbQ0gyXTIpW0NAQEhdMVtDQEhdKFtPSF0pW0NIMl1bQ0BAXTMoW0NAQEhdNFtDSDJdW0NAQEhdKFtPSF0pW0NAQEhdNVtDSDJdMylbQ0BdMihbQ0gzXSlbQ0BdNShbT0hdKVtDSDJdW0NIMl1bQ0BdKFtDQEBdNDY3KShbQ0gzXSlbQ0BIXShPQyg9TylbQ0BIXTZPNyljOFtjSF1bY0hdb1tjSF04

>  <s_epik_cmdline>  (26) 
J2VwaWtfcHl0aG9uJywgJy1waHQnLCAnMi4wJywgJy1waCcsICc3LjAnLCAnLXRuJywgJzgnLCAnLW1hJywgJzIwMCcsICctaW1hZScsICc8aW5maWxlLm1hZT4nLCAnLW9tYWUnLCAnPG91dGZpbGUubWFlPic=

>  <r_lp_tautomer_probability>  (26) 
1

>  <r_epik_Ionization_Penalty>  (26) 
3.1069e-06

>  <r_epik_Ionization_Penalty_Charging>  (26) 
0

>  <r_epik_Ionization_Penalty_Neutral>  (26) 
3.1069e-06

>  <r_epik_State_Penalty>  (26) 
-0

>  <r_epik_Charging_Adjusted_Penalty>  (26) 
0

>  <i_epik_Tot_Q>  (26) 
0

>  <i_epik_Tot_abs_Q>  (26) 
0

>  <s_epik_Chemistry_Notes>  (26) 
This compound has an ester and may undergo hydrolysis at high or low pH.

>  <s_lp_Force_Field>  (26) 
OPLS3e

>  <r_lp_Energy>  (26) 
160.799

>  <b_lp_Chiralities_Consistent>  (26) 
1

>  <s_lp_Variant>  (26) 
8:0-1

>  <s_i_glide_gridfile>  (26) 
pfpi4k_grid

>  <i_i_glide_lignum>  (26) 
11

>  <i_i_glide_rotatable_bonds>  (26) 
4

>  <r_i_docking_score>  (26) 
-2.22316

>  <r_i_glide_ligand_efficiency>  (26) 
-0.0617546

>  <r_i_glide_ligand_efficiency_sa>  (26) 
-0.203909

>  <r_i_glide_ligand_efficiency_ln>  (26) 
-0.485034

>  <r_i_glide_gscore>  (26) 
-2.22316

>  <r_i_glide_lipo>  (26) 
-0.216217

>  <r_i_glide_hbond>  (26) 
-0.16

>  <r_i_glide_metal>  (26) 
-0

>  <r_i_glide_rewards>  (26) 
-0.00949214

>  <r_i_glide_evdw>  (26) 
-31.7218

>  <r_i_glide_ecoul>  (26) 
-2.21407

>  <r_i_glide_erotb>  (26) 
0.0820852

>  <r_i_glide_esite>  (26) 
-0.0013418

>  <r_i_glide_emodel>  (26) 
-38.4515

>  <r_i_glide_energy>  (26) 
-33.9358

>  <r_i_glide_einternal>  (26) 
1.01126

>  <r_i_glide_intrahb_reward>  (26) 
-0

>  <i_i_glide_confnum>  (26) 
3

>  <i_i_glide_posenum>  (26) 
15

>  <r_i_glide_eff_state_penalty>  (26) 
0

>  <ligand_id>  (26) 
8

>  <original_smiles>  (26) 
CC1(C)C2CC3(C)C4(O)CCC5(C)C(c6ccoc6)OC(=O)C6OC65C5CC(O)C4CC53CC(O)C21

>  <smiles>  (26) 
[H]OC1([H])C([H])([H])C2([H])C34OC3([H])C(=O)OC([H])(c3c([H])oc([H])c3[H])C4(C([H])([H])[H])C([H])([H])C([H])([H])C3(O[H])C1([H])C([H])([H])C21C([H])([H])C([H])(O[H])C2([H])C([H])(C([H])([H])C31C([H])([H])[H])C2(C([H])([H])[H])C([H])([H])[H]

$$$$
8:0:2
     RDKit          3D

 74 81  0  0  1  0  0  0  0  0999 V2000
    0.2310   -9.0231    8.0429 C   0  0  0  0  0  0  0  0  0  0  0  0
    0.8636   -8.5434    6.7391 C   0  0  0  0  0  0  0  0  0  0  0  0
    0.5338   -7.0709    6.5740 C   0  0  0  0  0  0  0  0  0  0  0  0
    2.1565   -9.2469    6.3149 C   0  0  2  0  0  0  0  0  0  0  0  0
    3.5213   -8.7626    5.7870 C   0  0  0  0  0  0  0  0  0  0  0  0
    3.8158   -7.8628    4.4998 C   0  0  1  0  0  0  0  0  0  0  0  0
    3.6169   -6.4313    5.0264 C   0  0  0  0  0  0  0  0  0  0  0  0
    5.2855   -8.1822    3.9888 C   0  0  2  0  0  0  0  0  0  0  0  0
    6.0995   -8.7062    5.0329 O   0  0  0  0  0  0  0  0  0  0  0  0
    6.2294   -6.9934    3.5188 C   0  0  0  0  0  0  0  0  0  0  0  0
    5.7866   -5.5733    3.0647 C   0  0  0  0  0  0  0  0  0  0  0  0
    5.0433   -5.2982    1.7371 C   0  0  2  0  0  0  0  0  0  0  0  0
    5.9998   -5.6740    0.5796 C   0  0  0  0  0  0  0  0  0  0  0  0
    4.8638   -3.7247    1.6619 C   0  0  1  0  0  0  0  0  0  0  0  0
    4.7856   -3.0486    0.2810 C   0  0  0  0  0  0  0  0  0  0  0  0
    3.6371   -2.4407   -0.3089 C   0  0  0  0  0  0  0  0  0  0  0  0
    4.0152   -1.9305   -1.5184 C   0  0  0  0  0  0  0  0  0  0  0  0
    5.3347   -2.1608   -1.7355 O   0  0  0  0  0  0  0  0  0  0  0  0
    5.7809   -2.8361   -0.6395 C   0  0  0  0  0  0  0  0  0  0  0  0
    3.8384   -3.2333    2.5224 O   0  0  0  0  0  0  0  0  0  0  0  0
    2.6025   -3.7790    2.6051 C   0  0  0  0  0  0  0  0  0  0  0  0
    1.6861   -3.2532    3.2365 O   0  0  0  0  0  0  0  0  0  0  0  0
    2.4049   -5.1307    1.9650 C   0  0  1  0  0  0  0  0  0  0  0  0
    2.8692   -5.3660    0.6258 O   0  0  0  0  0  0  0  0  0  0  0  0
    3.6356   -5.9604    1.6849 C   0  0  1  0  0  0  0  0  0  0  0  0
    3.4779   -7.5088    1.7885 C   0  0  1  0  0  0  0  0  0  0  0  0
    4.4001   -8.3420    0.8321 C   0  0  0  0  0  0  0  0  0  0  0  0
    5.3998   -9.2803    1.5321 C   0  0  1  0  0  0  0  0  0  0  0  0
    6.7533   -9.0425    1.2463 O   0  0  0  0  0  0  0  0  0  0  0  0
    5.0714   -9.4265    3.0231 C   0  0  2  0  0  0  0  0  0  0  0  0
    3.5481   -9.6824    3.0350 C   0  0  0  0  0  0  0  0  0  0  0  0
    3.0275   -8.2385    3.1807 C   0  0  1  0  0  0  0  0  0  0  0  0
    1.4699   -8.1235    3.3414 C   0  0  0  0  0  0  0  0  0  0  0  0
    0.6278   -9.1853    4.0951 C   0  0  1  0  0  0  0  0  0  0  0  0
    0.6190  -10.3851    3.3480 O   0  0  0  0  0  0  0  0  0  0  0  0
    0.8941   -9.5201    5.5561 C   0  0  2  0  0  0  0  0  0  0  0  0
    0.6587   -8.4995    8.8965 H   0  0  0  0  0  0  0  0  0  0  0  0
    0.3998  -10.0909    8.1857 H   0  0  0  0  0  0  0  0  0  0  0  0
   -0.8451   -8.8632    8.0438 H   0  0  0  0  0  0  0  0  0  0  0  0
    0.7878   -6.6927    5.5968 H   0  0  0  0  0  0  0  0  0  0  0  0
    1.0473   -6.4816    7.3343 H   0  0  0  0  0  0  0  0  0  0  0  0
   -0.5358   -6.9043    6.6825 H   0  0  0  0  0  0  0  0  0  0  0  0
    2.3886  -10.0598    7.0001 H   0  0  0  0  0  0  0  0  0  0  0  0
    4.0076   -8.2921    6.6417 H   0  0  0  0  0  0  0  0  0  0  0  0
    4.0570   -9.7062    5.6995 H   0  0  0  0  0  0  0  0  0  0  0  0
    3.3437   -5.7298    4.2591 H   0  0  0  0  0  0  0  0  0  0  0  0
    4.5072   -6.0791    5.5442 H   0  0  0  0  0  0  0  0  0  0  0  0
    2.8361   -6.3611    5.7688 H   0  0  0  0  0  0  0  0  0  0  0  0
    5.6754   -9.4745    5.3830 H   0  0  0  0  0  0  0  0  0  0  0  0
    6.8284   -6.7152    4.3891 H   0  0  0  0  0  0  0  0  0  0  0  0
    7.0084   -7.3455    2.8523 H   0  0  0  0  0  0  0  0  0  0  0  0
    5.3177   -5.0177    3.8691 H   0  0  0  0  0  0  0  0  0  0  0  0
    6.7387   -5.0482    2.9718 H   0  0  0  0  0  0  0  0  0  0  0  0
    5.5038   -5.6428   -0.3950 H   0  0  0  0  0  0  0  0  0  0  0  0
    6.4762   -6.6415    0.6996 H   0  0  0  0  0  0  0  0  0  0  0  0
    6.8463   -4.9851    0.5486 H   0  0  0  0  0  0  0  0  0  0  0  0
    5.7834   -3.2958    2.0609 H   0  0  0  0  0  0  0  0  0  0  0  0
    2.6407   -2.3608    0.0967 H   0  0  0  0  0  0  0  0  0  0  0  0
    3.4901   -1.3885   -2.2888 H   0  0  0  0  0  0  0  0  0  0  0  0
    6.8326   -3.0786   -0.6854 H   0  0  0  0  0  0  0  0  0  0  0  0
    1.4494   -5.6062    2.1532 H   0  0  0  0  0  0  0  0  0  0  0  0
    2.5775   -7.6143    1.1851 H   0  0  0  0  0  0  0  0  0  0  0  0
    3.7569   -9.0168    0.2619 H   0  0  0  0  0  0  0  0  0  0  0  0
    4.8304   -7.7673    0.0249 H   0  0  0  0  0  0  0  0  0  0  0  0
    5.2525  -10.2581    1.0827 H   0  0  0  0  0  0  0  0  0  0  0  0
    7.2680   -9.6891    1.7025 H   0  0  0  0  0  0  0  0  0  0  0  0
    5.5907  -10.3132    3.3853 H   0  0  0  0  0  0  0  0  0  0  0  0
    3.1765  -10.1881    2.1413 H   0  0  0  0  0  0  0  0  0  0  0  0
    3.2668  -10.3476    3.8451 H   0  0  0  0  0  0  0  0  0  0  0  0
    1.2445   -7.1287    3.6995 H   0  0  0  0  0  0  0  0  0  0  0  0
    1.0086   -8.1254    2.3526 H   0  0  0  0  0  0  0  0  0  0  0  0
   -0.4090   -8.8435    4.0679 H   0  0  0  0  0  0  0  0  0  0  0  0
    1.4372  -10.8397    3.4882 H   0  0  0  0  0  0  0  0  0  0  0  0
    0.4067  -10.4622    5.8043 H   0  0  0  0  0  0  0  0  0  0  0  0
  1  2  1  0
  1 37  1  0
  1 38  1  0
  1 39  1  0
  2 36  1  0
  2  3  1  0
  2  4  1  0
  3 40  1  0
  3 41  1  0
  3 42  1  0
  4 36  1  0
  4  5  1  0
  4 43  1  1
  5  6  1  0
  5 44  1  0
  5 45  1  0
  6 32  1  0
  6  7  1  1
  6  8  1  0
  7 46  1  0
  7 47  1  0
  7 48  1  0
  8 30  1  0
  8  9  1  1
  8 10  1  0
  9 49  1  0
 10 11  1  0
 10 50  1  0
 10 51  1  0
 11 12  1  0
 11 52  1  0
 11 53  1  0
 12 25  1  0
 12 13  1  6
 12 14  1  0
 13 54  1  0
 13 55  1  0
 13 56  1  0
 14 15  1  0
 14 20  1  0
 14 57  1  1
 15 19  2  0
 15 16  1  0
 16 17  2  0
 16 58  1  0
 17 18  1  0
 17 59  1  0
 18 19  1  0
 19 60  1  0
 20 21  1  0
 21 22  2  0
 21 23  1  0
 23 25  1  0
 23 24  1  0
 23 61  1  6
 25 24  1  6
 25 26  1  0
 26 32  1  0
 26 27  1  0
 26 62  1  6
 27 28  1  0
 27 63  1  0
 27 64  1  0
 28 29  1  0
 28 30  1  0
 28 65  1  6
 29 66  1  0
 30 31  1  0
 30 67  1  1
 31 32  1  0
 31 68  1  0
 31 69  1  0
 32 33  1  1
 33 34  1  0
 33 70  1  0
 33 71  1  0
 34 35  1  0
 34 36  1  0
 34 72  1  1
 35 73  1  0
 36 74  1  1
M  END
>  <i_m_ct_stereo_status>  (27) 
1

>  <s_m_source_file>  (27) 
/var/tmp/pbs.5076255.sched01/tmpcyubysk0/0_f5co88n.sdf

>  <i_m_source_file_index>  (27) 
11

>  <i_lp_mmshare_version>  (27) 
48012

>  <i_f3d_flags>  (27) 
0

>  <s_epik_input>  (27) 
W0NIM11DMShbQ0gzXSlbQ0BIXShbQ0gyXTIpW0NAQEhdMVtDQEhdKFtPSF0pW0NIMl1bQ0BAXTMoW0NAQEhdNFtDSDJdW0NAQEhdKFtPSF0pW0NAQEhdNVtDSDJdMylbQ0BdMihbQ0gzXSlbQ0BdNShbT0hdKVtDSDJdW0NIMl1bQ0BdKFtDQEBdNDY3KShbQ0gzXSlbQ0BIXShPQyg9TylbQ0BIXTZPNyljOFtjSF1bY0hdb1tjSF04

>  <s_epik_cmdline>  (27) 
J2VwaWtfcHl0aG9uJywgJy1waHQnLCAnMi4wJywgJy1waCcsICc3LjAnLCAnLXRuJywgJzgnLCAnLW1hJywgJzIwMCcsICctaW1hZScsICc8aW5maWxlLm1hZT4nLCAnLW9tYWUnLCAnPG91dGZpbGUubWFlPic=

>  <r_lp_tautomer_probability>  (27) 
1

>  <r_epik_Ionization_Penalty>  (27) 
3.1069e-06

>  <r_epik_Ionization_Penalty_Charging>  (27) 
0

>  <r_epik_Ionization_Penalty_Neutral>  (27) 
3.1069e-06

>  <r_epik_State_Penalty>  (27) 
-0

>  <r_epik_Charging_Adjusted_Penalty>  (27) 
0

>  <i_epik_Tot_Q>  (27) 
0

>  <i_epik_Tot_abs_Q>  (27) 
0

>  <s_epik_Chemistry_Notes>  (27) 
This compound has an ester and may undergo hydrolysis at high or low pH.

>  <s_lp_Force_Field>  (27) 
OPLS3e

>  <r_lp_Energy>  (27) 
160.799

>  <b_lp_Chiralities_Consistent>  (27) 
1

>  <s_lp_Variant>  (27) 
8:0-1

>  <s_i_glide_gridfile>  (27) 
pfpi4k_grid

>  <i_i_glide_lignum>  (27) 
11

>  <i_i_glide_rotatable_bonds>  (27) 
4

>  <r_i_docking_score>  (27) 
-1.7772

>  <r_i_glide_ligand_efficiency>  (27) 
-0.0493666

>  <r_i_glide_ligand_efficiency_sa>  (27) 
-0.163005

>  <r_i_glide_ligand_efficiency_ln>  (27) 
-0.387736

>  <r_i_glide_gscore>  (27) 
-1.7772

>  <r_i_glide_lipo>  (27) 
-0.249755

>  <r_i_glide_hbond>  (27) 
0

>  <r_i_glide_metal>  (27) 
-0

>  <r_i_glide_rewards>  (27) 
-0.00949214

>  <r_i_glide_evdw>  (27) 
-33.1133

>  <r_i_glide_ecoul>  (27) 
0.390292

>  <r_i_glide_erotb>  (27) 
0.0820852

>  <r_i_glide_esite>  (27) 
-0.00291246

>  <r_i_glide_emodel>  (27) 
-36.231

>  <r_i_glide_energy>  (27) 
-32.723

>  <r_i_glide_einternal>  (27) 
0.79916

>  <r_i_glide_intrahb_reward>  (27) 
-0

>  <i_i_glide_confnum>  (27) 
3

>  <i_i_glide_posenum>  (27) 
38

>  <r_i_glide_eff_state_penalty>  (27) 
0

>  <ligand_id>  (27) 
8

>  <original_smiles>  (27) 
CC1(C)C2CC3(C)C4(O)CCC5(C)C(c6ccoc6)OC(=O)C6OC65C5CC(O)C4CC53CC(O)C21

>  <smiles>  (27) 
[H]OC1([H])C([H])([H])C2([H])C34OC3([H])C(=O)OC([H])(c3c([H])oc([H])c3[H])C4(C([H])([H])[H])C([H])([H])C([H])([H])C3(O[H])C1([H])C([H])([H])C21C([H])([H])C([H])(O[H])C2([H])C([H])(C([H])([H])C31C([H])([H])[H])C2(C([H])([H])[H])C([H])([H])[H]

$$$$
9:0:0
     RDKit          3D

 28 34  0  0  1  0  0  0  0  0999 V2000
    4.2003   -1.8854   -3.7234 O   0  0  0  0  0  0  0  0  0  0  0  0
    4.0452   -2.9826   -2.8529 C   0  0  2  0  0  0  0  0  0  0  0  0
    3.2270   -2.6701   -1.6228 C   0  0  1  0  0  0  0  0  0  0  0  0
    3.5636   -3.7739   -0.6314 C   0  0  1  0  0  0  0  0  0  0  0  0
    4.9258   -4.3620   -0.9981 C   0  0  1  0  0  0  0  0  0  0  0  0
    5.3600   -3.4821   -2.2251 C   0  0  2  0  0  0  0  0  0  0  0  0
    6.1547   -2.3360   -1.5665 C   0  0  1  0  0  0  0  0  0  0  0  0
    5.3144   -1.3221   -0.7309 C   0  0  1  0  0  0  0  0  0  0  0  0
    3.8164   -1.6807   -0.6016 C   0  0  2  0  0  0  0  0  0  0  0  0
    3.7026   -2.7598    0.4917 C   0  0  2  0  0  0  0  0  0  0  0  0
    5.0850   -2.9606    1.1054 C   0  0  1  0  0  0  0  0  0  0  0  0
    5.8193   -3.9788    0.1995 C   0  0  2  0  0  0  0  0  0  0  0  0
    6.7320   -2.8723   -0.2763 C   0  0  2  0  0  0  0  0  0  0  0  0
    5.9674   -1.8602    0.5356 C   0  0  1  0  0  0  0  0  0  0  0  0
    3.3493   -1.4955   -3.8319 H   0  0  0  0  0  0  0  0  0  0  0  0
    3.5846   -3.7920   -3.4108 H   0  0  0  0  0  0  0  0  0  0  0  0
    2.1612   -2.5512   -1.7616 H   0  0  0  0  0  0  0  0  0  0  0  0
    2.7458   -4.4686   -0.4696 H   0  0  0  0  0  0  0  0  0  0  0  0
    4.8818   -5.4303   -1.2025 H   0  0  0  0  0  0  0  0  0  0  0  0
    5.9873   -4.0262   -2.9303 H   0  0  0  0  0  0  0  0  0  0  0  0
    6.9068   -1.8585   -2.1818 H   0  0  0  0  0  0  0  0  0  0  0  0
    5.5429   -0.2764   -0.9338 H   0  0  0  0  0  0  0  0  0  0  0  0
    3.1617   -0.8390   -0.3875 H   0  0  0  0  0  0  0  0  0  0  0  0
    2.8366   -2.6515    1.1483 H   0  0  0  0  0  0  0  0  0  0  0  0
    5.1820   -3.1492    2.1758 H   0  0  0  0  0  0  0  0  0  0  0  0
    6.3274   -4.7704    0.7458 H   0  0  0  0  0  0  0  0  0  0  0  0
    7.8099   -2.9247   -0.1105 H   0  0  0  0  0  0  0  0  0  0  0  0
    6.5531   -1.2139    1.1891 H   0  0  0  0  0  0  0  0  0  0  0  0
  1  2  1  0
  1 15  1  0
  2  6  1  0
  2  3  1  0
  2 16  1  6
  3  9  1  0
  3  4  1  0
  3 17  1  6
  4 10  1  0
  4  5  1  0
  4 18  1  1
  5 12  1  0
  5  6  1  0
  5 19  1  6
  6  7  1  0
  6 20  1  6
  7 13  1  0
  7  8  1  0
  7 21  1  6
  8 14  1  0
  8  9  1  0
  8 22  1  6
  9 10  1  0
  9 23  1  1
 10 11  1  0
 10 24  1  1
 11 14  1  0
 11 12  1  0
 11 25  1  1
 12 13  1  0
 12 26  1  1
 13 14  1  0
 13 27  1  6
 14 28  1  1
M  END
>  <i_m_ct_stereo_status>  (28) 
1

>  <s_m_source_file>  (28) 
/var/tmp/pbs.5076255.sched01/tmpcyubysk0/0_f5co88n.sdf

>  <i_m_source_file_index>  (28) 
12

>  <i_lp_mmshare_version>  (28) 
48012

>  <i_f3d_flags>  (28) 
0

>  <s_epik_input>  (28) 
W0NAQEhdMTJbQ0BIXTNbQ0BIXTRbQ0BASF0oW0NAQEhdMVtPSF0pW0NASF01W0NASF02W0NAQEhdMltDQEBIXTNbQ0BIXTdbQ0BASF00W0NAQEhdNVtDQEBIXTY3

>  <s_epik_cmdline>  (28) 
J2VwaWtfcHl0aG9uJywgJy1waHQnLCAnMi4wJywgJy1waCcsICc3LjAnLCAnLXRuJywgJzgnLCAnLW1hJywgJzIwMCcsICctaW1hZScsICc8aW5maWxlLm1hZT4nLCAnLW9tYWUnLCAnPG91dGZpbGUubWFlPic=

>  <r_lp_tautomer_probability>  (28) 
1

>  <r_epik_Ionization_Penalty>  (28) 
2.90191e-06

>  <r_epik_Ionization_Penalty_Charging>  (28) 
0

>  <r_epik_Ionization_Penalty_Neutral>  (28) 
2.90191e-06

>  <r_epik_State_Penalty>  (28) 
-0

>  <r_epik_Charging_Adjusted_Penalty>  (28) 
0

>  <i_epik_Tot_Q>  (28) 
0

>  <i_epik_Tot_abs_Q>  (28) 
0

>  <s_lp_Force_Field>  (28) 
OPLS3e

>  <r_lp_Energy>  (28) 
73.1757

>  <b_lp_Chiralities_Consistent>  (28) 
1

>  <s_lp_Variant>  (28) 
9:0-1

>  <s_i_glide_gridfile>  (28) 
pfpi4k_grid

>  <i_i_glide_lignum>  (28) 
12

>  <i_i_glide_rotatable_bonds>  (28) 
1

>  <r_i_docking_score>  (28) 
-3.99882

>  <r_i_glide_ligand_efficiency>  (28) 
-0.28563

>  <r_i_glide_ligand_efficiency_sa>  (28) 
-0.688409

>  <r_i_glide_ligand_efficiency_ln>  (28) 
-1.09886

>  <r_i_glide_gscore>  (28) 
-3.99882

>  <r_i_glide_lipo>  (28) 
-0.405867

>  <r_i_glide_hbond>  (28) 
0

>  <r_i_glide_metal>  (28) 
-0

>  <r_i_glide_rewards>  (28) 
-2.13921

>  <r_i_glide_evdw>  (28) 
-19.7147

>  <r_i_glide_ecoul>  (28) 
-3.12008

>  <r_i_glide_erotb>  (28) 
0

>  <r_i_glide_esite>  (28) 
0

>  <r_i_glide_emodel>  (28) 
-28.3087

>  <r_i_glide_energy>  (28) 
-22.8348

>  <r_i_glide_einternal>  (28) 
0.447359

>  <r_i_glide_intrahb_reward>  (28) 
-0

>  <i_i_glide_confnum>  (28) 
1

>  <i_i_glide_posenum>  (28) 
11

>  <r_i_glide_eff_state_penalty>  (28) 
0

>  <ligand_id>  (28) 
9

>  <original_smiles>  (28) 
OC1C2C3C4C1C1C5C2C3C2C4C1C52

>  <smiles>  (28) 
[H]OC1([H])C2([H])C3([H])C4([H])C1([H])C1([H])C5([H])C2([H])C3([H])C2([H])C4([H])C1([H])C52[H]

$$$$
9:0:1
     RDKit          3D

 28 34  0  0  1  0  0  0  0  0999 V2000
    5.8004   -1.4040    2.4454 O   0  0  0  0  0  0  0  0  0  0  0  0
    6.1047   -1.3105    1.0649 C   0  0  2  0  0  0  0  0  0  0  0  0
    4.9509   -0.7068    0.2811 C   0  0  1  0  0  0  0  0  0  0  0  0
    5.2117   -1.1213   -1.1579 C   0  0  1  0  0  0  0  0  0  0  0  0
    6.1048   -2.3708   -1.1632 C   0  0  1  0  0  0  0  0  0  0  0  0
    6.2929   -2.6733    0.3707 C   0  0  2  0  0  0  0  0  0  0  0  0
    5.1271   -3.6369    0.6992 C   0  0  1  0  0  0  0  0  0  0  0  0
    3.6993   -3.0068    0.6649 C   0  0  1  0  0  0  0  0  0  0  0  0
    3.6491   -1.5230    0.2100 C   0  0  2  0  0  0  0  0  0  0  0  0
    3.7593   -1.5179   -1.3245 C   0  0  2  0  0  0  0  0  0  0  0  0
    3.7347   -2.9690   -1.8117 C   0  0  1  0  0  0  0  0  0  0  0  0
    5.1903   -3.4763   -1.7397 C   0  0  2  0  0  0  0  0  0  0  0  0
    4.7994   -4.3746   -0.5844 C   0  0  2  0  0  0  0  0  0  0  0  0
    3.4062   -3.8192   -0.5929 C   0  0  1  0  0  0  0  0  0  0  0  0
    4.9973   -1.8662    2.5344 H   0  0  0  0  0  0  0  0  0  0  0  0
    6.9983   -0.7107    0.9426 H   0  0  0  0  0  0  0  0  0  0  0  0
    4.7612    0.3510    0.4207 H   0  0  0  0  0  0  0  0  0  0  0  0
    5.4882   -0.3056   -1.8191 H   0  0  0  0  0  0  0  0  0  0  0  0
    7.0365   -2.2441   -1.7077 H   0  0  0  0  0  0  0  0  0  0  0  0
    7.2566   -3.1376    0.5850 H   0  0  0  0  0  0  0  0  0  0  0  0
    5.2581   -4.3003    1.5531 H   0  0  0  0  0  0  0  0  0  0  0  0
    3.0772   -3.2733    1.5154 H   0  0  0  0  0  0  0  0  0  0  0  0
    2.7703   -0.9838    0.5528 H   0  0  0  0  0  0  0  0  0  0  0  0
    3.1122   -0.7999   -1.8276 H   0  0  0  0  0  0  0  0  0  0  0  0
    3.1969   -3.2167   -2.7261 H   0  0  0  0  0  0  0  0  0  0  0  0
    5.5207   -4.0038   -2.6321 H   0  0  0  0  0  0  0  0  0  0  0  0
    4.9119   -5.4580   -0.6632 H   0  0  0  0  0  0  0  0  0  0  0  0
    2.5766   -4.5315   -0.6203 H   0  0  0  0  0  0  0  0  0  0  0  0
  1  2  1  0
  1 15  1  0
  2  6  1  0
  2  3  1  0
  2 16  1  1
  3  9  1  0
  3  4  1  0
  3 17  1  6
  4 10  1  0
  4  5  1  0
  4 18  1  6
  5 12  1  0
  5  6  1  0
  5 19  1  6
  6  7  1  0
  6 20  1  6
  7 13  1  0
  7  8  1  0
  7 21  1  1
  8 14  1  0
  8  9  1  0
  8 22  1  1
  9 10  1  0
  9 23  1  6
 10 11  1  0
 10 24  1  6
 11 14  1  0
 11 12  1  0
 11 25  1  6
 12 13  1  0
 12 26  1  6
 13 14  1  0
 13 27  1  6
 14 28  1  6
M  END
>  <i_m_ct_stereo_status>  (29) 
1

>  <s_m_source_file>  (29) 
/var/tmp/pbs.5076255.sched01/tmpcyubysk0/0_f5co88n.sdf

>  <i_m_source_file_index>  (29) 
12

>  <i_lp_mmshare_version>  (29) 
48012

>  <i_f3d_flags>  (29) 
0

>  <s_epik_input>  (29) 
W0NAQEhdMTJbQ0BIXTNbQ0BIXTRbQ0BASF0oW0NAQEhdMVtPSF0pW0NASF01W0NASF02W0NAQEhdMltDQEBIXTNbQ0BIXTdbQ0BASF00W0NAQEhdNVtDQEBIXTY3

>  <s_epik_cmdline>  (29) 
J2VwaWtfcHl0aG9uJywgJy1waHQnLCAnMi4wJywgJy1waCcsICc3LjAnLCAnLXRuJywgJzgnLCAnLW1hJywgJzIwMCcsICctaW1hZScsICc8aW5maWxlLm1hZT4nLCAnLW9tYWUnLCAnPG91dGZpbGUubWFlPic=

>  <r_lp_tautomer_probability>  (29) 
1

>  <r_epik_Ionization_Penalty>  (29) 
2.90191e-06

>  <r_epik_Ionization_Penalty_Charging>  (29) 
0

>  <r_epik_Ionization_Penalty_Neutral>  (29) 
2.90191e-06

>  <r_epik_State_Penalty>  (29) 
-0

>  <r_epik_Charging_Adjusted_Penalty>  (29) 
0

>  <i_epik_Tot_Q>  (29) 
0

>  <i_epik_Tot_abs_Q>  (29) 
0

>  <s_lp_Force_Field>  (29) 
OPLS3e

>  <r_lp_Energy>  (29) 
73.1757

>  <b_lp_Chiralities_Consistent>  (29) 
1

>  <s_lp_Variant>  (29) 
9:0-1

>  <s_i_glide_gridfile>  (29) 
pfpi4k_grid

>  <i_i_glide_lignum>  (29) 
12

>  <i_i_glide_rotatable_bonds>  (29) 
1

>  <r_i_docking_score>  (29) 
-3.57985

>  <r_i_glide_ligand_efficiency>  (29) 
-0.255704

>  <r_i_glide_ligand_efficiency_sa>  (29) 
-0.616282

>  <r_i_glide_ligand_efficiency_ln>  (29) 
-0.98373

>  <r_i_glide_gscore>  (29) 
-3.57985

>  <r_i_glide_lipo>  (29) 
-0.497344

>  <r_i_glide_hbond>  (29) 
0

>  <r_i_glide_metal>  (29) 
-0

>  <r_i_glide_rewards>  (29) 
-2.13921

>  <r_i_glide_evdw>  (29) 
-18.4633

>  <r_i_glide_ecoul>  (29) 
-0.134232

>  <r_i_glide_erotb>  (29) 
0

>  <r_i_glide_esite>  (29) 
0

>  <r_i_glide_emodel>  (29) 
-23.7176

>  <r_i_glide_energy>  (29) 
-18.5975

>  <r_i_glide_einternal>  (29) 
0.00708126

>  <r_i_glide_intrahb_reward>  (29) 
-0

>  <i_i_glide_confnum>  (29) 
1

>  <i_i_glide_posenum>  (29) 
16

>  <r_i_glide_eff_state_penalty>  (29) 
0

>  <ligand_id>  (29) 
9

>  <original_smiles>  (29) 
OC1C2C3C4C1C1C5C2C3C2C4C1C52

>  <smiles>  (29) 
[H]OC1([H])C2([H])C3([H])C4([H])C1([H])C1([H])C5([H])C2([H])C3([H])C2([H])C4([H])C1([H])C52[H]

$$$$
9:0:2
     RDKit          3D

 28 34  0  0  1  0  0  0  0  0999 V2000
    4.3454   -4.4600    2.2077 O   0  0  0  0  0  0  0  0  0  0  0  0
    5.3543   -3.6461    1.6647 C   0  0  2  0  0  0  0  0  0  0  0  0
    4.9175   -2.2181    1.4303 C   0  0  1  0  0  0  0  0  0  0  0  0
    5.9276   -1.6656    0.4348 C   0  0  1  0  0  0  0  0  0  0  0  0
    6.5650   -2.8306   -0.3283 C   0  0  1  0  0  0  0  0  0  0  0  0
    5.8125   -4.0777    0.2562 C   0  0  2  0  0  0  0  0  0  0  0  0
    4.6061   -4.2461   -0.6965 C   0  0  1  0  0  0  0  0  0  0  0  0
    3.5096   -3.1396   -0.6081 C   0  0  1  0  0  0  0  0  0  0  0  0
    3.8383   -1.9783    0.3611 C   0  0  2  0  0  0  0  0  0  0  0  0
    4.8081   -1.0421   -0.3824 C   0  0  2  0  0  0  0  0  0  0  0  0
    4.9616   -1.5439   -1.8133 C   0  0  1  0  0  0  0  0  0  0  0  0
    6.0714   -2.6257   -1.7769 C   0  0  2  0  0  0  0  0  0  0  0  0
    5.0194   -3.6807   -2.0371 C   0  0  2  0  0  0  0  0  0  0  0  0
    3.9284   -2.6444   -1.9859 C   0  0  1  0  0  0  0  0  0  0  0  0
    4.1051   -4.1101    3.0488 H   0  0  0  0  0  0  0  0  0  0  0  0
    6.2039   -3.6792    2.3354 H   0  0  0  0  0  0  0  0  0  0  0  0
    4.7816   -1.5779    2.2970 H   0  0  0  0  0  0  0  0  0  0  0  0
    6.5899   -0.9217    0.8659 H   0  0  0  0  0  0  0  0  0  0  0  0
    7.6471   -2.8696   -0.2164 H   0  0  0  0  0  0  0  0  0  0  0  0
    6.4318   -4.9784    0.2497 H   0  0  0  0  0  0  0  0  0  0  0  0
    4.1662   -5.2361   -0.7693 H   0  0  0  0  0  0  0  0  0  0  0  0
    2.4914   -3.5347   -0.5799 H   0  0  0  0  0  0  0  0  0  0  0  0
    2.9659   -1.4407    0.7237 H   0  0  0  0  0  0  0  0  0  0  0  0
    4.6177    0.0180   -0.2072 H   0  0  0  0  0  0  0  0  0  0  0  0
    5.0246   -0.8275   -2.6337 H   0  0  0  0  0  0  0  0  0  0  0  0
    6.8069   -2.5545   -2.5734 H   0  0  0  0  0  0  0  0  0  0  0  0
    5.0525   -4.3049   -2.9324 H   0  0  0  0  0  0  0  0  0  0  0  0
    3.2223   -2.6342   -2.8162 H   0  0  0  0  0  0  0  0  0  0  0  0
  1  2  1  0
  1 15  1  0
  2  6  1  0
  2  3  1  0
  2 16  1  1
  3  9  1  0
  3  4  1  0
  3 17  1  1
  4 10  1  0
  4  5  1  0
  4 18  1  1
  5 12  1  0
  5  6  1  0
  5 19  1  6
  6  7  1  0
  6 20  1  1
  7 13  1  0
  7  8  1  0
  7 21  1  6
  8 14  1  0
  8  9  1  0
  8 22  1  6
  9 10  1  0
  9 23  1  1
 10 11  1  0
 10 24  1  6
 11 14  1  0
 11 12  1  0
 11 25  1  6
 12 13  1  0
 12 26  1  6
 13 14  1  0
 13 27  1  6
 14 28  1  6
M  END
>  <i_m_ct_stereo_status>  (30) 
1

>  <s_m_source_file>  (30) 
/var/tmp/pbs.5076255.sched01/tmpcyubysk0/0_f5co88n.sdf

>  <i_m_source_file_index>  (30) 
12

>  <i_lp_mmshare_version>  (30) 
48012

>  <i_f3d_flags>  (30) 
0

>  <s_epik_input>  (30) 
W0NAQEhdMTJbQ0BIXTNbQ0BIXTRbQ0BASF0oW0NAQEhdMVtPSF0pW0NASF01W0NASF02W0NAQEhdMltDQEBIXTNbQ0BIXTdbQ0BASF00W0NAQEhdNVtDQEBIXTY3

>  <s_epik_cmdline>  (30) 
J2VwaWtfcHl0aG9uJywgJy1waHQnLCAnMi4wJywgJy1waCcsICc3LjAnLCAnLXRuJywgJzgnLCAnLW1hJywgJzIwMCcsICctaW1hZScsICc8aW5maWxlLm1hZT4nLCAnLW9tYWUnLCAnPG91dGZpbGUubWFlPic=

>  <r_lp_tautomer_probability>  (30) 
1

>  <r_epik_Ionization_Penalty>  (30) 
2.90191e-06

>  <r_epik_Ionization_Penalty_Charging>  (30) 
0

>  <r_epik_Ionization_Penalty_Neutral>  (30) 
2.90191e-06

>  <r_epik_State_Penalty>  (30) 
-0

>  <r_epik_Charging_Adjusted_Penalty>  (30) 
0

>  <i_epik_Tot_Q>  (30) 
0

>  <i_epik_Tot_abs_Q>  (30) 
0

>  <s_lp_Force_Field>  (30) 
OPLS3e

>  <r_lp_Energy>  (30) 
73.1757

>  <b_lp_Chiralities_Consistent>  (30) 
1

>  <s_lp_Variant>  (30) 
9:0-1

>  <s_i_glide_gridfile>  (30) 
pfpi4k_grid

>  <i_i_glide_lignum>  (30) 
12

>  <i_i_glide_rotatable_bonds>  (30) 
1

>  <r_i_docking_score>  (30) 
-3.39222

>  <r_i_glide_ligand_efficiency>  (30) 
-0.242302

>  <r_i_glide_ligand_efficiency_sa>  (30) 
-0.583982

>  <r_i_glide_ligand_efficiency_ln>  (30) 
-0.932171

>  <r_i_glide_gscore>  (30) 
-3.39222

>  <r_i_glide_lipo>  (30) 
-0.315076

>  <r_i_glide_hbond>  (30) 
0

>  <r_i_glide_metal>  (30) 
-0

>  <r_i_glide_rewards>  (30) 
-2.13921

>  <r_i_glide_evdw>  (30) 
-18.6407

>  <r_i_glide_ecoul>  (30) 
-0.0393579

>  <r_i_glide_erotb>  (30) 
0

>  <r_i_glide_esite>  (30) 
0

>  <r_i_glide_emodel>  (30) 
-23.3846

>  <r_i_glide_energy>  (30) 
-18.6801

>  <r_i_glide_einternal>  (30) 
0.314839

>  <r_i_glide_intrahb_reward>  (30) 
-0

>  <i_i_glide_confnum>  (30) 
1

>  <i_i_glide_posenum>  (30) 
12

>  <r_i_glide_eff_state_penalty>  (30) 
0

>  <ligand_id>  (30) 
9

>  <original_smiles>  (30) 
OC1C2C3C4C1C1C5C2C3C2C4C1C52

>  <smiles>  (30) 
[H]OC1([H])C2([H])C3([H])C4([H])C1([H])C1([H])C5([H])C2([H])C3([H])C2([H])C4([H])C1([H])C52[H]

$$$$
11:0:0
     RDKit          3D

 58 63  0  0  1  0  0  0  0  0999 V2000
    2.2750   -3.9781    2.1171 C   0  0  0  0  0  0  0  0  0  0  0  0
    3.2859   -5.0580    1.7464 C   0  0  0  0  0  0  0  0  0  0  0  0
    3.3362   -6.3324    2.1604 C   0  0  0  0  0  0  0  0  0  0  0  0
    4.4260   -7.1322    1.5543 C   0  0  2  0  0  0  0  0  0  0  0  0
    4.8209   -6.2840    0.3354 C   0  0  0  0  0  0  0  0  0  0  0  0
    4.4030   -4.8319    0.7254 C   0  0  1  0  0  0  0  0  0  0  0  0
    4.1749   -3.9360   -0.5042 C   0  0  0  0  0  0  0  0  0  0  0  0
    2.9364   -3.4624   -1.0807 C   0  0  0  0  0  0  0  0  0  0  0  0
    3.2592   -2.6732   -2.1316 C   0  0  0  0  0  0  0  0  0  0  0  0
    4.6012   -2.6576   -2.3298 O   0  0  0  0  0  0  0  0  0  0  0  0
    5.1298   -3.4448   -1.3480 C   0  0  0  0  0  0  0  0  0  0  0  0
    3.8656   -8.4304    1.3764 O   0  0  0  0  0  0  0  0  0  0  0  0
    3.1288   -8.6028    2.5961 C   0  0  2  0  0  0  0  0  0  0  0  0
    2.1369   -9.7673    2.6868 C   0  0  0  0  0  0  0  0  0  0  0  0
    1.2796   -9.6436    3.9931 C   0  0  1  0  0  0  0  0  0  0  0  0
    1.7812   -8.5664    5.0125 C   0  0  2  0  0  0  0  0  0  0  0  0
    0.5661   -8.5077    5.9900 C   0  0  0  0  0  0  0  0  0  0  0  0
    0.1992   -9.8553    6.6888 C   0  0  0  0  0  0  0  0  0  0  0  0
    0.6621   -7.5036    7.1728 C   0  0  0  0  0  0  0  0  0  0  0  0
   -0.3586   -8.1468    4.8162 C   0  0  1  0  0  0  0  0  0  0  0  0
    0.3060   -6.8595    4.2247 C   0  0  1  0  0  0  0  0  0  0  0  0
   -0.0344   -5.7593    4.9041 F   0  0  0  0  0  0  0  0  0  0  0  0
    1.8438   -7.1657    4.2608 C   0  0  1  0  0  0  0  0  0  0  0  0
    2.7272   -6.1435    5.0163 C   0  0  0  0  0  0  0  0  0  0  0  0
    2.3624   -7.2938    2.7855 C   0  0  1  0  0  0  0  0  0  0  0  0
   -0.1704   -9.2944    3.8828 N   0  0  1  0  0  0  0  0  0  0  0  0
   -0.8130   -9.2031    2.5501 C   0  0  0  0  0  0  0  0  0  0  0  0
    1.8406   -3.5236    1.2484 H   0  0  0  0  0  0  0  0  0  0  0  0
    2.7988   -3.1890    2.6610 H   0  0  0  0  0  0  0  0  0  0  0  0
    1.4966   -4.3725    2.7780 H   0  0  0  0  0  0  0  0  0  0  0  0
    5.2594   -7.1632    2.2717 H   0  0  0  0  0  0  0  0  0  0  0  0
    5.8791   -6.3661    0.0801 H   0  0  0  0  0  0  0  0  0  0  0  0
    4.2376   -6.6055   -0.5337 H   0  0  0  0  0  0  0  0  0  0  0  0
    5.2226   -4.3888    1.2946 H   0  0  0  0  0  0  0  0  0  0  0  0
    1.9175   -3.6914   -0.7794 H   0  0  0  0  0  0  0  0  0  0  0  0
    2.6498   -2.0996   -2.8196 H   0  0  0  0  0  0  0  0  0  0  0  0
    6.2072   -3.5527   -1.4120 H   0  0  0  0  0  0  0  0  0  0  0  0
    3.8635   -8.7083    3.4026 H   0  0  0  0  0  0  0  0  0  0  0  0
    1.5513   -9.8438    1.7684 H   0  0  0  0  0  0  0  0  0  0  0  0
    2.7153  -10.6951    2.7263 H   0  0  0  0  0  0  0  0  0  0  0  0
    1.3393  -10.6297    4.4523 H   0  0  0  0  0  0  0  0  0  0  0  0
    2.7206   -8.8491    5.4952 H   0  0  0  0  0  0  0  0  0  0  0  0
   -0.6280   -9.7203    7.3900 H   0  0  0  0  0  0  0  0  0  0  0  0
    1.0532  -10.2234    7.2596 H   0  0  0  0  0  0  0  0  0  0  0  0
   -0.1194  -10.6670    6.0365 H   0  0  0  0  0  0  0  0  0  0  0  0
   -0.2060   -7.5808    7.8276 H   0  0  0  0  0  0  0  0  0  0  0  0
    0.7219   -6.4533    6.9103 H   0  0  0  0  0  0  0  0  0  0  0  0
    1.5318   -7.7384    7.7908 H   0  0  0  0  0  0  0  0  0  0  0  0
   -1.4040   -8.0035    5.0876 H   0  0  0  0  0  0  0  0  0  0  0  0
   -0.0693   -6.6441    3.2227 H   0  0  0  0  0  0  0  0  0  0  0  0
    2.5343   -5.1260    4.6845 H   0  0  0  0  0  0  0  0  0  0  0  0
    3.7809   -6.3519    4.8397 H   0  0  0  0  0  0  0  0  0  0  0  0
    2.6137   -6.1600    6.0929 H   0  0  0  0  0  0  0  0  0  0  0  0
    1.5481   -7.3296    2.0675 H   0  0  0  0  0  0  0  0  0  0  0  0
   -0.3555   -8.4515    1.8910 H   0  0  0  0  0  0  0  0  0  0  0  0
   -1.8747   -8.9487    2.6707 H   0  0  0  0  0  0  0  0  0  0  0  0
   -0.7661  -10.1786    2.0499 H   0  0  0  0  0  0  0  0  0  0  0  0
   -0.6732  -10.0523    4.3470 H   0  0  0  0  0  0  0  0  0  0  0  0
  1  2  1  0
  1 28  1  0
  1 29  1  0
  1 30  1  0
  2  6  1  0
  2  3  2  0
  3 25  1  0
  3  4  1  0
  4  5  1  0
  4 12  1  0
  4 31  1  1
  5  6  1  0
  5 32  1  0
  5 33  1  0
  6  7  1  0
  6 34  1  1
  7 11  2  0
  7  8  1  0
  8  9  2  0
  8 35  1  0
  9 10  1  0
  9 36  1  0
 10 11  1  0
 11 37  1  0
 12 13  1  0
 13 25  1  0
 13 14  1  0
 13 38  1  1
 14 15  1  0
 14 39  1  0
 14 40  1  0
 15 26  1  0
 15 16  1  0
 15 41  1  1
 16 23  1  0
 16 17  1  0
 16 42  1  1
 17 18  1  0
 17 19  1  0
 17 20  1  0
 18 43  1  0
 18 44  1  0
 18 45  1  0
 19 46  1  0
 19 47  1  0
 19 48  1  0
 20 21  1  0
 20 26  1  0
 20 49  1  1
 21 22  1  0
 21 23  1  0
 21 50  1  6
 23 24  1  1
 23 25  1  0
 24 51  1  0
 24 52  1  0
 24 53  1  0
 25 54  1  6
 26 27  1  0
 26 58  1  1
 27 55  1  0
 27 56  1  0
 27 57  1  0
M  CHG  1  26   1
M  END
>  <i_m_ct_stereo_status>  (31) 
1

>  <s_m_source_file>  (31) 
/var/tmp/pbs.5076255.sched01/tmpcyubysk0/0_f5co88n.sdf

>  <i_m_source_file_index>  (31) 
14

>  <i_lp_mmshare_version>  (31) 
48012

>  <i_f3d_flags>  (31) 
0

>  <s_epik_input>  (31) 
W2NIXTFvW2NIXVtjSF1jMVtDQEBIXShDPTJbQ0gzXSlbQ0gyXVtDQEhdKE8zKUMyW0NASF00W0NASF0zW0NIMl1bQ0BASF0oW0NASF01W0NAQF00NltDSDNdKU4oW0NIM10pW0NASF0oW0NASF02RilDNShbQ0gzXSlbQ0gzXQ==

>  <s_epik_cmdline>  (31) 
J2VwaWtfcHl0aG9uJywgJy1waHQnLCAnMi4wJywgJy1waCcsICc3LjAnLCAnLXRuJywgJzgnLCAnLW1hJywgJzIwMCcsICctaW1hZScsICc8aW5maWxlLm1hZT4nLCAnLW9tYWUnLCAnPG91dGZpbGUubWFlPic=

>  <r_epik_Ionization_Penalty>  (31) 
0.0629281

>  <r_epik_Ionization_Penalty_Charging>  (31) 
0.0629281

>  <r_epik_Ionization_Penalty_Neutral>  (31) 
3.96648e-13

>  <r_epik_State_Penalty>  (31) 
0.054719

>  <r_epik_Charging_Adjusted_Penalty>  (31) 
0.117647

>  <i_epik_Tot_Q>  (31) 
1

>  <i_epik_Tot_abs_Q>  (31) 
1

>  <s_lp_Force_Field>  (31) 
OPLS3e

>  <r_lp_Energy>  (31) 
72.4483

>  <b_lp_Chiralities_Consistent>  (31) 
1

>  <s_lp_Variant>  (31) 
11:0-1

>  <s_i_glide_gridfile>  (31) 
pfpi4k_grid

>  <i_i_glide_lignum>  (31) 
14

>  <i_i_glide_rotatable_bonds>  (31) 
1

>  <r_i_docking_score>  (31) 
-3.31211

>  <r_i_glide_ligand_efficiency>  (31) 
-0.122671

>  <r_i_glide_ligand_efficiency_sa>  (31) 
-0.368013

>  <r_i_glide_ligand_efficiency_ln>  (31) 
-0.771006

>  <r_i_glide_gscore>  (31) 
-3.31211

>  <r_i_glide_lipo>  (31) 
-0.552036

>  <r_i_glide_hbond>  (31) 
-0.2

>  <r_i_glide_metal>  (31) 
-0

>  <r_i_glide_rewards>  (31) 
-0.869344

>  <r_i_glide_evdw>  (31) 
-24.0666

>  <r_i_glide_ecoul>  (31) 
-3.6332

>  <r_i_glide_erotb>  (31) 
0.139202

>  <r_i_glide_esite>  (31) 
-0.0816274

>  <r_i_glide_emodel>  (31) 
-34.231

>  <r_i_glide_energy>  (31) 
-27.6998

>  <r_i_glide_einternal>  (31) 
0.625532

>  <r_i_glide_intrahb_reward>  (31) 
-0

>  <i_i_glide_confnum>  (31) 
1

>  <i_i_glide_posenum>  (31) 
24

>  <r_i_glide_eff_state_penalty>  (31) 
0

>  <ligand_id>  (31) 
11

>  <original_smiles>  (31) 
CC1=C2C(CC1c1ccoc1)OC1CC3C4C(C)(C)C(C(F)C4(C)C21)N3C

>  <smiles>  (31) 
[H]c1oc([H])c(C2([H])C(C([H])([H])[H])=C3C([H])(OC4([H])C([H])([H])C5([H])C6([H])C(C([H])([H])[H])(C([H])(F)C([H])(C6(C([H])([H])[H])C([H])([H])[H])[N+]5([H])C([H])([H])[H])C34[H])C2([H])[H])c1[H]

$$$$
11:0:1
     RDKit          3D

 58 63  0  0  1  0  0  0  0  0999 V2000
    3.6310   -3.5943    3.0895 C   0  0  0  0  0  0  0  0  0  0  0  0
    4.3881   -4.6520    2.3051 C   0  0  0  0  0  0  0  0  0  0  0  0
    4.1877   -5.9750    2.2539 C   0  0  0  0  0  0  0  0  0  0  0  0
    5.0451   -6.6629    1.2577 C   0  0  2  0  0  0  0  0  0  0  0  0
    5.5360   -5.5084    0.3732 C   0  0  0  0  0  0  0  0  0  0  0  0
    5.4918   -4.2807    1.3263 C   0  0  1  0  0  0  0  0  0  0  0  0
    5.3664   -2.9606    0.5896 C   0  0  0  0  0  0  0  0  0  0  0  0
    4.2698   -2.5058   -0.2011 C   0  0  0  0  0  0  0  0  0  0  0  0
    4.6204   -1.2779   -0.6938 C   0  0  0  0  0  0  0  0  0  0  0  0
    5.8675   -0.9386   -0.2810 O   0  0  0  0  0  0  0  0  0  0  0  0
    6.3028   -1.9644    0.4983 C   0  0  0  0  0  0  0  0  0  0  0  0
    4.2135   -7.6790    0.7132 O   0  0  0  0  0  0  0  0  0  0  0  0
    3.5098   -8.1546    1.8687 C   0  0  2  0  0  0  0  0  0  0  0  0
    2.2994   -9.0627    1.6670 C   0  0  0  0  0  0  0  0  0  0  0  0
    1.5731   -9.2903    3.0271 C   0  0  1  0  0  0  0  0  0  0  0  0
    2.3448   -8.7989    4.2901 C   0  0  2  0  0  0  0  0  0  0  0  0
    1.2325   -8.9043    5.3761 C   0  0  0  0  0  0  0  0  0  0  0  0
    0.6189  -10.3229    5.5758 C   0  0  0  0  0  0  0  0  0  0  0  0
    1.6087   -8.4635    6.8188 C   0  0  0  0  0  0  0  0  0  0  0  0
    0.3469   -7.9499    4.5631 C   0  0  1  0  0  0  0  0  0  0  0  0
    1.2367   -6.6843    4.3867 C   0  0  1  0  0  0  0  0  0  0  0  0
    1.1913   -5.8871    5.4537 F   0  0  0  0  0  0  0  0  0  0  0  0
    2.6646   -7.2542    4.0932 C   0  0  1  0  0  0  0  0  0  0  0  0
    3.7976   -6.7794    5.0351 C   0  0  0  0  0  0  0  0  0  0  0  0
    3.0534   -6.9007    2.6126 C   0  0  1  0  0  0  0  0  0  0  0  0
    0.2239   -8.6719    3.2535 N   0  0  1  0  0  0  0  0  0  0  0  0
   -0.4702   -7.9597    2.1503 C   0  0  0  0  0  0  0  0  0  0  0  0
    3.2339   -2.8152    2.4390 H   0  0  0  0  0  0  0  0  0  0  0  0
    4.3198   -3.1097    3.7813 H   0  0  0  0  0  0  0  0  0  0  0  0
    2.8076   -4.0156    3.6651 H   0  0  0  0  0  0  0  0  0  0  0  0
    5.8805   -7.1105    1.8005 H   0  0  0  0  0  0  0  0  0  0  0  0
    6.5209   -5.6768   -0.0576 H   0  0  0  0  0  0  0  0  0  0  0  0
    4.8313   -5.3618   -0.4502 H   0  0  0  0  0  0  0  0  0  0  0  0
    6.4093   -4.2423    1.9135 H   0  0  0  0  0  0  0  0  0  0  0  0
    3.3362   -3.0088   -0.3986 H   0  0  0  0  0  0  0  0  0  0  0  0
    4.1260   -0.5588   -1.3266 H   0  0  0  0  0  0  0  0  0  0  0  0
    7.3004   -1.8236    0.8903 H   0  0  0  0  0  0  0  0  0  0  0  0
    4.2454   -8.6938    2.4708 H   0  0  0  0  0  0  0  0  0  0  0  0
    1.6525   -8.6640    0.8833 H   0  0  0  0  0  0  0  0  0  0  0  0
    2.6465  -10.0236    1.2865 H   0  0  0  0  0  0  0  0  0  0  0  0
    1.4296  -10.3698    3.0814 H   0  0  0  0  0  0  0  0  0  0  0  0
    3.2222   -9.4130    4.5025 H   0  0  0  0  0  0  0  0  0  0  0  0
   -0.1080  -10.3344    6.3906 H   0  0  0  0  0  0  0  0  0  0  0  0
    1.4043  -11.0358    5.8302 H   0  0  0  0  0  0  0  0  0  0  0  0
    0.0998  -10.7488    4.7199 H   0  0  0  0  0  0  0  0  0  0  0  0
    0.7761   -8.6178    7.5069 H   0  0  0  0  0  0  0  0  0  0  0  0
    1.8889   -7.4249    6.9514 H   0  0  0  0  0  0  0  0  0  0  0  0
    2.4363   -9.0721    7.1898 H   0  0  0  0  0  0  0  0  0  0  0  0
   -0.6241   -7.7447    5.0132 H   0  0  0  0  0  0  0  0  0  0  0  0
    0.8607   -6.0328    3.5980 H   0  0  0  0  0  0  0  0  0  0  0  0
    3.8130   -5.6944    5.1207 H   0  0  0  0  0  0  0  0  0  0  0  0
    4.7668   -7.0974    4.6515 H   0  0  0  0  0  0  0  0  0  0  0  0
    3.7472   -7.1849    6.0387 H   0  0  0  0  0  0  0  0  0  0  0  0
    2.2099   -6.5094    2.0501 H   0  0  0  0  0  0  0  0  0  0  0  0
    0.1001   -7.1227    1.7530 H   0  0  0  0  0  0  0  0  0  0  0  0
   -1.4311   -7.5849    2.5046 H   0  0  0  0  0  0  0  0  0  0  0  0
   -0.6908   -8.6468    1.3356 H   0  0  0  0  0  0  0  0  0  0  0  0
   -0.3759   -9.4596    3.4692 H   0  0  0  0  0  0  0  0  0  0  0  0
  1  2  1  0
  1 28  1  0
  1 29  1  0
  1 30  1  0
  2  6  1  0
  2  3  2  0
  3 25  1  0
  3  4  1  0
  4  5  1  0
  4 12  1  0
  4 31  1  1
  5  6  1  0
  5 32  1  0
  5 33  1  0
  6  7  1  0
  6 34  1  1
  7 11  2  0
  7  8  1  0
  8  9  2  0
  8 35  1  0
  9 10  1  0
  9 36  1  0
 10 11  1  0
 11 37  1  0
 12 13  1  0
 13 25  1  0
 13 14  1  0
 13 38  1  1
 14 15  1  0
 14 39  1  0
 14 40  1  0
 15 26  1  0
 15 16  1  0
 15 41  1  1
 16 23  1  0
 16 17  1  0
 16 42  1  1
 17 18  1  0
 17 19  1  0
 17 20  1  0
 18 43  1  0
 18 44  1  0
 18 45  1  0
 19 46  1  0
 19 47  1  0
 19 48  1  0
 20 21  1  0
 20 26  1  0
 20 49  1  1
 21 22  1  0
 21 23  1  0
 21 50  1  6
 23 24  1  1
 23 25  1  0
 24 51  1  0
 24 52  1  0
 24 53  1  0
 25 54  1  6
 26 27  1  0
 26 58  1  1
 27 55  1  0
 27 56  1  0
 27 57  1  0
M  CHG  1  26   1
M  END
>  <i_m_ct_stereo_status>  (32) 
1

>  <s_m_source_file>  (32) 
/var/tmp/pbs.5076255.sched01/tmpcyubysk0/0_f5co88n.sdf

>  <i_m_source_file_index>  (32) 
14

>  <i_lp_mmshare_version>  (32) 
48012

>  <i_f3d_flags>  (32) 
0

>  <s_epik_input>  (32) 
W2NIXTFvW2NIXVtjSF1jMVtDQEBIXShDPTJbQ0gzXSlbQ0gyXVtDQEhdKE8zKUMyW0NASF00W0NASF0zW0NIMl1bQ0BASF0oW0NASF01W0NAQF00NltDSDNdKU4oW0NIM10pW0NASF0oW0NASF02RilDNShbQ0gzXSlbQ0gzXQ==

>  <s_epik_cmdline>  (32) 
J2VwaWtfcHl0aG9uJywgJy1waHQnLCAnMi4wJywgJy1waCcsICc3LjAnLCAnLXRuJywgJzgnLCAnLW1hJywgJzIwMCcsICctaW1hZScsICc8aW5maWxlLm1hZT4nLCAnLW9tYWUnLCAnPG91dGZpbGUubWFlPic=

>  <r_epik_Ionization_Penalty>  (32) 
0.0629281

>  <r_epik_Ionization_Penalty_Charging>  (32) 
0.0629281

>  <r_epik_Ionization_Penalty_Neutral>  (32) 
3.96648e-13

>  <r_epik_State_Penalty>  (32) 
0.054719

>  <r_epik_Charging_Adjusted_Penalty>  (32) 
0.117647

>  <i_epik_Tot_Q>  (32) 
1

>  <i_epik_Tot_abs_Q>  (32) 
1

>  <s_lp_Force_Field>  (32) 
OPLS3e

>  <r_lp_Energy>  (32) 
72.4483

>  <b_lp_Chiralities_Consistent>  (32) 
1

>  <s_lp_Variant>  (32) 
11:0-1

>  <s_i_glide_gridfile>  (32) 
pfpi4k_grid

>  <i_i_glide_lignum>  (32) 
14

>  <i_i_glide_rotatable_bonds>  (32) 
1

>  <r_i_docking_score>  (32) 
-2.68855

>  <r_i_glide_ligand_efficiency>  (32) 
-0.0995761

>  <r_i_glide_ligand_efficiency_sa>  (32) 
-0.298728

>  <r_i_glide_ligand_efficiency_ln>  (32) 
-0.625851

>  <r_i_glide_gscore>  (32) 
-2.68855

>  <r_i_glide_lipo>  (32) 
-0.412817

>  <r_i_glide_hbond>  (32) 
-0.010619

>  <r_i_glide_metal>  (32) 
-0

>  <r_i_glide_rewards>  (32) 
-0.869344

>  <r_i_glide_evdw>  (32) 
-20.4444

>  <r_i_glide_ecoul>  (32) 
-3.21253

>  <r_i_glide_erotb>  (32) 
0.139202

>  <r_i_glide_esite>  (32) 
-0.030878

>  <r_i_glide_emodel>  (32) 
-29.3268

>  <r_i_glide_energy>  (32) 
-23.6569

>  <r_i_glide_einternal>  (32) 
0.0715652

>  <r_i_glide_intrahb_reward>  (32) 
-0

>  <i_i_glide_confnum>  (32) 
5

>  <i_i_glide_posenum>  (32) 
40

>  <r_i_glide_eff_state_penalty>  (32) 
0

>  <ligand_id>  (32) 
11

>  <original_smiles>  (32) 
CC1=C2C(CC1c1ccoc1)OC1CC3C4C(C)(C)C(C(F)C4(C)C21)N3C

>  <smiles>  (32) 
[H]c1oc([H])c(C2([H])C(C([H])([H])[H])=C3C([H])(OC4([H])C([H])([H])C5([H])C6([H])C(C([H])([H])[H])(C([H])(F)C([H])(C6(C([H])([H])[H])C([H])([H])[H])[N+]5([H])C([H])([H])[H])C34[H])C2([H])[H])c1[H]

$$$$
11:0:2
     RDKit          3D

 58 63  0  0  1  0  0  0  0  0999 V2000
    1.2772   -3.4321    4.8573 C   0  0  0  0  0  0  0  0  0  0  0  0
    2.1065   -3.8218    3.6349 C   0  0  0  0  0  0  0  0  0  0  0  0
    2.2762   -5.0396    3.0993 C   0  0  0  0  0  0  0  0  0  0  0  0
    3.0767   -5.0602    1.8409 C   0  0  2  0  0  0  0  0  0  0  0  0
    3.0602   -3.5842    1.4088 C   0  0  0  0  0  0  0  0  0  0  0  0
    2.8322   -2.8059    2.7446 C   0  0  1  0  0  0  0  0  0  0  0  0
    2.2171   -1.4176    2.5272 C   0  0  0  0  0  0  0  0  0  0  0  0
    2.8563   -0.2911    1.9016 C   0  0  0  0  0  0  0  0  0  0  0  0
    1.9545    0.7383    1.9196 C   0  0  0  0  0  0  0  0  0  0  0  0
    0.7904    0.3433    2.4870 O   0  0  0  0  0  0  0  0  0  0  0  0
    0.9592   -0.9670    2.8383 C   0  0  0  0  0  0  0  0  0  0  0  0
    2.4395   -6.0596    1.0416 O   0  0  0  0  0  0  0  0  0  0  0  0
    2.1681   -7.0810    2.0032 C   0  0  2  0  0  0  0  0  0  0  0  0
    1.2445   -8.2189    1.5939 C   0  0  0  0  0  0  0  0  0  0  0  0
    0.8819   -9.0909    2.8281 C   0  0  1  0  0  0  0  0  0  0  0  0
    1.7128   -8.8080    4.1160 C   0  0  2  0  0  0  0  0  0  0  0  0
    0.9044   -9.6107    5.1703 C   0  0  0  0  0  0  0  0  0  0  0  0
    0.7568  -11.1377    4.8798 C   0  0  0  0  0  0  0  0  0  0  0  0
    1.4058   -9.5477    6.6392 C   0  0  0  0  0  0  0  0  0  0  0  0
   -0.3476   -8.7750    4.8499 C   0  0  1  0  0  0  0  0  0  0  0  0
    0.1132   -7.3067    5.0578 C   0  0  1  0  0  0  0  0  0  0  0  0
    0.0763   -6.9401    6.3385 F   0  0  0  0  0  0  0  0  0  0  0  0
    1.5566   -7.2643    4.4622 C   0  0  1  0  0  0  0  0  0  0  0  0
    2.6719   -6.7757    5.4138 C   0  0  0  0  0  0  0  0  0  0  0  0
    1.5434   -6.3530    3.1856 C   0  0  1  0  0  0  0  0  0  0  0  0
   -0.5258   -9.0531    3.3758 N   0  0  1  0  0  0  0  0  0  0  0  0
   -1.5809   -8.2838    2.6590 C   0  0  0  0  0  0  0  0  0  0  0  0
    0.5087   -2.6916    4.6422 H   0  0  0  0  0  0  0  0  0  0  0  0
    1.9676   -3.0190    5.5963 H   0  0  0  0  0  0  0  0  0  0  0  0
    0.8214   -4.3174    5.3114 H   0  0  0  0  0  0  0  0  0  0  0  0
    4.0953   -5.3658    2.1055 H   0  0  0  0  0  0  0  0  0  0  0  0
    3.9555   -3.2746    0.8570 H   0  0  0  0  0  0  0  0  0  0  0  0
    2.2140   -3.4104    0.7440 H   0  0  0  0  0  0  0  0  0  0  0  0
    3.8033   -2.6495    3.2141 H   0  0  0  0  0  0  0  0  0  0  0  0
    3.8453   -0.2369    1.4596 H   0  0  0  0  0  0  0  0  0  0  0  0
    1.9380    1.7658    1.5548 H   0  0  0  0  0  0  0  0  0  0  0  0
    0.0806   -1.4258    3.2718 H   0  0  0  0  0  0  0  0  0  0  0  0
    3.1294   -7.5103    2.2986 H   0  0  0  0  0  0  0  0  0  0  0  0
    0.3825   -7.8481    1.0360 H   0  0  0  0  0  0  0  0  0  0  0  0
    1.8011   -8.8490    0.9018 H   0  0  0  0  0  0  0  0  0  0  0  0
    1.0436  -10.1199    2.4974 H   0  0  0  0  0  0  0  0  0  0  0  0
    2.7497   -9.1365    4.0147 H   0  0  0  0  0  0  0  0  0  0  0  0
    0.2050  -11.6300    5.6770 H   0  0  0  0  0  0  0  0  0  0  0  0
    1.7364  -11.6185    4.8329 H   0  0  0  0  0  0  0  0  0  0  0  0
    0.2143  -11.4137    3.9736 H   0  0  0  0  0  0  0  0  0  0  0  0
    0.7884  -10.1690    7.2842 H   0  0  0  0  0  0  0  0  0  0  0  0
    1.4136   -8.5757    7.1138 H   0  0  0  0  0  0  0  0  0  0  0  0
    2.4183   -9.9471    6.6992 H   0  0  0  0  0  0  0  0  0  0  0  0
   -1.2396   -9.0541    5.4153 H   0  0  0  0  0  0  0  0  0  0  0  0
   -0.5800   -6.6023    4.5978 H   0  0  0  0  0  0  0  0  0  0  0  0
    2.4093   -5.8330    5.8897 H   0  0  0  0  0  0  0  0  0  0  0  0
    3.5999   -6.6185    4.8659 H   0  0  0  0  0  0  0  0  0  0  0  0
    2.9271   -7.4741    6.2028 H   0  0  0  0  0  0  0  0  0  0  0  0
    0.5343   -6.1026    2.8763 H   0  0  0  0  0  0  0  0  0  0  0  0
   -1.3505   -7.2261    2.5537 H   0  0  0  0  0  0  0  0  0  0  0  0
   -2.5252   -8.3800    3.2028 H   0  0  0  0  0  0  0  0  0  0  0  0
   -1.7314   -8.7117    1.6622 H   0  0  0  0  0  0  0  0  0  0  0  0
   -0.8443  -10.0057    3.3687 H   0  0  0  0  0  0  0  0  0  0  0  0
  1  2  1  0
  1 28  1  0
  1 29  1  0
  1 30  1  0
  2  6  1  0
  2  3  2  0
  3 25  1  0
  3  4  1  0
  4  5  1  0
  4 12  1  0
  4 31  1  1
  5  6  1  0
  5 32  1  0
  5 33  1  0
  6  7  1  0
  6 34  1  1
  7 11  2  0
  7  8  1  0
  8  9  2  0
  8 35  1  0
  9 10  1  0
  9 36  1  0
 10 11  1  0
 11 37  1  0
 12 13  1  0
 13 25  1  0
 13 14  1  0
 13 38  1  1
 14 15  1  0
 14 39  1  0
 14 40  1  0
 15 26  1  0
 15 16  1  0
 15 41  1  6
 16 23  1  0
 16 17  1  0
 16 42  1  6
 17 18  1  0
 17 19  1  0
 17 20  1  0
 18 43  1  0
 18 44  1  0
 18 45  1  0
 19 46  1  0
 19 47  1  0
 19 48  1  0
 20 21  1  0
 20 26  1  0
 20 49  1  1
 21 22  1  0
 21 23  1  0
 21 50  1  6
 23 24  1  1
 23 25  1  0
 24 51  1  0
 24 52  1  0
 24 53  1  0
 25 54  1  6
 26 27  1  0
 26 58  1  1
 27 55  1  0
 27 56  1  0
 27 57  1  0
M  CHG  1  26   1
M  END
>  <i_m_ct_stereo_status>  (33) 
1

>  <s_m_source_file>  (33) 
/var/tmp/pbs.5076255.sched01/tmpcyubysk0/0_f5co88n.sdf

>  <i_m_source_file_index>  (33) 
14

>  <i_lp_mmshare_version>  (33) 
48012

>  <i_f3d_flags>  (33) 
0

>  <s_epik_input>  (33) 
W2NIXTFvW2NIXVtjSF1jMVtDQEBIXShDPTJbQ0gzXSlbQ0gyXVtDQEhdKE8zKUMyW0NASF00W0NASF0zW0NIMl1bQ0BASF0oW0NASF01W0NAQF00NltDSDNdKU4oW0NIM10pW0NASF0oW0NASF02RilDNShbQ0gzXSlbQ0gzXQ==

>  <s_epik_cmdline>  (33) 
J2VwaWtfcHl0aG9uJywgJy1waHQnLCAnMi4wJywgJy1waCcsICc3LjAnLCAnLXRuJywgJzgnLCAnLW1hJywgJzIwMCcsICctaW1hZScsICc8aW5maWxlLm1hZT4nLCAnLW9tYWUnLCAnPG91dGZpbGUubWFlPic=

>  <r_epik_Ionization_Penalty>  (33) 
0.0629281

>  <r_epik_Ionization_Penalty_Charging>  (33) 
0.0629281

>  <r_epik_Ionization_Penalty_Neutral>  (33) 
3.96648e-13

>  <r_epik_State_Penalty>  (33) 
0.054719

>  <r_epik_Charging_Adjusted_Penalty>  (33) 
0.117647

>  <i_epik_Tot_Q>  (33) 
1

>  <i_epik_Tot_abs_Q>  (33) 
1

>  <s_lp_Force_Field>  (33) 
OPLS3e

>  <r_lp_Energy>  (33) 
72.4483

>  <b_lp_Chiralities_Consistent>  (33) 
1

>  <s_lp_Variant>  (33) 
11:0-1

>  <s_i_glide_gridfile>  (33) 
pfpi4k_grid

>  <i_i_glide_lignum>  (33) 
14

>  <i_i_glide_rotatable_bonds>  (33) 
1

>  <r_i_docking_score>  (33) 
-2.36424

>  <r_i_glide_ligand_efficiency>  (33) 
-0.0875645

>  <r_i_glide_ligand_efficiency_sa>  (33) 
-0.262694

>  <r_i_glide_ligand_efficiency_ln>  (33) 
-0.550357

>  <r_i_glide_gscore>  (33) 
-2.36424

>  <r_i_glide_lipo>  (33) 
-0.0121961

>  <r_i_glide_hbond>  (33) 
0

>  <r_i_glide_metal>  (33) 
-0

>  <r_i_glide_rewards>  (33) 
-0.869344

>  <r_i_glide_evdw>  (33) 
-22.5212

>  <r_i_glide_ecoul>  (33) 
-2.83412

>  <r_i_glide_erotb>  (33) 
0.139202

>  <r_i_glide_esite>  (33) 
-0.0707258

>  <r_i_glide_emodel>  (33) 
-29.7704

>  <r_i_glide_energy>  (33) 
-25.3553

>  <r_i_glide_einternal>  (33) 
0.724723

>  <r_i_glide_intrahb_reward>  (33) 
-0

>  <i_i_glide_confnum>  (33) 
4

>  <i_i_glide_posenum>  (33) 
22

>  <r_i_glide_eff_state_penalty>  (33) 
0

>  <ligand_id>  (33) 
11

>  <original_smiles>  (33) 
CC1=C2C(CC1c1ccoc1)OC1CC3C4C(C)(C)C(C(F)C4(C)C21)N3C

>  <smiles>  (33) 
[H]c1oc([H])c(C2([H])C(C([H])([H])[H])=C3C([H])(OC4([H])C([H])([H])C5([H])C6([H])C(C([H])([H])[H])(C([H])(F)C([H])(C6(C([H])([H])[H])C([H])([H])[H])[N+]5([H])C([H])([H])[H])C34[H])C2([H])[H])c1[H]

$$$$
11:1:0
     RDKit          3D

 57 62  0  0  1  0  0  0  0  0999 V2000
    5.3223   -5.6265    2.3921 C   0  0  0  0  0  0  0  0  0  0  0  0
    4.1431   -5.4564    1.4573 C   0  0  0  0  0  0  0  0  0  0  0  0
    3.0370   -6.2025    1.3825 C   0  0  0  0  0  0  0  0  0  0  0  0
    2.0219   -5.6940    0.4324 C   0  0  2  0  0  0  0  0  0  0  0  0
    2.4757   -4.2476    0.2086 C   0  0  0  0  0  0  0  0  0  0  0  0
    4.0087   -4.2783    0.4786 C   0  0  1  0  0  0  0  0  0  0  0  0
    4.5703   -2.9215    0.8922 C   0  0  0  0  0  0  0  0  0  0  0  0
    5.8507   -2.6130    1.4466 C   0  0  0  0  0  0  0  0  0  0  0  0
    5.8803   -1.2682    1.6763 C   0  0  0  0  0  0  0  0  0  0  0  0
    4.7408   -0.6870    1.2347 O   0  0  0  0  0  0  0  0  0  0  0  0
    3.9680   -1.6962    0.7495 C   0  0  0  0  0  0  0  0  0  0  0  0
    0.7784   -5.9658    1.0713 O   0  0  0  0  0  0  0  0  0  0  0  0
    0.9950   -7.2691    1.6218 C   0  0  2  0  0  0  0  0  0  0  0  0
   -0.0236   -7.7980    2.6297 C   0  0  0  0  0  0  0  0  0  0  0  0
    0.5251   -9.0744    3.3177 C   0  0  1  0  0  0  0  0  0  0  0  0
    1.7539   -9.7227    2.6211 C   0  0  2  0  0  0  0  0  0  0  0  0
    2.1339  -10.7784    3.6827 C   0  0  0  0  0  0  0  0  0  0  0  0
    1.0542  -11.8403    4.0451 C   0  0  0  0  0  0  0  0  0  0  0  0
    3.3796  -11.6588    3.3789 C   0  0  0  0  0  0  0  0  0  0  0  0
    2.3315   -9.6531    4.7162 C   0  0  1  0  0  0  0  0  0  0  0  0
    3.3823   -8.7134    4.0542 C   0  0  1  0  0  0  0  0  0  0  0  0
    4.6381   -9.1420    4.2078 F   0  0  0  0  0  0  0  0  0  0  0  0
    2.9198   -8.6408    2.5602 C   0  0  1  0  0  0  0  0  0  0  0  0
    3.9901   -8.9935    1.4963 C   0  0  0  0  0  0  0  0  0  0  0  0
    2.3645   -7.1992    2.2900 C   0  0  1  0  0  0  0  0  0  0  0  0
    1.0878   -8.8481    4.6619 N   0  0  0  0  0  0  0  0  0  0  0  0
    0.1591   -9.0578    5.7665 C   0  0  0  0  0  0  0  0  0  0  0  0
    5.4455   -4.7497    3.0294 H   0  0  0  0  0  0  0  0  0  0  0  0
    6.2289   -5.7505    1.7954 H   0  0  0  0  0  0  0  0  0  0  0  0
    5.2194   -6.5056    3.0370 H   0  0  0  0  0  0  0  0  0  0  0  0
    2.0933   -6.2508   -0.4976 H   0  0  0  0  0  0  0  0  0  0  0  0
    2.2190   -3.8543   -0.7772 H   0  0  0  0  0  0  0  0  0  0  0  0
    1.9952   -3.6089    0.9465 H   0  0  0  0  0  0  0  0  0  0  0  0
    4.5349   -4.5720   -0.4321 H   0  0  0  0  0  0  0  0  0  0  0  0
    6.6567   -3.2844    1.6838 H   0  0  0  0  0  0  0  0  0  0  0  0
    6.6116   -0.6122    2.1208 H   0  0  0  0  0  0  0  0  0  0  0  0
    3.0185   -1.3663    0.3481 H   0  0  0  0  0  0  0  0  0  0  0  0
    1.0452   -7.9682    0.7838 H   0  0  0  0  0  0  0  0  0  0  0  0
   -0.2803   -7.0382    3.3681 H   0  0  0  0  0  0  0  0  0  0  0  0
   -0.9435   -8.0362    2.0934 H   0  0  0  0  0  0  0  0  0  0  0  0
   -0.3082   -9.7709    3.3753 H   0  0  0  0  0  0  0  0  0  0  0  0
    1.5085  -10.1526    1.6541 H   0  0  0  0  0  0  0  0  0  0  0  0
    1.3942  -12.4723    4.8690 H   0  0  0  0  0  0  0  0  0  0  0  0
    0.8565  -12.4809    3.1867 H   0  0  0  0  0  0  0  0  0  0  0  0
    0.0920  -11.4653    4.3642 H   0  0  0  0  0  0  0  0  0  0  0  0
    3.5792  -12.3495    4.2026 H   0  0  0  0  0  0  0  0  0  0  0  0
    4.3145  -11.1356    3.2179 H   0  0  0  0  0  0  0  0  0  0  0  0
    3.2022  -12.2669    2.4894 H   0  0  0  0  0  0  0  0  0  0  0  0
    2.6000   -9.9699    5.7267 H   0  0  0  0  0  0  0  0  0  0  0  0
    3.3808   -7.7445    4.5566 H   0  0  0  0  0  0  0  0  0  0  0  0
    4.9157   -8.4454    1.6728 H   0  0  0  0  0  0  0  0  0  0  0  0
    3.6399   -8.7393    0.4956 H   0  0  0  0  0  0  0  0  0  0  0  0
    4.2336  -10.0504    1.4504 H   0  0  0  0  0  0  0  0  0  0  0  0
    2.2171   -6.6459    3.2151 H   0  0  0  0  0  0  0  0  0  0  0  0
    0.6398   -8.7704    6.7043 H   0  0  0  0  0  0  0  0  0  0  0  0
   -0.1660  -10.0924    5.8725 H   0  0  0  0  0  0  0  0  0  0  0  0
   -0.7297   -8.4353    5.6413 H   0  0  0  0  0  0  0  0  0  0  0  0
  1  2  1  0
  1 28  1  0
  1 29  1  0
  1 30  1  0
  2  6  1  0
  2  3  2  0
  3 25  1  0
  3  4  1  0
  4  5  1  0
  4 12  1  0
  4 31  1  6
  5  6  1  0
  5 32  1  0
  5 33  1  0
  6  7  1  0
  6 34  1  6
  7 11  2  0
  7  8  1  0
  8  9  2  0
  8 35  1  0
  9 10  1  0
  9 36  1  0
 10 11  1  0
 11 37  1  0
 12 13  1  0
 13 25  1  0
 13 14  1  0
 13 38  1  6
 14 15  1  0
 14 39  1  0
 14 40  1  0
 15 26  1  0
 15 16  1  0
 15 41  1  1
 16 23  1  0
 16 17  1  0
 16 42  1  6
 17 18  1  0
 17 19  1  0
 17 20  1  0
 18 43  1  0
 18 44  1  0
 18 45  1  0
 19 46  1  0
 19 47  1  0
 19 48  1  0
 20 21  1  0
 20 26  1  0
 20 49  1  1
 21 22  1  0
 21 23  1  0
 21 50  1  1
 23 24  1  6
 23 25  1  0
 24 51  1  0
 24 52  1  0
 24 53  1  0
 25 54  1  1
 26 27  1  0
 27 55  1  0
 27 56  1  0
 27 57  1  0
M  END
>  <i_m_ct_stereo_status>  (34) 
1

>  <s_m_source_file>  (34) 
/var/tmp/pbs.5076255.sched01/tmpcyubysk0/0_f5co88n.sdf

>  <i_m_source_file_index>  (34) 
15

>  <i_lp_mmshare_version>  (34) 
48012

>  <i_f3d_flags>  (34) 
0

>  <s_epik_input>  (34) 
W2NIXTFvW2NIXVtjSF1jMVtDQEBIXShDPTJbQ0gzXSlbQ0gyXVtDQEhdKE8zKUMyW0NASF00W0NASF0zW0NIMl1bQ0BASF0oW0NASF01W0NAQF00NltDSDNdKU4oW0NIM10pW0NASF0oW0NASF02RilDNShbQ0gzXSlbQ0gzXQ==

>  <s_epik_cmdline>  (34) 
J2VwaWtfcHl0aG9uJywgJy1waHQnLCAnMi4wJywgJy1waCcsICc3LjAnLCAnLXRuJywgJzgnLCAnLW1hJywgJzIwMCcsICctaW1hZScsICc8aW5maWxlLm1hZT4nLCAnLW9tYWUnLCAnPG91dGZpbGUubWFlPic=

>  <r_epik_Ionization_Penalty>  (34) 
1.35974

>  <r_epik_Ionization_Penalty_Charging>  (34) 
0

>  <r_epik_Ionization_Penalty_Neutral>  (34) 
1.35974

>  <r_epik_State_Penalty>  (34) 
1.43852

>  <r_epik_Charging_Adjusted_Penalty>  (34) 
1.43852

>  <i_epik_Tot_Q>  (34) 
0

>  <i_epik_Tot_abs_Q>  (34) 
0

>  <s_lp_Force_Field>  (34) 
OPLS3e

>  <r_lp_Energy>  (34) 
71.6828

>  <b_lp_Chiralities_Consistent>  (34) 
1

>  <s_lp_Variant>  (34) 
11:0-2

>  <s_i_glide_gridfile>  (34) 
pfpi4k_grid

>  <i_i_glide_lignum>  (34) 
15

>  <i_i_glide_rotatable_bonds>  (34) 
1

>  <r_i_docking_score>  (34) 
-3.37024

>  <r_i_glide_ligand_efficiency>  (34) 
-0.124824

>  <r_i_glide_ligand_efficiency_sa>  (34) 
-0.374471

>  <r_i_glide_ligand_efficiency_ln>  (34) 
-0.784537

>  <r_i_glide_gscore>  (34) 
-3.37024

>  <r_i_glide_lipo>  (34) 
-0.477062

>  <r_i_glide_hbond>  (34) 
-0.16

>  <r_i_glide_metal>  (34) 
-0

>  <r_i_glide_rewards>  (34) 
-0.876217

>  <r_i_glide_evdw>  (34) 
-21.6215

>  <r_i_glide_ecoul>  (34) 
-6.1012

>  <r_i_glide_erotb>  (34) 
0.139878

>  <r_i_glide_esite>  (34) 
-0.000586644

>  <r_i_glide_emodel>  (34) 
-33.287

>  <r_i_glide_energy>  (34) 
-27.7227

>  <r_i_glide_einternal>  (34) 
1.08628

>  <r_i_glide_intrahb_reward>  (34) 
-0

>  <i_i_glide_confnum>  (34) 
4

>  <i_i_glide_posenum>  (34) 
9

>  <r_i_glide_eff_state_penalty>  (34) 
0

>  <ligand_id>  (34) 
11

>  <original_smiles>  (34) 
CC1=C2C(CC1c1ccoc1)OC1CC3C4C(C)(C)C(C(F)C4(C)C21)N3C

>  <smiles>  (34) 
[H]c1oc([H])c(C2([H])C(C([H])([H])[H])=C3C([H])(OC4([H])C([H])([H])C5([H])N(C([H])([H])[H])C6([H])C([H])(F)C(C([H])([H])[H])(C34[H])C5([H])C6(C([H])([H])[H])C([H])([H])[H])C2([H])[H])c1[H]

$$$$
11:1:1
     RDKit          3D

 57 62  0  0  1  0  0  0  0  0999 V2000
    5.2872   -5.5682    2.6265 C   0  0  0  0  0  0  0  0  0  0  0  0
    4.1065   -5.4161    1.6858 C   0  0  0  0  0  0  0  0  0  0  0  0
    3.0139   -6.1818    1.5650 C   0  0  0  0  0  0  0  0  0  0  0  0
    2.0141   -5.6400    0.6132 C   0  0  2  0  0  0  0  0  0  0  0  0
    2.4614   -4.1781    0.4488 C   0  0  0  0  0  0  0  0  0  0  0  0
    3.9840   -4.2217    0.7472 C   0  0  1  0  0  0  0  0  0  0  0  0
    4.5341   -2.9023    1.2355 C   0  0  0  0  0  0  0  0  0  0  0  0
    5.4190   -2.0260    0.5367 C   0  0  0  0  0  0  0  0  0  0  0  0
    5.6247   -0.9421    1.3408 C   0  0  0  0  0  0  0  0  0  0  0  0
    4.9213   -1.0642    2.4953 O   0  0  0  0  0  0  0  0  0  0  0  0
    4.2653   -2.2539    2.4126 C   0  0  0  0  0  0  0  0  0  0  0  0
    0.7584   -5.9408    1.2186 O   0  0  0  0  0  0  0  0  0  0  0  0
    0.9667   -7.2558    1.7461 C   0  0  2  0  0  0  0  0  0  0  0  0
   -0.0669   -7.8161    2.7219 C   0  0  0  0  0  0  0  0  0  0  0  0
    0.4790   -9.1094    3.3805 C   0  0  1  0  0  0  0  0  0  0  0  0
    1.7223   -9.7319    2.6818 C   0  0  2  0  0  0  0  0  0  0  0  0
    2.0903  -10.8137    3.7231 C   0  0  0  0  0  0  0  0  0  0  0  0
    1.0080  -11.8860    4.0369 C   0  0  0  0  0  0  0  0  0  0  0  0
    3.3445  -11.6800    3.4172 C   0  0  0  0  0  0  0  0  0  0  0  0
    2.2609   -9.7185    4.7940 C   0  0  1  0  0  0  0  0  0  0  0  0
    3.3168   -8.7573    4.1786 C   0  0  1  0  0  0  0  0  0  0  0  0
    4.5721   -9.1795    4.3442 F   0  0  0  0  0  0  0  0  0  0  0  0
    2.8811   -8.6436    2.6802 C   0  0  1  0  0  0  0  0  0  0  0  0
    3.9709   -8.9560    1.6262 C   0  0  0  0  0  0  0  0  0  0  0  0
    2.3242   -7.1955    2.4414 C   0  0  1  0  0  0  0  0  0  0  0  0
    1.0200   -8.9159    4.7384 N   0  0  0  0  0  0  0  0  0  0  0  0
    0.0800   -9.1683    5.8231 C   0  0  0  0  0  0  0  0  0  0  0  0
    5.4263   -4.6753    3.2341 H   0  0  0  0  0  0  0  0  0  0  0  0
    6.1931   -5.7025    2.0337 H   0  0  0  0  0  0  0  0  0  0  0  0
    5.1796   -6.4286    3.2905 H   0  0  0  0  0  0  0  0  0  0  0  0
    2.1182   -6.1815   -0.3266 H   0  0  0  0  0  0  0  0  0  0  0  0
    2.2268   -3.7443   -0.5224 H   0  0  0  0  0  0  0  0  0  0  0  0
    1.9716   -3.5590    1.2032 H   0  0  0  0  0  0  0  0  0  0  0  0
    4.5298   -4.4897   -0.1564 H   0  0  0  0  0  0  0  0  0  0  0  0
    5.8516   -2.1592   -0.4408 H   0  0  0  0  0  0  0  0  0  0  0  0
    6.2004   -0.0368    1.2428 H   0  0  0  0  0  0  0  0  0  0  0  0
    3.6434   -2.4816    3.2650 H   0  0  0  0  0  0  0  0  0  0  0  0
    1.0374   -7.9270    0.8904 H   0  0  0  0  0  0  0  0  0  0  0  0
   -0.3430   -7.0806    3.4793 H   0  0  0  0  0  0  0  0  0  0  0  0
   -0.9796   -8.0448    2.1646 H   0  0  0  0  0  0  0  0  0  0  0  0
   -0.3517   -9.8104    3.4065 H   0  0  0  0  0  0  0  0  0  0  0  0
    1.4969  -10.1285    1.6898 H   0  0  0  0  0  0  0  0  0  0  0  0
    1.3377  -12.5395    4.8473 H   0  0  0  0  0  0  0  0  0  0  0  0
    0.8300  -12.5031    3.1580 H   0  0  0  0  0  0  0  0  0  0  0  0
    0.0378  -11.5275    4.3489 H   0  0  0  0  0  0  0  0  0  0  0  0
    3.5316  -12.3937    4.2217 H   0  0  0  0  0  0  0  0  0  0  0  0
    4.2786  -11.1492    3.2906 H   0  0  0  0  0  0  0  0  0  0  0  0
    3.1872  -12.2610    2.5076 H   0  0  0  0  0  0  0  0  0  0  0  0
    2.5137  -10.0677    5.7991 H   0  0  0  0  0  0  0  0  0  0  0  0
    3.3031   -7.8061    4.7110 H   0  0  0  0  0  0  0  0  0  0  0  0
    4.8890   -8.4103    1.8371 H   0  0  0  0  0  0  0  0  0  0  0  0
    3.6355   -8.6722    0.6302 H   0  0  0  0  0  0  0  0  0  0  0  0
    4.2180  -10.0101    1.5513 H   0  0  0  0  0  0  0  0  0  0  0  0
    2.1518   -6.6704    3.3828 H   0  0  0  0  0  0  0  0  0  0  0  0
    0.5308   -8.8893    6.7781 H   0  0  0  0  0  0  0  0  0  0  0  0
   -0.2008  -10.2156    5.9082 H   0  0  0  0  0  0  0  0  0  0  0  0
   -0.8242   -8.5714    5.6847 H   0  0  0  0  0  0  0  0  0  0  0  0
  1  2  1  0
  1 28  1  0
  1 29  1  0
  1 30  1  0
  2  6  1  0
  2  3  2  0
  3 25  1  0
  3  4  1  0
  4  5  1  0
  4 12  1  0
  4 31  1  6
  5  6  1  0
  5 32  1  0
  5 33  1  0
  6  7  1  0
  6 34  1  6
  7 11  2  0
  7  8  1  0
  8  9  2  0
  8 35  1  0
  9 10  1  0
  9 36  1  0
 10 11  1  0
 11 37  1  0
 12 13  1  0
 13 25  1  0
 13 14  1  0
 13 38  1  6
 14 15  1  0
 14 39  1  0
 14 40  1  0
 15 26  1  0
 15 16  1  0
 15 41  1  1
 16 23  1  0
 16 17  1  0
 16 42  1  6
 17 18  1  0
 17 19  1  0
 17 20  1  0
 18 43  1  0
 18 44  1  0
 18 45  1  0
 19 46  1  0
 19 47  1  0
 19 48  1  0
 20 21  1  0
 20 26  1  0
 20 49  1  1
 21 22  1  0
 21 23  1  0
 21 50  1  1
 23 24  1  6
 23 25  1  0
 24 51  1  0
 24 52  1  0
 24 53  1  0
 25 54  1  1
 26 27  1  0
 27 55  1  0
 27 56  1  0
 27 57  1  0
M  END
>  <i_m_ct_stereo_status>  (35) 
1

>  <s_m_source_file>  (35) 
/var/tmp/pbs.5076255.sched01/tmpcyubysk0/0_f5co88n.sdf

>  <i_m_source_file_index>  (35) 
15

>  <i_lp_mmshare_version>  (35) 
48012

>  <i_f3d_flags>  (35) 
0

>  <s_epik_input>  (35) 
W2NIXTFvW2NIXVtjSF1jMVtDQEBIXShDPTJbQ0gzXSlbQ0gyXVtDQEhdKE8zKUMyW0NASF00W0NASF0zW0NIMl1bQ0BASF0oW0NASF01W0NAQF00NltDSDNdKU4oW0NIM10pW0NASF0oW0NASF02RilDNShbQ0gzXSlbQ0gzXQ==

>  <s_epik_cmdline>  (35) 
J2VwaWtfcHl0aG9uJywgJy1waHQnLCAnMi4wJywgJy1waCcsICc3LjAnLCAnLXRuJywgJzgnLCAnLW1hJywgJzIwMCcsICctaW1hZScsICc8aW5maWxlLm1hZT4nLCAnLW9tYWUnLCAnPG91dGZpbGUubWFlPic=

>  <r_epik_Ionization_Penalty>  (35) 
1.35974

>  <r_epik_Ionization_Penalty_Charging>  (35) 
0

>  <r_epik_Ionization_Penalty_Neutral>  (35) 
1.35974

>  <r_epik_State_Penalty>  (35) 
1.43852

>  <r_epik_Charging_Adjusted_Penalty>  (35) 
1.43852

>  <i_epik_Tot_Q>  (35) 
0

>  <i_epik_Tot_abs_Q>  (35) 
0

>  <s_lp_Force_Field>  (35) 
OPLS3e

>  <r_lp_Energy>  (35) 
71.6828

>  <b_lp_Chiralities_Consistent>  (35) 
1

>  <s_lp_Variant>  (35) 
11:0-2

>  <s_i_glide_gridfile>  (35) 
pfpi4k_grid

>  <i_i_glide_lignum>  (35) 
15

>  <i_i_glide_rotatable_bonds>  (35) 
1

>  <r_i_docking_score>  (35) 
-3.10273

>  <r_i_glide_ligand_efficiency>  (35) 
-0.114916

>  <r_i_glide_ligand_efficiency_sa>  (35) 
-0.344748

>  <r_i_glide_ligand_efficiency_ln>  (35) 
-0.722265

>  <r_i_glide_gscore>  (35) 
-3.10273

>  <r_i_glide_lipo>  (35) 
-0.365816

>  <r_i_glide_hbond>  (35) 
-0.16

>  <r_i_glide_metal>  (35) 
-0

>  <r_i_glide_rewards>  (35) 
-0.876217

>  <r_i_glide_evdw>  (35) 
-21.3464

>  <r_i_glide_ecoul>  (35) 
-5.15414

>  <r_i_glide_erotb>  (35) 
0.139878

>  <r_i_glide_esite>  (35) 
-0.000136716

>  <r_i_glide_emodel>  (35) 
-32.1443

>  <r_i_glide_energy>  (35) 
-26.5005

>  <r_i_glide_einternal>  (35) 
0.0717144

>  <r_i_glide_intrahb_reward>  (35) 
-0

>  <i_i_glide_confnum>  (35) 
4

>  <i_i_glide_posenum>  (35) 
18

>  <r_i_glide_eff_state_penalty>  (35) 
0

>  <ligand_id>  (35) 
11

>  <original_smiles>  (35) 
CC1=C2C(CC1c1ccoc1)OC1CC3C4C(C)(C)C(C(F)C4(C)C21)N3C

>  <smiles>  (35) 
[H]c1oc([H])c(C2([H])C(C([H])([H])[H])=C3C([H])(OC4([H])C([H])([H])C5([H])N(C([H])([H])[H])C6([H])C([H])(F)C(C([H])([H])[H])(C34[H])C5([H])C6(C([H])([H])[H])C([H])([H])[H])C2([H])[H])c1[H]

$$$$
11:1:2
     RDKit          3D

 57 62  0  0  1  0  0  0  0  0999 V2000
    2.6002   -3.4159    1.5587 C   0  0  0  0  0  0  0  0  0  0  0  0
    3.6698   -4.4436    1.2454 C   0  0  0  0  0  0  0  0  0  0  0  0
    3.7495   -5.7151    1.6617 C   0  0  0  0  0  0  0  0  0  0  0  0
    4.8831   -6.4639    1.0713 C   0  0  2  0  0  0  0  0  0  0  0  0
    5.3076   -5.5678   -0.0943 C   0  0  0  0  0  0  0  0  0  0  0  0
    4.8399   -4.1416    0.3093 C   0  0  1  0  0  0  0  0  0  0  0  0
    4.6084   -3.2013   -0.8685 C   0  0  0  0  0  0  0  0  0  0  0  0
    4.0656   -1.8811   -0.8642 C   0  0  0  0  0  0  0  0  0  0  0  0
    4.0317   -1.4507   -2.1594 C   0  0  0  0  0  0  0  0  0  0  0  0
    4.5904   -2.3783   -2.9771 O   0  0  0  0  0  0  0  0  0  0  0  0
    4.9418   -3.4198   -2.1790 C   0  0  0  0  0  0  0  0  0  0  0  0
    4.3597   -7.7630    0.8117 O   0  0  0  0  0  0  0  0  0  0  0  0
    3.5526   -8.0081    1.9687 C   0  0  2  0  0  0  0  0  0  0  0  0
    2.5895   -9.1916    1.9484 C   0  0  0  0  0  0  0  0  0  0  0  0
    1.6283   -9.1040    3.1642 C   0  0  1  0  0  0  0  0  0  0  0  0
    2.0527   -8.1113    4.2856 C   0  0  2  0  0  0  0  0  0  0  0  0
    0.7770   -8.1433    5.1580 C   0  0  0  0  0  0  0  0  0  0  0  0
    0.3589   -9.5197    5.7603 C   0  0  0  0  0  0  0  0  0  0  0  0
    0.7679   -7.2198    6.4109 C   0  0  0  0  0  0  0  0  0  0  0  0
   -0.0555   -7.6650    3.9541 C   0  0  1  0  0  0  0  0  0  0  0  0
    0.6392   -6.3413    3.5319 C   0  0  1  0  0  0  0  0  0  0  0  0
    0.2571   -5.2948    4.2653 F   0  0  0  0  0  0  0  0  0  0  0  0
    2.1644   -6.6688    3.6346 C   0  0  1  0  0  0  0  0  0  0  0  0
    3.0138   -5.7021    4.4952 C   0  0  0  0  0  0  0  0  0  0  0  0
    2.7528   -6.7221    2.1769 C   0  0  1  0  0  0  0  0  0  0  0  0
    0.2894   -8.5763    2.8416 N   0  0  0  0  0  0  0  0  0  0  0  0
   -0.7140   -9.5880    2.5262 C   0  0  0  0  0  0  0  0  0  0  0  0
    2.1469   -3.0347    0.6455 H   0  0  0  0  0  0  0  0  0  0  0  0
    3.0560   -2.5717    2.0831 H   0  0  0  0  0  0  0  0  0  0  0  0
    1.8072   -3.8171    2.1923 H   0  0  0  0  0  0  0  0  0  0  0  0
    5.6668   -6.5100    1.8270 H   0  0  0  0  0  0  0  0  0  0  0  0
    6.3768   -5.6218   -0.2907 H   0  0  0  0  0  0  0  0  0  0  0  0
    4.7741   -5.8957   -0.9864 H   0  0  0  0  0  0  0  0  0  0  0  0
    5.6048   -3.6781    0.9310 H   0  0  0  0  0  0  0  0  0  0  0  0
    3.6835   -1.3113   -0.0298 H   0  0  0  0  0  0  0  0  0  0  0  0
    3.6573   -0.5636   -2.6410 H   0  0  0  0  0  0  0  0  0  0  0  0
    5.3943   -4.2464   -2.7109 H   0  0  0  0  0  0  0  0  0  0  0  0
    4.2454   -8.1312    2.8046 H   0  0  0  0  0  0  0  0  0  0  0  0
    2.0431   -9.2354    1.0036 H   0  0  0  0  0  0  0  0  0  0  0  0
    3.1799  -10.1098    1.9994 H   0  0  0  0  0  0  0  0  0  0  0  0
    1.5431  -10.1151    3.5477 H   0  0  0  0  0  0  0  0  0  0  0  0
    2.9591   -8.4239    4.8048 H   0  0  0  0  0  0  0  0  0  0  0  0
   -0.6016   -9.4443    6.2705 H   0  0  0  0  0  0  0  0  0  0  0  0
    1.0888   -9.8562    6.4959 H   0  0  0  0  0  0  0  0  0  0  0  0
    0.2374  -10.3407    5.0629 H   0  0  0  0  0  0  0  0  0  0  0  0
   -0.1804   -7.2924    6.9451 H   0  0  0  0  0  0  0  0  0  0  0  0
    0.9075   -6.1609    6.2346 H   0  0  0  0  0  0  0  0  0  0  0  0
    1.5493   -7.5254    7.1068 H   0  0  0  0  0  0  0  0  0  0  0  0
   -1.1283   -7.5637    4.1222 H   0  0  0  0  0  0  0  0  0  0  0  0
    0.3328   -6.0655    2.5264 H   0  0  0  0  0  0  0  0  0  0  0  0
    2.8276   -4.6633    4.2257 H   0  0  0  0  0  0  0  0  0  0  0  0
    4.0755   -5.8993    4.3498 H   0  0  0  0  0  0  0  0  0  0  0  0
    2.8510   -5.8042    5.5628 H   0  0  0  0  0  0  0  0  0  0  0  0
    1.9653   -6.7470    1.4169 H   0  0  0  0  0  0  0  0  0  0  0  0
   -1.6402   -9.1048    2.2077 H   0  0  0  0  0  0  0  0  0  0  0  0
   -0.9557  -10.2341    3.3669 H   0  0  0  0  0  0  0  0  0  0  0  0
   -0.3829  -10.2329    1.7106 H   0  0  0  0  0  0  0  0  0  0  0  0
  1  2  1  0
  1 28  1  0
  1 29  1  0
  1 30  1  0
  2  6  1  0
  2  3  2  0
  3 25  1  0
  3  4  1  0
  4  5  1  0
  4 12  1  0
  4 31  1  1
  5  6  1  0
  5 32  1  0
  5 33  1  0
  6  7  1  0
  6 34  1  1
  7 11  2  0
  7  8  1  0
  8  9  2  0
  8 35  1  0
  9 10  1  0
  9 36  1  0
 10 11  1  0
 11 37  1  0
 12 13  1  0
 13 25  1  0
 13 14  1  0
 13 38  1  1
 14 15  1  0
 14 39  1  0
 14 40  1  0
 15 26  1  0
 15 16  1  0
 15 41  1  1
 16 23  1  0
 16 17  1  0
 16 42  1  1
 17 18  1  0
 17 19  1  0
 17 20  1  0
 18 43  1  0
 18 44  1  0
 18 45  1  0
 19 46  1  0
 19 47  1  0
 19 48  1  0
 20 21  1  0
 20 26  1  0
 20 49  1  1
 21 22  1  0
 21 23  1  0
 21 50  1  6
 23 24  1  1
 23 25  1  0
 24 51  1  0
 24 52  1  0
 24 53  1  0
 25 54  1  6
 26 27  1  0
 27 55  1  0
 27 56  1  0
 27 57  1  0
M  END
>  <i_m_ct_stereo_status>  (36) 
1

>  <s_m_source_file>  (36) 
/var/tmp/pbs.5076255.sched01/tmpcyubysk0/0_f5co88n.sdf

>  <i_m_source_file_index>  (36) 
15

>  <i_lp_mmshare_version>  (36) 
48012

>  <i_f3d_flags>  (36) 
0

>  <s_epik_input>  (36) 
W2NIXTFvW2NIXVtjSF1jMVtDQEBIXShDPTJbQ0gzXSlbQ0gyXVtDQEhdKE8zKUMyW0NASF00W0NASF0zW0NIMl1bQ0BASF0oW0NASF01W0NAQF00NltDSDNdKU4oW0NIM10pW0NASF0oW0NASF02RilDNShbQ0gzXSlbQ0gzXQ==

>  <s_epik_cmdline>  (36) 
J2VwaWtfcHl0aG9uJywgJy1waHQnLCAnMi4wJywgJy1waCcsICc3LjAnLCAnLXRuJywgJzgnLCAnLW1hJywgJzIwMCcsICctaW1hZScsICc8aW5maWxlLm1hZT4nLCAnLW9tYWUnLCAnPG91dGZpbGUubWFlPic=

>  <r_epik_Ionization_Penalty>  (36) 
1.35974

>  <r_epik_Ionization_Penalty_Charging>  (36) 
0

>  <r_epik_Ionization_Penalty_Neutral>  (36) 
1.35974

>  <r_epik_State_Penalty>  (36) 
1.43852

>  <r_epik_Charging_Adjusted_Penalty>  (36) 
1.43852

>  <i_epik_Tot_Q>  (36) 
0

>  <i_epik_Tot_abs_Q>  (36) 
0

>  <s_lp_Force_Field>  (36) 
OPLS3e

>  <r_lp_Energy>  (36) 
71.6828

>  <b_lp_Chiralities_Consistent>  (36) 
1

>  <s_lp_Variant>  (36) 
11:0-2

>  <s_i_glide_gridfile>  (36) 
pfpi4k_grid

>  <i_i_glide_lignum>  (36) 
15

>  <i_i_glide_rotatable_bonds>  (36) 
1

>  <r_i_docking_score>  (36) 
-2.5697

>  <r_i_glide_ligand_efficiency>  (36) 
-0.0951741

>  <r_i_glide_ligand_efficiency_sa>  (36) 
-0.285522

>  <r_i_glide_ligand_efficiency_ln>  (36) 
-0.598184

>  <r_i_glide_gscore>  (36) 
-2.5697

>  <r_i_glide_lipo>  (36) 
-0.427637

>  <r_i_glide_hbond>  (36) 
0

>  <r_i_glide_metal>  (36) 
-0

>  <r_i_glide_rewards>  (36) 
-0.876217

>  <r_i_glide_evdw>  (36) 
-25.5148

>  <r_i_glide_ecoul>  (36) 
-0.706479

>  <r_i_glide_erotb>  (36) 
0.139878

>  <r_i_glide_esite>  (36) 
-0.0240142

>  <r_i_glide_emodel>  (36) 
-30.2848

>  <r_i_glide_energy>  (36) 
-26.2213

>  <r_i_glide_einternal>  (36) 
0.959068

>  <r_i_glide_intrahb_reward>  (36) 
-0

>  <i_i_glide_confnum>  (36) 
5

>  <i_i_glide_posenum>  (36) 
14

>  <r_i_glide_eff_state_penalty>  (36) 
0

>  <ligand_id>  (36) 
11

>  <original_smiles>  (36) 
CC1=C2C(CC1c1ccoc1)OC1CC3C4C(C)(C)C(C(F)C4(C)C21)N3C

>  <smiles>  (36) 
[H]c1oc([H])c(C2([H])C(C([H])([H])[H])=C3C([H])(OC4([H])C([H])([H])C5([H])N(C([H])([H])[H])C6([H])C([H])(F)C(C([H])([H])[H])(C34[H])C5([H])C6(C([H])([H])[H])C([H])([H])[H])C2([H])[H])c1[H]

$$$$
12:0:0
     RDKit          3D

 65 70  0  0  1  0  0  0  0  0999 V2000
    7.3759   -5.5093    0.5515 C   0  0  0  0  0  0  0  0  0  0  0  0
    7.0638   -4.1085   -0.0089 C   0  0  2  0  0  0  0  0  0  0  0  0
    7.2199   -3.0343    1.0478 C   0  0  0  0  0  0  0  0  0  0  0  0
    6.4020   -1.7550    0.8446 C   0  0  0  0  0  0  0  0  0  0  0  0
    4.8638   -1.9331    0.6744 C   0  0  1  0  0  0  0  0  0  0  0  0
    4.4239   -0.7604   -0.2346 C   0  0  0  0  0  0  0  0  0  0  0  0
    4.8287   -0.9010   -1.5833 O   0  0  0  0  0  0  0  0  0  0  0  0
    4.0233   -1.7508   -2.3403 C   0  0  1  0  0  0  0  0  0  0  0  0
    3.3120   -0.8659   -3.3685 C   0  0  0  0  0  0  0  0  0  0  0  0
    4.9154   -2.8024   -3.0255 C   0  0  0  0  0  0  0  0  0  0  0  0
    6.0818   -3.2005   -2.1153 C   0  0  0  0  0  0  0  0  0  0  0  0
    5.7400   -3.9605   -0.8043 C   0  0  2  0  0  0  0  0  0  0  0  0
    4.5553   -3.3733    0.0586 C   0  0  2  0  0  0  0  0  0  0  0  0
    3.2676   -3.4334   -0.8070 C   0  0  1  0  0  0  0  0  0  0  0  0
    2.2243   -3.6135    0.0824 O   0  0  0  0  0  0  0  0  0  0  0  0
    2.5906   -4.5305    1.0455 C   0  0  1  0  0  0  0  0  0  0  0  0
    2.1916   -5.8139    0.6616 O   0  0  0  0  0  0  0  0  0  0  0  0
    1.7391   -6.6069    1.7181 C   0  0  0  0  0  0  0  0  0  0  0  0
    1.7896   -7.9458    1.3507 O   0  0  0  0  0  0  0  0  0  0  0  0
    1.4719   -8.8288    2.4203 C   0  0  0  0  0  0  0  0  0  0  0  0
    0.0638   -8.4934    2.9214 C   0  0  0  0  0  0  0  0  0  0  0  0
   -0.0125   -6.9951    3.2336 C   0  0  0  0  0  0  0  0  0  0  0  0
    0.4358   -6.2517    2.0961 O   0  0  0  0  0  0  0  0  0  0  0  0
    4.1261   -4.4322    1.1386 C   0  0  2  0  0  0  0  0  0  0  0  0
    4.5303   -4.2353    2.6185 C   0  0  0  0  0  0  0  0  0  0  0  0
    4.5360   -2.7759    3.1054 C   0  0  0  0  0  0  0  0  0  0  0  0
    4.1046   -1.7587    2.0402 C   0  0  1  0  0  0  0  0  0  0  0  0
    4.0826   -0.3355    2.6500 C   0  0  0  0  0  0  0  0  0  0  0  0
    2.9955   -2.3394   -1.6174 O   0  0  0  0  0  0  0  0  0  0  0  0
    6.6657   -5.8405    1.2997 H   0  0  0  0  0  0  0  0  0  0  0  0
    8.3674   -5.5446    1.0002 H   0  0  0  0  0  0  0  0  0  0  0  0
    7.3770   -6.2547   -0.2340 H   0  0  0  0  0  0  0  0  0  0  0  0
    7.8807   -3.9203   -0.7071 H   0  0  0  0  0  0  0  0  0  0  0  0
    7.0147   -3.4421    2.0281 H   0  0  0  0  0  0  0  0  0  0  0  0
    8.2726   -2.7650    1.0610 H   0  0  0  0  0  0  0  0  0  0  0  0
    6.6209   -1.0772    1.6648 H   0  0  0  0  0  0  0  0  0  0  0  0
    6.8256   -1.2462   -0.0169 H   0  0  0  0  0  0  0  0  0  0  0  0
    3.3530   -0.5764   -0.1644 H   0  0  0  0  0  0  0  0  0  0  0  0
    4.8960    0.1503    0.1209 H   0  0  0  0  0  0  0  0  0  0  0  0
    2.6556   -0.1826   -2.8363 H   0  0  0  0  0  0  0  0  0  0  0  0
    2.7017   -1.4820   -4.0247 H   0  0  0  0  0  0  0  0  0  0  0  0
    4.0229   -0.2932   -3.9591 H   0  0  0  0  0  0  0  0  0  0  0  0
    4.3237   -3.6396   -3.3954 H   0  0  0  0  0  0  0  0  0  0  0  0
    5.3445   -2.3251   -3.8978 H   0  0  0  0  0  0  0  0  0  0  0  0
    6.7249   -3.8406   -2.7169 H   0  0  0  0  0  0  0  0  0  0  0  0
    6.6976   -2.3238   -1.9160 H   0  0  0  0  0  0  0  0  0  0  0  0
    5.4383   -4.9574   -1.1282 H   0  0  0  0  0  0  0  0  0  0  0  0
    3.2852   -4.2962   -1.4618 H   0  0  0  0  0  0  0  0  0  0  0  0
    2.0793   -4.1954    1.9506 H   0  0  0  0  0  0  0  0  0  0  0  0
    2.4151   -6.4712    2.5671 H   0  0  0  0  0  0  0  0  0  0  0  0
    1.5173   -9.8569    2.0621 H   0  0  0  0  0  0  0  0  0  0  0  0
    2.2068   -8.7293    3.2206 H   0  0  0  0  0  0  0  0  0  0  0  0
   -0.6705   -8.7566    2.1573 H   0  0  0  0  0  0  0  0  0  0  0  0
   -0.1773   -9.0872    3.8050 H   0  0  0  0  0  0  0  0  0  0  0  0
   -1.0358   -6.7133    3.4888 H   0  0  0  0  0  0  0  0  0  0  0  0
    0.6098   -6.7491    4.0942 H   0  0  0  0  0  0  0  0  0  0  0  0
    4.4905   -5.4141    0.8396 H   0  0  0  0  0  0  0  0  0  0  0  0
    3.8988   -4.8336    3.2753 H   0  0  0  0  0  0  0  0  0  0  0  0
    5.5160   -4.6597    2.7890 H   0  0  0  0  0  0  0  0  0  0  0  0
    3.8679   -2.6942    3.9624 H   0  0  0  0  0  0  0  0  0  0  0  0
    5.5234   -2.5130    3.4840 H   0  0  0  0  0  0  0  0  0  0  0  0
    3.0537   -1.9519    1.8332 H   0  0  0  0  0  0  0  0  0  0  0  0
    5.0779    0.0433    2.8737 H   0  0  0  0  0  0  0  0  0  0  0  0
    3.5136   -0.3338    3.5789 H   0  0  0  0  0  0  0  0  0  0  0  0
    3.5807    0.3809    1.9988 H   0  0  0  0  0  0  0  0  0  0  0  0
  1  2  1  0
  1 30  1  0
  1 31  1  0
  1 32  1  0
  2 12  1  0
  2  3  1  0
  2 33  1  6
  3  4  1  0
  3 34  1  0
  3 35  1  0
  5  4  1  1
  4 36  1  0
  4 37  1  0
 13  5  1  1
  5 27  1  0
  5  6  1  0
  6  7  1  0
  6 38  1  0
  6 39  1  0
  7  8  1  0
  8 29  1  0
  8  9  1  6
  8 10  1  0
  9 40  1  0
  9 41  1  0
  9 42  1  0
 10 11  1  0
 10 43  1  0
 10 44  1  0
 11 12  1  0
 11 45  1  0
 11 46  1  0
 12 13  1  0
 12 47  1  6
 13 24  1  0
 13 14  1  0
 14 15  1  0
 14 29  1  0
 14 48  1  6
 15 16  1  0
 16 17  1  0
 16 24  1  0
 16 49  1  1
 17 18  1  0
 18 23  1  0
 18 19  1  0
 18 50  1  0
 19 20  1  0
 20 21  1  0
 20 51  1  0
 20 52  1  0
 21 22  1  0
 21 53  1  0
 21 54  1  0
 22 23  1  0
 22 55  1  0
 22 56  1  0
 24 25  1  0
 24 57  1  6
 25 26  1  0
 25 58  1  0
 25 59  1  0
 26 27  1  0
 26 60  1  0
 26 61  1  0
 27 28  1  0
 27 62  1  6
 28 63  1  0
 28 64  1  0
 28 65  1  0
M  END
>  <i_m_ct_stereo_status>  (37) 
1

>  <s_m_source_file>  (37) 
/var/tmp/pbs.5076255.sched01/tmpcyubysk0/0_f5co88n.sdf

>  <i_m_source_file_index>  (37) 
16

>  <i_lp_mmshare_version>  (37) 
48012

>  <i_f3d_flags>  (37) 
0

>  <s_epik_input>  (37) 
W0NIMl0xW0NIMl1bQ0BASF0oW0NIM10pW0NASF0oW0NAQF0yM1tDQEBdMTQ1KVtDSDJdW0NIMl1bQ0BdKFtDSDNdKShPW0NIMl00KU9bQ0BASF0yT1tDQEhdKFtDQEBIXTNbQ0gyXVtDSDJdW0NASF01W0NIM10pT1tDSF02T1tDSDJdW0NIMl1bQ0gyXU82

>  <s_epik_cmdline>  (37) 
J2VwaWtfcHl0aG9uJywgJy1waHQnLCAnMi4wJywgJy1waCcsICc3LjAnLCAnLXRuJywgJzgnLCAnLW1hJywgJzIwMCcsICctaW1hZScsICc8aW5maWxlLm1hZT4nLCAnLW9tYWUnLCAnPG91dGZpbGUubWFlPic=

>  <r_lp_tautomer_probability>  (37) 
1

>  <r_epik_Ionization_Penalty>  (37) 
2.66484e-12

>  <r_epik_Ionization_Penalty_Charging>  (37) 
0

>  <r_epik_Ionization_Penalty_Neutral>  (37) 
2.66484e-12

>  <r_epik_State_Penalty>  (37) 
-0

>  <r_epik_Charging_Adjusted_Penalty>  (37) 
0

>  <i_epik_Tot_Q>  (37) 
0

>  <i_epik_Tot_abs_Q>  (37) 
0

>  <s_epik_Chemistry_Notes>  (37) 
This compound contains an acetal/aminal-like group ( X-CH(R)-Y where X, Y are N, S, or O) that may be acid/base labile, releasing an aldehyde.

>  <s_lp_Force_Field>  (37) 
OPLS3e

>  <r_lp_Energy>  (37) 
61.668

>  <b_lp_Chiralities_Consistent>  (37) 
1

>  <s_lp_Variant>  (37) 
12:0-1

>  <s_i_glide_gridfile>  (37) 
pfpi4k_grid

>  <i_i_glide_lignum>  (37) 
16

>  <i_i_glide_rotatable_bonds>  (37) 
2

>  <r_i_docking_score>  (37) 
-3.51514

>  <r_i_glide_ligand_efficiency>  (37) 
-0.121212

>  <r_i_glide_ligand_efficiency_sa>  (37) 
-0.372401

>  <r_i_glide_ligand_efficiency_ln>  (37) 
-0.804879

>  <r_i_glide_gscore>  (37) 
-3.51514

>  <r_i_glide_lipo>  (37) 
-1.02188

>  <r_i_glide_hbond>  (37) 
-0.168753

>  <r_i_glide_metal>  (37) 
-0

>  <r_i_glide_rewards>  (37) 
-0.710953

>  <r_i_glide_evdw>  (37) 
-29.6689

>  <r_i_glide_ecoul>  (37) 
-1.87101

>  <r_i_glide_erotb>  (37) 
0.235862

>  <r_i_glide_esite>  (37) 
-0.0853202

>  <r_i_glide_emodel>  (37) 
-35.6079

>  <r_i_glide_energy>  (37) 
-31.5399

>  <r_i_glide_einternal>  (37) 
5.70624

>  <r_i_glide_intrahb_reward>  (37) 
-0

>  <i_i_glide_confnum>  (37) 
5

>  <i_i_glide_posenum>  (37) 
34

>  <r_i_glide_eff_state_penalty>  (37) 
0

>  <ligand_id>  (37) 
12

>  <original_smiles>  (37) 
CC1CCC23COC4(C)CCC1C21C(OC(OC2OCCCO2)C1CCC3C)O4

>  <smiles>  (37) 
[H]C1(OC2([H])OC3([H])OC4(C([H])([H])[H])OC([H])([H])C56C([H])([H])C([H])([H])C([H])(C([H])([H])[H])C([H])(C([H])([H])C4([H])[H])C35C2([H])C([H])([H])C([H])([H])C6([H])C([H])([H])[H])OC([H])([H])C([H])([H])C([H])([H])O1

$$$$
12:0:1
     RDKit          3D

 65 70  0  0  1  0  0  0  0  0999 V2000
    8.1745   -4.2806    0.7425 C   0  0  0  0  0  0  0  0  0  0  0  0
    7.4285   -3.2403   -0.1137 C   0  0  2  0  0  0  0  0  0  0  0  0
    7.2444   -1.8948    0.6100 C   0  0  0  0  0  0  0  0  0  0  0  0
    6.0345   -1.0785    0.1576 C   0  0  0  0  0  0  0  0  0  0  0  0
    4.6482   -1.7788    0.2371 C   0  0  1  0  0  0  0  0  0  0  0  0
    3.8738   -1.1208   -0.8982 C   0  0  0  0  0  0  0  0  0  0  0  0
    4.2230   -1.5175   -2.2073 O   0  0  0  0  0  0  0  0  0  0  0  0
    3.7045   -2.7432   -2.6033 C   0  0  1  0  0  0  0  0  0  0  0  0
    2.7299   -2.4629   -3.7333 C   0  0  0  0  0  0  0  0  0  0  0  0
    4.8791   -3.6121   -3.0687 C   0  0  0  0  0  0  0  0  0  0  0  0
    6.1304   -3.3284   -2.2232 C   0  0  0  0  0  0  0  0  0  0  0  0
    6.0995   -3.7546   -0.7331 C   0  0  2  0  0  0  0  0  0  0  0  0
    4.7953   -3.3451    0.0723 C   0  0  2  0  0  0  0  0  0  0  0  0
    3.5598   -4.0398   -0.5832 C   0  0  1  0  0  0  0  0  0  0  0  0
    2.6460   -4.2765    0.4262 O   0  0  0  0  0  0  0  0  0  0  0  0
    3.3096   -4.7027    1.5517 C   0  0  1  0  0  0  0  0  0  0  0  0
    3.3727   -6.1049    1.6025 O   0  0  0  0  0  0  0  0  0  0  0  0
    2.2723   -6.6928    2.2478 C   0  0  0  0  0  0  0  0  0  0  0  0
    2.5318   -8.0444    2.4584 O   0  0  0  0  0  0  0  0  0  0  0  0
    1.5537   -8.6747    3.2782 C   0  0  0  0  0  0  0  0  0  0  0  0
    0.1909   -8.5237    2.6012 C   0  0  0  0  0  0  0  0  0  0  0  0
   -0.0450   -7.0452    2.2691 C   0  0  0  0  0  0  0  0  0  0  0  0
    1.0699   -6.5192    1.5459 O   0  0  0  0  0  0  0  0  0  0  0  0
    4.7348   -4.1226    1.4285 C   0  0  2  0  0  0  0  0  0  0  0  0
    5.0893   -3.3911    2.7429 C   0  0  0  0  0  0  0  0  0  0  0  0
    4.6406   -1.9224    2.8218 C   0  0  0  0  0  0  0  0  0  0  0  0
    3.8825   -1.4461    1.5780 C   0  0  1  0  0  0  0  0  0  0  0  0
    3.4049    0.0093    1.7709 C   0  0  0  0  0  0  0  0  0  0  0  0
    2.9251   -3.3696   -1.6180 O   0  0  0  0  0  0  0  0  0  0  0  0
    7.6231   -4.5867    1.6294 H   0  0  0  0  0  0  0  0  0  0  0  0
    9.1306   -3.8914    1.0821 H   0  0  0  0  0  0  0  0  0  0  0  0
    8.3799   -5.1826    0.1643 H   0  0  0  0  0  0  0  0  0  0  0  0
    8.1242   -3.0466   -0.9378 H   0  0  0  0  0  0  0  0  0  0  0  0
    7.1610   -2.0434    1.6698 H   0  0  0  0  0  0  0  0  0  0  0  0
    8.1369   -1.2968    0.4703 H   0  0  0  0  0  0  0  0  0  0  0  0
    6.0266   -0.1745    0.7421 H   0  0  0  0  0  0  0  0  0  0  0  0
    6.2213   -0.7344   -0.8675 H   0  0  0  0  0  0  0  0  0  0  0  0
    2.8014   -1.1955   -0.7665 H   0  0  0  0  0  0  0  0  0  0  0  0
    4.1579   -0.0822   -0.8475 H   0  0  0  0  0  0  0  0  0  0  0  0
    1.9063   -1.8805   -3.3324 H   0  0  0  0  0  0  0  0  0  0  0  0
    2.3254   -3.3942   -4.1283 H   0  0  0  0  0  0  0  0  0  0  0  0
    3.2007   -1.8929   -4.5377 H   0  0  0  0  0  0  0  0  0  0  0  0
    4.6132   -4.6674   -3.1446 H   0  0  0  0  0  0  0  0  0  0  0  0
    5.1017   -3.3047   -4.0915 H   0  0  0  0  0  0  0  0  0  0  0  0
    6.9411   -3.8301   -2.7243 H   0  0  0  0  0  0  0  0  0  0  0  0
    6.4213   -2.2846   -2.3274 H   0  0  0  0  0  0  0  0  0  0  0  0
    6.1356   -4.8507   -0.7199 H   0  0  0  0  0  0  0  0  0  0  0  0
    3.8633   -5.0195   -0.9431 H   0  0  0  0  0  0  0  0  0  0  0  0
    2.7722   -4.2773    2.4072 H   0  0  0  0  0  0  0  0  0  0  0  0
    2.1906   -6.2284    3.2307 H   0  0  0  0  0  0  0  0  0  0  0  0
    1.8029   -9.7293    3.4019 H   0  0  0  0  0  0  0  0  0  0  0  0
    1.5404   -8.2314    4.2741 H   0  0  0  0  0  0  0  0  0  0  0  0
    0.1785   -9.1003    1.6798 H   0  0  0  0  0  0  0  0  0  0  0  0
   -0.6086   -8.9222    3.2331 H   0  0  0  0  0  0  0  0  0  0  0  0
   -0.9529   -6.9399    1.6782 H   0  0  0  0  0  0  0  0  0  0  0  0
   -0.1874   -6.4757    3.1864 H   0  0  0  0  0  0  0  0  0  0  0  0
    5.3903   -4.9909    1.3701 H   0  0  0  0  0  0  0  0  0  0  0  0
    4.7098   -3.9446    3.6098 H   0  0  0  0  0  0  0  0  0  0  0  0
    6.1575   -3.4152    2.8688 H   0  0  0  0  0  0  0  0  0  0  0  0
    4.0042   -1.7952    3.6948 H   0  0  0  0  0  0  0  0  0  0  0  0
    5.5038   -1.2769    2.9919 H   0  0  0  0  0  0  0  0  0  0  0  0
    2.9441   -1.9974    1.5491 H   0  0  0  0  0  0  0  0  0  0  0  0
    4.2208    0.7221    1.7642 H   0  0  0  0  0  0  0  0  0  0  0  0
    2.8931    0.1182    2.7236 H   0  0  0  0  0  0  0  0  0  0  0  0
    2.6888    0.3134    1.0106 H   0  0  0  0  0  0  0  0  0  0  0  0
  1  2  1  0
  1 30  1  0
  1 31  1  0
  1 32  1  0
  2 12  1  0
  2  3  1  0
  2 33  1  6
  3  4  1  0
  3 34  1  0
  3 35  1  0
  5  4  1  1
  4 36  1  0
  4 37  1  0
 13  5  1  1
  5 27  1  0
  5  6  1  0
  6  7  1  0
  6 38  1  0
  6 39  1  0
  7  8  1  0
  8 29  1  0
  8  9  1  6
  8 10  1  0
  9 40  1  0
  9 41  1  0
  9 42  1  0
 10 11  1  0
 10 43  1  0
 10 44  1  0
 11 12  1  0
 11 45  1  0
 11 46  1  0
 12 13  1  0
 12 47  1  6
 13 24  1  0
 13 14  1  0
 14 15  1  0
 14 29  1  0
 14 48  1  6
 15 16  1  0
 16 17  1  0
 16 24  1  0
 16 49  1  1
 17 18  1  0
 18 23  1  0
 18 19  1  0
 18 50  1  0
 19 20  1  0
 20 21  1  0
 20 51  1  0
 20 52  1  0
 21 22  1  0
 21 53  1  0
 21 54  1  0
 22 23  1  0
 22 55  1  0
 22 56  1  0
 24 25  1  0
 24 57  1  6
 25 26  1  0
 25 58  1  0
 25 59  1  0
 26 27  1  0
 26 60  1  0
 26 61  1  0
 27 28  1  0
 27 62  1  6
 28 63  1  0
 28 64  1  0
 28 65  1  0
M  END
>  <i_m_ct_stereo_status>  (38) 
1

>  <s_m_source_file>  (38) 
/var/tmp/pbs.5076255.sched01/tmpcyubysk0/0_f5co88n.sdf

>  <i_m_source_file_index>  (38) 
16

>  <i_lp_mmshare_version>  (38) 
48012

>  <i_f3d_flags>  (38) 
0

>  <s_epik_input>  (38) 
W0NIMl0xW0NIMl1bQ0BASF0oW0NIM10pW0NASF0oW0NAQF0yM1tDQEBdMTQ1KVtDSDJdW0NIMl1bQ0BdKFtDSDNdKShPW0NIMl00KU9bQ0BASF0yT1tDQEhdKFtDQEBIXTNbQ0gyXVtDSDJdW0NASF01W0NIM10pT1tDSF02T1tDSDJdW0NIMl1bQ0gyXU82

>  <s_epik_cmdline>  (38) 
J2VwaWtfcHl0aG9uJywgJy1waHQnLCAnMi4wJywgJy1waCcsICc3LjAnLCAnLXRuJywgJzgnLCAnLW1hJywgJzIwMCcsICctaW1hZScsICc8aW5maWxlLm1hZT4nLCAnLW9tYWUnLCAnPG91dGZpbGUubWFlPic=

>  <r_lp_tautomer_probability>  (38) 
1

>  <r_epik_Ionization_Penalty>  (38) 
2.66484e-12

>  <r_epik_Ionization_Penalty_Charging>  (38) 
0

>  <r_epik_Ionization_Penalty_Neutral>  (38) 
2.66484e-12

>  <r_epik_State_Penalty>  (38) 
-0

>  <r_epik_Charging_Adjusted_Penalty>  (38) 
0

>  <i_epik_Tot_Q>  (38) 
0

>  <i_epik_Tot_abs_Q>  (38) 
0

>  <s_epik_Chemistry_Notes>  (38) 
This compound contains an acetal/aminal-like group ( X-CH(R)-Y where X, Y are N, S, or O) that may be acid/base labile, releasing an aldehyde.

>  <s_lp_Force_Field>  (38) 
OPLS3e

>  <r_lp_Energy>  (38) 
61.668

>  <b_lp_Chiralities_Consistent>  (38) 
1

>  <s_lp_Variant>  (38) 
12:0-1

>  <s_i_glide_gridfile>  (38) 
pfpi4k_grid

>  <i_i_glide_lignum>  (38) 
16

>  <i_i_glide_rotatable_bonds>  (38) 
2

>  <r_i_docking_score>  (38) 
-3.41753

>  <r_i_glide_ligand_efficiency>  (38) 
-0.117846

>  <r_i_glide_ligand_efficiency_sa>  (38) 
-0.36206

>  <r_i_glide_ligand_efficiency_ln>  (38) 
-0.782528

>  <r_i_glide_gscore>  (38) 
-3.41753

>  <r_i_glide_lipo>  (38) 
-1.16471

>  <r_i_glide_hbond>  (38) 
-0.0368134

>  <r_i_glide_metal>  (38) 
-0

>  <r_i_glide_rewards>  (38) 
-0.629354

>  <r_i_glide_evdw>  (38) 
-31.8968

>  <r_i_glide_ecoul>  (38) 
-1.21187

>  <r_i_glide_erotb>  (38) 
0.235862

>  <r_i_glide_esite>  (38) 
-0.0458938

>  <r_i_glide_emodel>  (38) 
-38.1079

>  <r_i_glide_energy>  (38) 
-33.1087

>  <r_i_glide_einternal>  (38) 
3.08943

>  <r_i_glide_intrahb_reward>  (38) 
-0

>  <i_i_glide_confnum>  (38) 
5

>  <i_i_glide_posenum>  (38) 
38

>  <r_i_glide_eff_state_penalty>  (38) 
0

>  <ligand_id>  (38) 
12

>  <original_smiles>  (38) 
CC1CCC23COC4(C)CCC1C21C(OC(OC2OCCCO2)C1CCC3C)O4

>  <smiles>  (38) 
[H]C1(OC2([H])OC3([H])OC4(C([H])([H])[H])OC([H])([H])C56C([H])([H])C([H])([H])C([H])(C([H])([H])[H])C([H])(C([H])([H])C4([H])[H])C35C2([H])C([H])([H])C([H])([H])C6([H])C([H])([H])[H])OC([H])([H])C([H])([H])C([H])([H])O1

$$$$
12:0:2
     RDKit          3D

 65 70  0  0  1  0  0  0  0  0999 V2000
    4.7790   -4.3316    5.6105 C   0  0  0  0  0  0  0  0  0  0  0  0
    3.9673   -5.6191    5.3786 C   0  0  2  0  0  0  0  0  0  0  0  0
    4.8445   -6.8442    5.0778 C   0  0  0  0  0  0  0  0  0  0  0  0
    4.1363   -7.9386    4.2592 C   0  0  0  0  0  0  0  0  0  0  0  0
    3.4885   -7.5242    2.8894 C   0  0  1  0  0  0  0  0  0  0  0  0
    2.2944   -8.4987    2.6817 C   0  0  0  0  0  0  0  0  0  0  0  0
    1.2000   -8.2210    3.5281 O   0  0  0  0  0  0  0  0  0  0  0  0
    0.3768   -7.1752    3.1184 C   0  0  1  0  0  0  0  0  0  0  0  0
   -0.9568   -7.8238    2.7305 C   0  0  0  0  0  0  0  0  0  0  0  0
    0.2209   -6.1821    4.2933 C   0  0  0  0  0  0  0  0  0  0  0  0
    1.5181   -6.0500    5.1003 C   0  0  0  0  0  0  0  0  0  0  0  0
    2.7677   -5.4564    4.3948 C   0  0  2  0  0  0  0  0  0  0  0  0
    3.0628   -5.9856    2.9336 C   0  0  2  0  0  0  0  0  0  0  0  0
    1.8432   -5.6135    2.0296 C   0  0  1  0  0  0  0  0  0  0  0  0
    2.3510   -5.4260    0.7567 O   0  0  0  0  0  0  0  0  0  0  0  0
    3.5404   -4.7297    0.8300 C   0  0  1  0  0  0  0  0  0  0  0  0
    3.3267   -3.3524    0.7203 O   0  0  0  0  0  0  0  0  0  0  0  0
    3.4192   -2.8588   -0.5843 C   0  0  0  0  0  0  0  0  0  0  0  0
    2.5042   -3.4592   -1.4540 O   0  0  0  0  0  0  0  0  0  0  0  0
    2.5217   -2.8747   -2.7603 C   0  0  0  0  0  0  0  0  0  0  0  0
    3.9400   -2.9517   -3.3310 C   0  0  0  0  0  0  0  0  0  0  0  0
    4.9126   -2.3321   -2.3237 C   0  0  0  0  0  0  0  0  0  0  0  0
    4.7333   -2.9581   -1.0631 O   0  0  0  0  0  0  0  0  0  0  0  0
    4.1035   -5.0416    2.2377 C   0  0  2  0  0  0  0  0  0  0  0  0
    5.5810   -5.4781    2.1091 C   0  0  0  0  0  0  0  0  0  0  0  0
    5.7915   -6.9734    1.8256 C   0  0  0  0  0  0  0  0  0  0  0  0
    4.4858   -7.7721    1.6986 C   0  0  1  0  0  0  0  0  0  0  0  0
    4.8047   -9.2429    1.3529 C   0  0  0  0  0  0  0  0  0  0  0  0
    0.7980   -6.5305    1.9533 O   0  0  0  0  0  0  0  0  0  0  0  0
    5.2995   -4.0037    4.7159 H   0  0  0  0  0  0  0  0  0  0  0  0
    5.5289   -4.4829    6.3867 H   0  0  0  0  0  0  0  0  0  0  0  0
    4.1349   -3.5135    5.9379 H   0  0  0  0  0  0  0  0  0  0  0  0
    3.5488   -5.8199    6.3650 H   0  0  0  0  0  0  0  0  0  0  0  0
    5.7781   -6.5556    4.6144 H   0  0  0  0  0  0  0  0  0  0  0  0
    5.1605   -7.2805    6.0228 H   0  0  0  0  0  0  0  0  0  0  0  0
    4.8313   -8.7604    4.1228 H   0  0  0  0  0  0  0  0  0  0  0  0
    3.3762   -8.3618    4.9139 H   0  0  0  0  0  0  0  0  0  0  0  0
    1.9743   -8.5554    1.6408 H   0  0  0  0  0  0  0  0  0  0  0  0
    2.6075   -9.5112    2.9355 H   0  0  0  0  0  0  0  0  0  0  0  0
   -0.7957   -8.4936    1.8852 H   0  0  0  0  0  0  0  0  0  0  0  0
   -1.6731   -7.0595    2.4378 H   0  0  0  0  0  0  0  0  0  0  0  0
   -1.3645   -8.4018    3.5572 H   0  0  0  0  0  0  0  0  0  0  0  0
   -0.1621   -5.2227    3.9541 H   0  0  0  0  0  0  0  0  0  0  0  0
   -0.5272   -6.5962    4.9660 H   0  0  0  0  0  0  0  0  0  0  0  0
    1.2878   -5.4002    5.9456 H   0  0  0  0  0  0  0  0  0  0  0  0
    1.7495   -7.0138    5.5599 H   0  0  0  0  0  0  0  0  0  0  0  0
    2.5514   -4.3903    4.3241 H   0  0  0  0  0  0  0  0  0  0  0  0
    1.4253   -4.6531    2.3393 H   0  0  0  0  0  0  0  0  0  0  0  0
    4.1852   -5.1069    0.0349 H   0  0  0  0  0  0  0  0  0  0  0  0
    3.1476   -1.8040   -0.4999 H   0  0  0  0  0  0  0  0  0  0  0  0
    1.8175   -3.3950   -3.4093 H   0  0  0  0  0  0  0  0  0  0  0  0
    2.2020   -1.8355   -2.7115 H   0  0  0  0  0  0  0  0  0  0  0  0
    4.2081   -3.9936   -3.5161 H   0  0  0  0  0  0  0  0  0  0  0  0
    3.9971   -2.4334   -4.2874 H   0  0  0  0  0  0  0  0  0  0  0  0
    5.9421   -2.4879   -2.6469 H   0  0  0  0  0  0  0  0  0  0  0  0
    4.7569   -1.2552   -2.2361 H   0  0  0  0  0  0  0  0  0  0  0  0
    4.1133   -4.0870    2.7618 H   0  0  0  0  0  0  0  0  0  0  0  0
    6.0842   -4.8844    1.3445 H   0  0  0  0  0  0  0  0  0  0  0  0
    6.1183   -5.2223    3.0168 H   0  0  0  0  0  0  0  0  0  0  0  0
    6.3610   -7.0765    0.9021 H   0  0  0  0  0  0  0  0  0  0  0  0
    6.4191   -7.4149    2.6008 H   0  0  0  0  0  0  0  0  0  0  0  0
    3.9866   -7.4081    0.8031 H   0  0  0  0  0  0  0  0  0  0  0  0
    5.2634   -9.7831    2.1790 H   0  0  0  0  0  0  0  0  0  0  0  0
    5.4879   -9.2923    0.5071 H   0  0  0  0  0  0  0  0  0  0  0  0
    3.9154   -9.7919    1.0435 H   0  0  0  0  0  0  0  0  0  0  0  0
  1  2  1  0
  1 30  1  0
  1 31  1  0
  1 32  1  0
  2 12  1  0
  2  3  1  0
  2 33  1  1
  3  4  1  0
  3 34  1  0
  3 35  1  0
  5  4  1  1
  4 36  1  0
  4 37  1  0
 13  5  1  1
  5 27  1  0
  5  6  1  0
  6  7  1  0
  6 38  1  0
  6 39  1  0
  7  8  1  0
  8 29  1  0
  8  9  1  6
  8 10  1  0
  9 40  1  0
  9 41  1  0
  9 42  1  0
 10 11  1  0
 10 43  1  0
 10 44  1  0
 11 12  1  0
 11 45  1  0
 11 46  1  0
 12 13  1  0
 12 47  1  6
 13 24  1  0
 13 14  1  0
 14 15  1  0
 14 29  1  0
 14 48  1  1
 15 16  1  0
 16 17  1  0
 16 24  1  0
 16 49  1  6
 17 18  1  0
 18 23  1  0
 18 19  1  0
 18 50  1  0
 19 20  1  0
 20 21  1  0
 20 51  1  0
 20 52  1  0
 21 22  1  0
 21 53  1  0
 21 54  1  0
 22 23  1  0
 22 55  1  0
 22 56  1  0
 24 25  1  0
 24 57  1  1
 25 26  1  0
 25 58  1  0
 25 59  1  0
 26 27  1  0
 26 60  1  0
 26 61  1  0
 27 28  1  0
 27 62  1  6
 28 63  1  0
 28 64  1  0
 28 65  1  0
M  END
>  <i_m_ct_stereo_status>  (39) 
1

>  <s_m_source_file>  (39) 
/var/tmp/pbs.5076255.sched01/tmpcyubysk0/0_f5co88n.sdf

>  <i_m_source_file_index>  (39) 
16

>  <i_lp_mmshare_version>  (39) 
48012

>  <i_f3d_flags>  (39) 
0

>  <s_epik_input>  (39) 
W0NIMl0xW0NIMl1bQ0BASF0oW0NIM10pW0NASF0oW0NAQF0yM1tDQEBdMTQ1KVtDSDJdW0NIMl1bQ0BdKFtDSDNdKShPW0NIMl00KU9bQ0BASF0yT1tDQEhdKFtDQEBIXTNbQ0gyXVtDSDJdW0NASF01W0NIM10pT1tDSF02T1tDSDJdW0NIMl1bQ0gyXU82

>  <s_epik_cmdline>  (39) 
J2VwaWtfcHl0aG9uJywgJy1waHQnLCAnMi4wJywgJy1waCcsICc3LjAnLCAnLXRuJywgJzgnLCAnLW1hJywgJzIwMCcsICctaW1hZScsICc8aW5maWxlLm1hZT4nLCAnLW9tYWUnLCAnPG91dGZpbGUubWFlPic=

>  <r_lp_tautomer_probability>  (39) 
1

>  <r_epik_Ionization_Penalty>  (39) 
2.66484e-12

>  <r_epik_Ionization_Penalty_Charging>  (39) 
0

>  <r_epik_Ionization_Penalty_Neutral>  (39) 
2.66484e-12

>  <r_epik_State_Penalty>  (39) 
-0

>  <r_epik_Charging_Adjusted_Penalty>  (39) 
0

>  <i_epik_Tot_Q>  (39) 
0

>  <i_epik_Tot_abs_Q>  (39) 
0

>  <s_epik_Chemistry_Notes>  (39) 
This compound contains an acetal/aminal-like group ( X-CH(R)-Y where X, Y are N, S, or O) that may be acid/base labile, releasing an aldehyde.

>  <s_lp_Force_Field>  (39) 
OPLS3e

>  <r_lp_Energy>  (39) 
61.668

>  <b_lp_Chiralities_Consistent>  (39) 
1

>  <s_lp_Variant>  (39) 
12:0-1

>  <s_i_glide_gridfile>  (39) 
pfpi4k_grid

>  <i_i_glide_lignum>  (39) 
16

>  <i_i_glide_rotatable_bonds>  (39) 
2

>  <r_i_docking_score>  (39) 
-2.55756

>  <r_i_glide_ligand_efficiency>  (39) 
-0.0881918

>  <r_i_glide_ligand_efficiency_sa>  (39) 
-0.270953

>  <r_i_glide_ligand_efficiency_ln>  (39) 
-0.585617

>  <r_i_glide_gscore>  (39) 
-2.55756

>  <r_i_glide_lipo>  (39) 
-0.369445

>  <r_i_glide_hbond>  (39) 
-0.0102418

>  <r_i_glide_metal>  (39) 
-0

>  <r_i_glide_rewards>  (39) 
-0.62367

>  <r_i_glide_evdw>  (39) 
-31.5427

>  <r_i_glide_ecoul>  (39) 
-0.703888

>  <r_i_glide_erotb>  (39) 
0.235862

>  <r_i_glide_esite>  (39) 
-0.107347

>  <r_i_glide_emodel>  (39) 
-36.4174

>  <r_i_glide_energy>  (39) 
-32.2466

>  <r_i_glide_einternal>  (39) 
1.79174

>  <r_i_glide_intrahb_reward>  (39) 
-0

>  <i_i_glide_confnum>  (39) 
5

>  <i_i_glide_posenum>  (39) 
5

>  <r_i_glide_eff_state_penalty>  (39) 
0

>  <ligand_id>  (39) 
12

>  <original_smiles>  (39) 
CC1CCC23COC4(C)CCC1C21C(OC(OC2OCCCO2)C1CCC3C)O4

>  <smiles>  (39) 
[H]C1(OC2([H])OC3([H])OC4(C([H])([H])[H])OC([H])([H])C56C([H])([H])C([H])([H])C([H])(C([H])([H])[H])C([H])(C([H])([H])C4([H])[H])C35C2([H])C([H])([H])C([H])([H])C6([H])C([H])([H])[H])OC([H])([H])C([H])([H])C([H])([H])O1

$$$$
13:0:0
     RDKit          3D

 31 33  0  0  1  0  0  0  0  0999 V2000
    8.7245   -3.6586    0.6453 C   0  0  0  0  0  0  0  0  0  0  0  0
    8.0718   -2.3425    0.2083 C   0  0  0  0  0  0  0  0  0  0  0  0
    6.6190   -2.4002    0.3022 N   0  0  0  0  0  0  0  0  0  0  0  0
    5.8897   -2.1425    1.3958 C   0  0  0  0  0  0  0  0  0  0  0  0
    4.5835   -2.2786    1.2327 N   0  0  0  0  0  0  0  0  0  0  0  0
    4.4505   -2.6653   -0.0997 C   0  0  0  0  0  0  0  0  0  0  0  0
    5.6969   -2.7357   -0.6934 C   0  0  0  0  0  0  0  0  0  0  0  0
    6.1575   -3.0590   -1.9439 N   0  0  0  0  0  0  0  0  0  0  0  0
    5.4119   -3.2835   -2.9514 C   0  0  0  0  0  0  0  0  0  0  0  0
    3.9031   -3.1906   -3.1833 C   0  0  2  0  0  0  0  0  0  0  0  0
    3.6697   -2.3793   -4.3229 O   0  0  0  0  0  0  0  0  0  0  0  0
    3.6217   -1.0090   -3.9407 C   0  0  0  0  0  0  0  0  0  0  0  0
    3.1544   -1.0147   -2.4867 C   0  0  0  0  0  0  0  0  0  0  0  0
    2.9819   -2.4940   -2.1697 C   0  0  2  0  0  0  0  0  0  0  0  0
    3.0925   -2.8888   -0.6891 C   0  0  1  0  0  0  0  0  0  0  0  0
    2.7598   -4.2526   -0.5119 O   0  0  0  0  0  0  0  0  0  0  0  0
    9.8101   -3.5784    0.5843 H   0  0  0  0  0  0  0  0  0  0  0  0
    8.4048   -4.4859    0.0107 H   0  0  0  0  0  0  0  0  0  0  0  0
    8.4712   -3.9074    1.6758 H   0  0  0  0  0  0  0  0  0  0  0  0
    8.4264   -1.5225    0.8339 H   0  0  0  0  0  0  0  0  0  0  0  0
    8.3727   -2.1043   -0.8130 H   0  0  0  0  0  0  0  0  0  0  0  0
    6.3299   -1.8578    2.3372 H   0  0  0  0  0  0  0  0  0  0  0  0
    5.9037   -3.5970   -3.8767 H   0  0  0  0  0  0  0  0  0  0  0  0
    3.5489   -4.1928   -3.4161 H   0  0  0  0  0  0  0  0  0  0  0  0
    4.6141   -0.5736   -4.0173 H   0  0  0  0  0  0  0  0  0  0  0  0
    2.9594   -0.4476   -4.6008 H   0  0  0  0  0  0  0  0  0  0  0  0
    3.9030   -0.5466   -1.8470 H   0  0  0  0  0  0  0  0  0  0  0  0
    2.2203   -0.4633   -2.3712 H   0  0  0  0  0  0  0  0  0  0  0  0
    1.9650   -2.7353   -2.4763 H   0  0  0  0  0  0  0  0  0  0  0  0
    2.3706   -2.3110   -0.1134 H   0  0  0  0  0  0  0  0  0  0  0  0
    3.0589   -4.7606   -1.2619 H   0  0  0  0  0  0  0  0  0  0  0  0
  1  2  1  0
  1 17  1  0
  1 18  1  0
  1 19  1  0
  2  3  1  0
  2 20  1  0
  2 21  1  0
  3  7  1  0
  3  4  1  0
  4  5  2  0
  4 22  1  0
  5  6  1  0
  6 15  1  0
  6  7  2  0
  7  8  1  0
  8  9  2  0
  9 10  1  0
  9 23  1  0
 10 14  1  0
 10 11  1  0
 10 24  1  6
 11 12  1  0
 12 13  1  0
 12 25  1  0
 12 26  1  0
 13 14  1  0
 13 27  1  0
 13 28  1  0
 14 15  1  0
 14 29  1  6
 15 16  1  0
 15 30  1  1
 16 31  1  0
M  END
>  <i_m_ct_stereo_status>  (40) 
1

>  <s_m_source_file>  (40) 
/var/tmp/pbs.5076255.sched01/tmpcyubysk0/0_f5co88n.sdf

>  <i_m_source_file_index>  (40) 
17

>  <i_lp_mmshare_version>  (40) 
48012

>  <i_f3d_flags>  (40) 
0

>  <s_epik_input>  (40) 
W0NIM11bQ0gyXW4oW2NIXW4xKWMoYzEyKU49W0NIXVtDQEhdM1tDQEhdKFtDSDJdW0NIMl1PMylbQ0BIXTJbT0hd

>  <s_epik_cmdline>  (40) 
J2VwaWtfcHl0aG9uJywgJy1waHQnLCAnMi4wJywgJy1waCcsICc3LjAnLCAnLXRuJywgJzgnLCAnLW1hJywgJzIwMCcsICctaW1hZScsICc8aW5maWxlLm1hZT4nLCAnLW9tYWUnLCAnPG91dGZpbGUubWFlPic=

>  <r_lp_tautomer_probability>  (40) 
0.999601

>  <r_epik_Ionization_Penalty>  (40) 
0.0720383

>  <r_epik_Ionization_Penalty_Charging>  (40) 
0.0719733

>  <r_epik_Ionization_Penalty_Neutral>  (40) 
6.508e-05

>  <r_epik_State_Penalty>  (40) 
0.0632146

>  <r_epik_Charging_Adjusted_Penalty>  (40) 
0.135188

>  <i_epik_Tot_Q>  (40) 
0

>  <i_epik_Tot_abs_Q>  (40) 
0

>  <s_epik_Chemistry_Notes>  (40) 
This compound has an imine and may undergo hydrolysis.

>  <s_lp_Force_Field>  (40) 
OPLS3e

>  <r_lp_Energy>  (40) 
22.0703

>  <b_lp_Chiralities_Consistent>  (40) 
1

>  <s_lp_Variant>  (40) 
13:0-1

>  <s_i_glide_gridfile>  (40) 
pfpi4k_grid

>  <i_i_glide_lignum>  (40) 
17

>  <i_i_glide_rotatable_bonds>  (40) 
2

>  <r_i_docking_score>  (40) 
-5.60266

>  <r_i_glide_ligand_efficiency>  (40) 
-0.350166

>  <r_i_glide_ligand_efficiency_sa>  (40) 
-0.882363

>  <r_i_glide_ligand_efficiency_ln>  (40) 
-1.4851

>  <r_i_glide_gscore>  (40) 
-5.60266

>  <r_i_glide_lipo>  (40) 
-0.494508

>  <r_i_glide_hbond>  (40) 
-0.608

>  <r_i_glide_metal>  (40) 
-0

>  <r_i_glide_rewards>  (40) 
-2.47458

>  <r_i_glide_evdw>  (40) 
-22.3599

>  <r_i_glide_ecoul>  (40) 
-6.05049

>  <r_i_glide_erotb>  (40) 
0

>  <r_i_glide_esite>  (40) 
0

>  <r_i_glide_emodel>  (40) 
-38.0064

>  <r_i_glide_energy>  (40) 
-28.4104

>  <r_i_glide_einternal>  (40) 
0.894484

>  <r_i_glide_intrahb_reward>  (40) 
-0

>  <i_i_glide_confnum>  (40) 
2

>  <i_i_glide_posenum>  (40) 
29

>  <r_i_glide_eff_state_penalty>  (40) 
0

>  <ligand_id>  (40) 
13

>  <original_smiles>  (40) 
CCn1cnc2c1N=CC1OCCC1C2O

>  <smiles>  (40) 
[H]OC1([H])c2nc([H])n(C([H])([H])C([H])([H])[H])c2N=C([H])C2([H])OC([H])([H])C([H])([H])C21[H]

$$$$
13:0:1
     RDKit          3D

 31 33  0  0  1  0  0  0  0  0999 V2000
    8.3275   -2.0459   -0.2982 C   0  0  0  0  0  0  0  0  0  0  0  0
    7.6924   -3.3123    0.2708 C   0  0  0  0  0  0  0  0  0  0  0  0
    6.2469   -3.2012    0.3457 N   0  0  0  0  0  0  0  0  0  0  0  0
    5.5340   -2.9712    1.4556 C   0  0  0  0  0  0  0  0  0  0  0  0
    4.2262   -2.9153    1.2602 N   0  0  0  0  0  0  0  0  0  0  0  0
    4.0850   -3.1371   -0.1072 C   0  0  0  0  0  0  0  0  0  0  0  0
    5.3212   -3.2934   -0.6968 C   0  0  0  0  0  0  0  0  0  0  0  0
    5.7634   -3.5091   -1.9782 N   0  0  0  0  0  0  0  0  0  0  0  0
    5.0298   -3.5421   -3.0176 C   0  0  0  0  0  0  0  0  0  0  0  0
    3.5549   -3.2461   -3.2588 C   0  0  2  0  0  0  0  0  0  0  0  0
    3.4614   -2.3031   -4.3172 O   0  0  0  0  0  0  0  0  0  0  0  0
    3.5934   -0.9890   -3.7872 C   0  0  0  0  0  0  0  0  0  0  0  0
    3.0804   -1.0776   -2.3571 C   0  0  0  0  0  0  0  0  0  0  0  0
    2.7143   -2.5466   -2.1853 C   0  0  2  0  0  0  0  0  0  0  0  0
    2.7409   -3.1006   -0.7411 C   0  0  1  0  0  0  0  0  0  0  0  0
    2.2103   -4.4122   -0.7110 O   0  0  0  0  0  0  0  0  0  0  0  0
    9.4136   -2.1410   -0.3115 H   0  0  0  0  0  0  0  0  0  0  0  0
    8.0738   -1.1673    0.3010 H   0  0  0  0  0  0  0  0  0  0  0  0
    7.9991   -1.8927   -1.3227 H   0  0  0  0  0  0  0  0  0  0  0  0
    7.9578   -4.1808   -0.3317 H   0  0  0  0  0  0  0  0  0  0  0  0
    8.0864   -3.4949    1.2719 H   0  0  0  0  0  0  0  0  0  0  0  0
    5.9861   -2.8333    2.4275 H   0  0  0  0  0  0  0  0  0  0  0  0
    5.5008   -3.8400   -3.9593 H   0  0  0  0  0  0  0  0  0  0  0  0
    3.0818   -4.1651   -3.5941 H   0  0  0  0  0  0  0  0  0  0  0  0
    4.6378   -0.6905   -3.7903 H   0  0  0  0  0  0  0  0  0  0  0  0
    3.0241   -0.2767   -4.3817 H   0  0  0  0  0  0  0  0  0  0  0  0
    3.8492   -0.7676   -1.6450 H   0  0  0  0  0  0  0  0  0  0  0  0
    2.2188   -0.4221   -2.2740 H   0  0  0  0  0  0  0  0  0  0  0  0
    1.6850   -2.6349   -2.5268 H   0  0  0  0  0  0  0  0  0  0  0  0
    2.1072   -2.5274   -0.0772 H   0  0  0  0  0  0  0  0  0  0  0  0
    2.6252   -4.9320   -1.3986 H   0  0  0  0  0  0  0  0  0  0  0  0
  1  2  1  0
  1 17  1  0
  1 18  1  0
  1 19  1  0
  2  3  1  0
  2 20  1  0
  2 21  1  0
  3  7  1  0
  3  4  1  0
  4  5  2  0
  4 22  1  0
  5  6  1  0
  6 15  1  0
  6  7  2  0
  7  8  1  0
  8  9  2  0
  9 10  1  0
  9 23  1  0
 10 14  1  0
 10 11  1  0
 10 24  1  6
 11 12  1  0
 12 13  1  0
 12 25  1  0
 12 26  1  0
 13 14  1  0
 13 27  1  0
 13 28  1  0
 14 15  1  0
 14 29  1  6
 15 16  1  0
 15 30  1  1
 16 31  1  0
M  END
>  <i_m_ct_stereo_status>  (41) 
1

>  <s_m_source_file>  (41) 
/var/tmp/pbs.5076255.sched01/tmpcyubysk0/0_f5co88n.sdf

>  <i_m_source_file_index>  (41) 
17

>  <i_lp_mmshare_version>  (41) 
48012

>  <i_f3d_flags>  (41) 
0

>  <s_epik_input>  (41) 
W0NIM11bQ0gyXW4oW2NIXW4xKWMoYzEyKU49W0NIXVtDQEhdM1tDQEhdKFtDSDJdW0NIMl1PMylbQ0BIXTJbT0hd

>  <s_epik_cmdline>  (41) 
J2VwaWtfcHl0aG9uJywgJy1waHQnLCAnMi4wJywgJy1waCcsICc3LjAnLCAnLXRuJywgJzgnLCAnLW1hJywgJzIwMCcsICctaW1hZScsICc8aW5maWxlLm1hZT4nLCAnLW9tYWUnLCAnPG91dGZpbGUubWFlPic=

>  <r_lp_tautomer_probability>  (41) 
0.999601

>  <r_epik_Ionization_Penalty>  (41) 
0.0720383

>  <r_epik_Ionization_Penalty_Charging>  (41) 
0.0719733

>  <r_epik_Ionization_Penalty_Neutral>  (41) 
6.508e-05

>  <r_epik_State_Penalty>  (41) 
0.0632146

>  <r_epik_Charging_Adjusted_Penalty>  (41) 
0.135188

>  <i_epik_Tot_Q>  (41) 
0

>  <i_epik_Tot_abs_Q>  (41) 
0

>  <s_epik_Chemistry_Notes>  (41) 
This compound has an imine and may undergo hydrolysis.

>  <s_lp_Force_Field>  (41) 
OPLS3e

>  <r_lp_Energy>  (41) 
22.0703

>  <b_lp_Chiralities_Consistent>  (41) 
1

>  <s_lp_Variant>  (41) 
13:0-1

>  <s_i_glide_gridfile>  (41) 
pfpi4k_grid

>  <i_i_glide_lignum>  (41) 
17

>  <i_i_glide_rotatable_bonds>  (41) 
2

>  <r_i_docking_score>  (41) 
-5.54945

>  <r_i_glide_ligand_efficiency>  (41) 
-0.346841

>  <r_i_glide_ligand_efficiency_sa>  (41) 
-0.873984

>  <r_i_glide_ligand_efficiency_ln>  (41) 
-1.47099

>  <r_i_glide_gscore>  (41) 
-5.54945

>  <r_i_glide_lipo>  (41) 
-0.574251

>  <r_i_glide_hbond>  (41) 
-0.608

>  <r_i_glide_metal>  (41) 
-0

>  <r_i_glide_rewards>  (41) 
-2.30571

>  <r_i_glide_evdw>  (41) 
-19.7593

>  <r_i_glide_ecoul>  (41) 
-7.15681

>  <r_i_glide_erotb>  (41) 
0

>  <r_i_glide_esite>  (41) 
0

>  <r_i_glide_emodel>  (41) 
-36.6512

>  <r_i_glide_energy>  (41) 
-26.9161

>  <r_i_glide_einternal>  (41) 
0.589975

>  <r_i_glide_intrahb_reward>  (41) 
-0

>  <i_i_glide_confnum>  (41) 
2

>  <i_i_glide_posenum>  (41) 
27

>  <r_i_glide_eff_state_penalty>  (41) 
0

>  <ligand_id>  (41) 
13

>  <original_smiles>  (41) 
CCn1cnc2c1N=CC1OCCC1C2O

>  <smiles>  (41) 
[H]OC1([H])c2nc([H])n(C([H])([H])C([H])([H])[H])c2N=C([H])C2([H])OC([H])([H])C([H])([H])C21[H]

$$$$
13:0:2
     RDKit          3D

 31 33  0  0  1  0  0  0  0  0999 V2000
    1.6392    0.6101    1.9464 C   0  0  0  0  0  0  0  0  0  0  0  0
    3.0153   -0.0192    2.2008 C   0  0  0  0  0  0  0  0  0  0  0  0
    3.1074   -1.3614    1.6393 N   0  0  0  0  0  0  0  0  0  0  0  0
    2.5626   -2.4659    2.1637 C   0  0  0  0  0  0  0  0  0  0  0  0
    2.7588   -3.5708    1.4590 N   0  0  0  0  0  0  0  0  0  0  0  0
    3.5210   -3.1370    0.3744 C   0  0  0  0  0  0  0  0  0  0  0  0
    3.7534   -1.7783    0.4728 C   0  0  0  0  0  0  0  0  0  0  0  0
    4.4308   -0.8572   -0.2865 N   0  0  0  0  0  0  0  0  0  0  0  0
    4.9197   -1.0744   -1.4384 C   0  0  0  0  0  0  0  0  0  0  0  0
    4.9384   -2.3000   -2.3565 C   0  0  2  0  0  0  0  0  0  0  0  0
    4.5092   -1.9195   -3.6592 O   0  0  0  0  0  0  0  0  0  0  0  0
    3.0821   -1.9577   -3.7027 C   0  0  0  0  0  0  0  0  0  0  0  0
    2.6704   -3.0334   -2.6961 C   0  0  0  0  0  0  0  0  0  0  0  0
    3.9962   -3.4790   -2.1022 C   0  0  2  0  0  0  0  0  0  0  0  0
    3.9342   -4.0955   -0.6943 C   0  0  1  0  0  0  0  0  0  0  0  0
    5.2046   -4.5979   -0.3296 O   0  0  0  0  0  0  0  0  0  0  0  0
    1.5706    1.6064    2.3843 H   0  0  0  0  0  0  0  0  0  0  0  0
    0.8406    0.0030    2.3728 H   0  0  0  0  0  0  0  0  0  0  0  0
    1.4445    0.7034    0.8804 H   0  0  0  0  0  0  0  0  0  0  0  0
    3.8014    0.6149    1.7889 H   0  0  0  0  0  0  0  0  0  0  0  0
    3.2018   -0.0821    3.2736 H   0  0  0  0  0  0  0  0  0  0  0  0
    1.9935   -2.4559    3.0806 H   0  0  0  0  0  0  0  0  0  0  0  0
    5.4520   -0.2540   -1.9198 H   0  0  0  0  0  0  0  0  0  0  0  0
    5.9698   -2.6475   -2.4108 H   0  0  0  0  0  0  0  0  0  0  0  0
    2.6673   -0.9893   -3.4192 H   0  0  0  0  0  0  0  0  0  0  0  0
    2.7541   -2.1910   -4.7135 H   0  0  0  0  0  0  0  0  0  0  0  0
    2.0063   -2.6288   -1.9341 H   0  0  0  0  0  0  0  0  0  0  0  0
    2.1471   -3.8554   -3.1812 H   0  0  0  0  0  0  0  0  0  0  0  0
    4.3626   -4.2555   -2.7690 H   0  0  0  0  0  0  0  0  0  0  0  0
    3.2427   -4.9375   -0.7097 H   0  0  0  0  0  0  0  0  0  0  0  0
    5.4090   -5.3143   -0.9118 H   0  0  0  0  0  0  0  0  0  0  0  0
  1  2  1  0
  1 17  1  0
  1 18  1  0
  1 19  1  0
  2  3  1  0
  2 20  1  0
  2 21  1  0
  3  7  1  0
  3  4  1  0
  4  5  2  0
  4 22  1  0
  5  6  1  0
  6 15  1  0
  6  7  2  0
  7  8  1  0
  8  9  2  0
  9 10  1  0
  9 23  1  0
 10 14  1  0
 10 11  1  0
 10 24  1  6
 11 12  1  0
 12 13  1  0
 12 25  1  0
 12 26  1  0
 13 14  1  0
 13 27  1  0
 13 28  1  0
 14 15  1  0
 14 29  1  6
 15 16  1  0
 15 30  1  6
 16 31  1  0
M  END
>  <i_m_ct_stereo_status>  (42) 
1

>  <s_m_source_file>  (42) 
/var/tmp/pbs.5076255.sched01/tmpcyubysk0/0_f5co88n.sdf

>  <i_m_source_file_index>  (42) 
17

>  <i_lp_mmshare_version>  (42) 
48012

>  <i_f3d_flags>  (42) 
0

>  <s_epik_input>  (42) 
W0NIM11bQ0gyXW4oW2NIXW4xKWMoYzEyKU49W0NIXVtDQEhdM1tDQEhdKFtDSDJdW0NIMl1PMylbQ0BIXTJbT0hd

>  <s_epik_cmdline>  (42) 
J2VwaWtfcHl0aG9uJywgJy1waHQnLCAnMi4wJywgJy1waCcsICc3LjAnLCAnLXRuJywgJzgnLCAnLW1hJywgJzIwMCcsICctaW1hZScsICc8aW5maWxlLm1hZT4nLCAnLW9tYWUnLCAnPG91dGZpbGUubWFlPic=

>  <r_lp_tautomer_probability>  (42) 
0.999601

>  <r_epik_Ionization_Penalty>  (42) 
0.0720383

>  <r_epik_Ionization_Penalty_Charging>  (42) 
0.0719733

>  <r_epik_Ionization_Penalty_Neutral>  (42) 
6.508e-05

>  <r_epik_State_Penalty>  (42) 
0.0632146

>  <r_epik_Charging_Adjusted_Penalty>  (42) 
0.135188

>  <i_epik_Tot_Q>  (42) 
0

>  <i_epik_Tot_abs_Q>  (42) 
0

>  <s_epik_Chemistry_Notes>  (42) 
This compound has an imine and may undergo hydrolysis.

>  <s_lp_Force_Field>  (42) 
OPLS3e

>  <r_lp_Energy>  (42) 
22.0703

>  <b_lp_Chiralities_Consistent>  (42) 
1

>  <s_lp_Variant>  (42) 
13:0-1

>  <s_i_glide_gridfile>  (42) 
pfpi4k_grid

>  <i_i_glide_lignum>  (42) 
17

>  <i_i_glide_rotatable_bonds>  (42) 
2

>  <r_i_docking_score>  (42) 
-3.80363

>  <r_i_glide_ligand_efficiency>  (42) 
-0.237727

>  <r_i_glide_ligand_efficiency_sa>  (42) 
-0.599033

>  <r_i_glide_ligand_efficiency_ln>  (42) 
-1.00823

>  <r_i_glide_gscore>  (42) 
-3.80363

>  <r_i_glide_lipo>  (42) 
-0.303827

>  <r_i_glide_hbond>  (42) 
0

>  <r_i_glide_metal>  (42) 
-0

>  <r_i_glide_rewards>  (42) 
-1.90053

>  <r_i_glide_evdw>  (42) 
-20.6767

>  <r_i_glide_ecoul>  (42) 
-3.18955

>  <r_i_glide_erotb>  (42) 
0

>  <r_i_glide_esite>  (42) 
-0.0869997

>  <r_i_glide_emodel>  (42) 
-30.6452

>  <r_i_glide_energy>  (42) 
-23.8663

>  <r_i_glide_einternal>  (42) 
0.167868

>  <r_i_glide_intrahb_reward>  (42) 
-0

>  <i_i_glide_confnum>  (42) 
2

>  <i_i_glide_posenum>  (42) 
39

>  <r_i_glide_eff_state_penalty>  (42) 
0

>  <ligand_id>  (42) 
13

>  <original_smiles>  (42) 
CCn1cnc2c1N=CC1OCCC1C2O

>  <smiles>  (42) 
[H]OC1([H])c2nc([H])n(C([H])([H])C([H])([H])[H])c2N=C([H])C2([H])OC([H])([H])C([H])([H])C21[H]

$$$$
13:1:0
     RDKit          3D

 32 34  0  0  1  0  0  0  0  0999 V2000
    2.6880   -3.4392   -4.1345 C   0  0  0  0  0  0  0  0  0  0  0  0
    2.3174   -3.1408   -2.6788 C   0  0  0  0  0  0  0  0  0  0  0  0
    3.3429   -2.3604   -1.9852 N   0  0  0  0  0  0  0  0  0  0  0  0
    3.5896   -1.0655   -2.2486 C   0  0  0  0  0  0  0  0  0  0  0  0
    4.5793   -0.6699   -1.4300 N   0  0  0  0  0  0  0  0  0  0  0  0
    4.9596   -1.7110   -0.6112 C   0  0  0  0  0  0  0  0  0  0  0  0
    4.1784   -2.7785   -0.9874 C   0  0  0  0  0  0  0  0  0  0  0  0
    4.2689   -4.0927   -0.5161 N   0  0  0  0  0  0  0  0  0  0  0  0
    4.5132   -4.3403    0.7041 C   0  0  0  0  0  0  0  0  0  0  0  0
    4.6296   -3.3549    1.8618 C   0  0  2  0  0  0  0  0  0  0  0  0
    3.3909   -2.7173    2.1117 O   0  0  0  0  0  0  0  0  0  0  0  0
    3.6416   -1.6731    3.0336 C   0  0  0  0  0  0  0  0  0  0  0  0
    5.0180   -1.1264    2.6532 C   0  0  0  0  0  0  0  0  0  0  0  0
    5.6685   -2.2038    1.7730 C   0  0  2  0  0  0  0  0  0  0  0  0
    6.0653   -1.6403    0.3764 C   0  0  1  0  0  0  0  0  0  0  0  0
    7.1998   -2.3444   -0.1047 O   0  0  0  0  0  0  0  0  0  0  0  0
    1.8937   -4.0219   -4.6037 H   0  0  0  0  0  0  0  0  0  0  0  0
    3.6182   -4.0073   -4.1936 H   0  0  0  0  0  0  0  0  0  0  0  0
    2.8036   -2.5216   -4.7110 H   0  0  0  0  0  0  0  0  0  0  0  0
    1.3750   -2.6040   -2.6252 H   0  0  0  0  0  0  0  0  0  0  0  0
    2.1617   -4.0686   -2.1273 H   0  0  0  0  0  0  0  0  0  0  0  0
    3.0842   -0.4665   -2.9842 H   0  0  0  0  0  0  0  0  0  0  0  0
    4.6082   -5.3755    1.0329 H   0  0  0  0  0  0  0  0  0  0  0  0
    4.8777   -3.9518    2.7410 H   0  0  0  0  0  0  0  0  0  0  0  0
    2.8661   -0.9139    2.9645 H   0  0  0  0  0  0  0  0  0  0  0  0
    3.6575   -2.0729    4.0478 H   0  0  0  0  0  0  0  0  0  0  0  0
    4.9122   -0.1809    2.1186 H   0  0  0  0  0  0  0  0  0  0  0  0
    5.6129   -0.9220    3.5457 H   0  0  0  0  0  0  0  0  0  0  0  0
    6.5898   -2.5171    2.2637 H   0  0  0  0  0  0  0  0  0  0  0  0
    6.3935   -0.6013    0.4696 H   0  0  0  0  0  0  0  0  0  0  0  0
    6.9781   -3.2639   -0.1750 H   0  0  0  0  0  0  0  0  0  0  0  0
    4.9677    0.2712   -1.4113 H   0  0  0  0  0  0  0  0  0  0  0  0
  1  2  1  0
  1 17  1  0
  1 18  1  0
  1 19  1  0
  2  3  1  0
  2 20  1  0
  2 21  1  0
  3  7  1  0
  3  4  1  0
  4  5  2  0
  4 22  1  0
  5  6  1  0
  5 32  1  0
  6 15  1  0
  6  7  2  0
  7  8  1  0
  8  9  2  0
  9 10  1  0
  9 23  1  0
 10 14  1  0
 10 11  1  0
 10 24  1  1
 11 12  1  0
 12 13  1  0
 12 25  1  0
 12 26  1  0
 13 14  1  0
 13 27  1  0
 13 28  1  0
 14 15  1  0
 14 29  1  1
 15 16  1  0
 15 30  1  1
 16 31  1  0
M  CHG  1   5   1
M  END
>  <i_m_ct_stereo_status>  (43) 
1

>  <s_m_source_file>  (43) 
/var/tmp/pbs.5076255.sched01/tmpcyubysk0/0_f5co88n.sdf

>  <i_m_source_file_index>  (43) 
18

>  <i_lp_mmshare_version>  (43) 
48012

>  <i_f3d_flags>  (43) 
0

>  <s_epik_input>  (43) 
W0NIM11bQ0gyXW4oW2NIXW4xKWMoYzEyKU49W0NIXVtDQEhdM1tDQEhdKFtDSDJdW0NIMl1PMylbQ0BIXTJbT0hd

>  <s_epik_cmdline>  (43) 
J2VwaWtfcHl0aG9uJywgJy1waHQnLCAnMi4wJywgJy1waCcsICc3LjAnLCAnLXRuJywgJzgnLCAnLW1hJywgJzIwMCcsICctaW1hZScsICc8aW5maWxlLm1hZT4nLCAnLW9tYWUnLCAnPG91dGZpbGUubWFlPic=

>  <r_lp_tautomer_probability>  (43) 
0.999601

>  <r_epik_Ionization_Penalty>  (43) 
1.28529

>  <r_epik_Ionization_Penalty_Charging>  (43) 
0

>  <r_epik_Ionization_Penalty_Neutral>  (43) 
1.28529

>  <r_epik_State_Penalty>  (43) 
1.35719

>  <r_epik_Charging_Adjusted_Penalty>  (43) 
1.35719

>  <i_epik_Tot_Q>  (43) 
1

>  <i_epik_Tot_abs_Q>  (43) 
1

>  <s_epik_Chemistry_Notes>  (43) 
This compound has an imine and may undergo hydrolysis.

>  <s_lp_Force_Field>  (43) 
OPLS3e

>  <r_lp_Energy>  (43) 
27.9666

>  <b_lp_Chiralities_Consistent>  (43) 
1

>  <s_lp_Variant>  (43) 
13:0-2

>  <s_i_glide_gridfile>  (43) 
pfpi4k_grid

>  <i_i_glide_lignum>  (43) 
18

>  <i_i_glide_rotatable_bonds>  (43) 
2

>  <r_i_docking_score>  (43) 
-4.19334

>  <r_i_glide_ligand_efficiency>  (43) 
-0.262084

>  <r_i_glide_ligand_efficiency_sa>  (43) 
-0.66041

>  <r_i_glide_ligand_efficiency_ln>  (43) 
-1.11153

>  <r_i_glide_gscore>  (43) 
-4.19334

>  <r_i_glide_lipo>  (43) 
-0.443827

>  <r_i_glide_hbond>  (43) 
-0.0105863

>  <r_i_glide_metal>  (43) 
-0

>  <r_i_glide_rewards>  (43) 
-1.9389

>  <r_i_glide_evdw>  (43) 
-17.8493

>  <r_i_glide_ecoul>  (43) 
-5.12102

>  <r_i_glide_erotb>  (43) 
0

>  <r_i_glide_esite>  (43) 
-0.139406

>  <r_i_glide_emodel>  (43) 
-29.7286

>  <r_i_glide_energy>  (43) 
-22.9704

>  <r_i_glide_einternal>  (43) 
0.547605

>  <r_i_glide_intrahb_reward>  (43) 
-0

>  <i_i_glide_confnum>  (43) 
2

>  <i_i_glide_posenum>  (43) 
2

>  <r_i_glide_eff_state_penalty>  (43) 
0

>  <ligand_id>  (43) 
13

>  <original_smiles>  (43) 
CCn1cnc2c1N=CC1OCCC1C2O

>  <smiles>  (43) 
[H]OC1([H])c2c(n(C([H])([H])C([H])([H])[H])c([H])[n+]2[H])N=C([H])C2([H])OC([H])([H])C([H])([H])C21[H]

$$$$
13:1:1
     RDKit          3D

 32 34  0  0  1  0  0  0  0  0999 V2000
    4.6050   -4.5089   -4.2643 C   0  0  0  0  0  0  0  0  0  0  0  0
    3.4440   -3.5553   -3.9204 C   0  0  0  0  0  0  0  0  0  0  0  0
    3.8518   -2.5006   -2.9960 N   0  0  0  0  0  0  0  0  0  0  0  0
    3.7526   -1.1966   -3.2905 C   0  0  0  0  0  0  0  0  0  0  0  0
    4.2377   -0.5247   -2.2415 N   0  0  0  0  0  0  0  0  0  0  0  0
    4.6040   -1.3812   -1.2308 C   0  0  0  0  0  0  0  0  0  0  0  0
    4.3614   -2.6363   -1.7330 C   0  0  0  0  0  0  0  0  0  0  0  0
    4.6855   -3.8505   -1.1271 N   0  0  0  0  0  0  0  0  0  0  0  0
    4.5691   -4.0163    0.1248 C   0  0  0  0  0  0  0  0  0  0  0  0
    3.9638   -3.0663    1.1456 C   0  0  2  0  0  0  0  0  0  0  0  0
    2.5840   -2.8835    0.9028 O   0  0  0  0  0  0  0  0  0  0  0  0
    2.1484   -1.8264    1.7355 C   0  0  0  0  0  0  0  0  0  0  0  0
    3.3218   -0.8488    1.7860 C   0  0  0  0  0  0  0  0  0  0  0  0
    4.5476   -1.6359    1.2980 C   0  0  2  0  0  0  0  0  0  0  0  0
    5.2153   -0.9559    0.0635 C   0  0  1  0  0  0  0  0  0  0  0  0
    6.6067   -1.2407    0.0834 O   0  0  0  0  0  0  0  0  0  0  0  0
    4.2863   -5.3272   -4.9073 H   0  0  0  0  0  0  0  0  0  0  0  0
    5.0083   -4.9906   -3.3724 H   0  0  0  0  0  0  0  0  0  0  0  0
    5.4195   -3.9728   -4.7416 H   0  0  0  0  0  0  0  0  0  0  0  0
    3.0314   -3.0898   -4.8176 H   0  0  0  0  0  0  0  0  0  0  0  0
    2.6204   -4.0862   -3.4465 H   0  0  0  0  0  0  0  0  0  0  0  0
    3.3846   -0.7678   -4.2041 H   0  0  0  0  0  0  0  0  0  0  0  0
    4.8635   -4.9669    0.5667 H   0  0  0  0  0  0  0  0  0  0  0  0
    4.0566   -3.5650    2.1105 H   0  0  0  0  0  0  0  0  0  0  0  0
    1.2506   -1.3653    1.3322 H   0  0  0  0  0  0  0  0  0  0  0  0
    1.9270   -2.2150    2.7293 H   0  0  0  0  0  0  0  0  0  0  0  0
    3.1158    0.0169    1.1534 H   0  0  0  0  0  0  0  0  0  0  0  0
    3.4614   -0.4745    2.8021 H   0  0  0  0  0  0  0  0  0  0  0  0
    5.2739   -1.6369    2.1137 H   0  0  0  0  0  0  0  0  0  0  0  0
    5.1378    0.1311    0.1527 H   0  0  0  0  0  0  0  0  0  0  0  0
    6.9730   -0.9224    0.9013 H   0  0  0  0  0  0  0  0  0  0  0  0
    4.3105    0.4862   -2.1978 H   0  0  0  0  0  0  0  0  0  0  0  0
  1  2  1  0
  1 17  1  0
  1 18  1  0
  1 19  1  0
  2  3  1  0
  2 20  1  0
  2 21  1  0
  3  7  1  0
  3  4  1  0
  4  5  2  0
  4 22  1  0
  5  6  1  0
  5 32  1  0
  6 15  1  0
  6  7  2  0
  7  8  1  0
  8  9  2  0
  9 10  1  0
  9 23  1  0
 10 14  1  0
 10 11  1  0
 10 24  1  1
 11 12  1  0
 12 13  1  0
 12 25  1  0
 12 26  1  0
 13 14  1  0
 13 27  1  0
 13 28  1  0
 14 15  1  0
 14 29  1  1
 15 16  1  0
 15 30  1  1
 16 31  1  0
M  CHG  1   5   1
M  END
>  <i_m_ct_stereo_status>  (44) 
1

>  <s_m_source_file>  (44) 
/var/tmp/pbs.5076255.sched01/tmpcyubysk0/0_f5co88n.sdf

>  <i_m_source_file_index>  (44) 
18

>  <i_lp_mmshare_version>  (44) 
48012

>  <i_f3d_flags>  (44) 
0

>  <s_epik_input>  (44) 
W0NIM11bQ0gyXW4oW2NIXW4xKWMoYzEyKU49W0NIXVtDQEhdM1tDQEhdKFtDSDJdW0NIMl1PMylbQ0BIXTJbT0hd

>  <s_epik_cmdline>  (44) 
J2VwaWtfcHl0aG9uJywgJy1waHQnLCAnMi4wJywgJy1waCcsICc3LjAnLCAnLXRuJywgJzgnLCAnLW1hJywgJzIwMCcsICctaW1hZScsICc8aW5maWxlLm1hZT4nLCAnLW9tYWUnLCAnPG91dGZpbGUubWFlPic=

>  <r_lp_tautomer_probability>  (44) 
0.999601

>  <r_epik_Ionization_Penalty>  (44) 
1.28529

>  <r_epik_Ionization_Penalty_Charging>  (44) 
0

>  <r_epik_Ionization_Penalty_Neutral>  (44) 
1.28529

>  <r_epik_State_Penalty>  (44) 
1.35719

>  <r_epik_Charging_Adjusted_Penalty>  (44) 
1.35719

>  <i_epik_Tot_Q>  (44) 
1

>  <i_epik_Tot_abs_Q>  (44) 
1

>  <s_epik_Chemistry_Notes>  (44) 
This compound has an imine and may undergo hydrolysis.

>  <s_lp_Force_Field>  (44) 
OPLS3e

>  <r_lp_Energy>  (44) 
27.9666

>  <b_lp_Chiralities_Consistent>  (44) 
1

>  <s_lp_Variant>  (44) 
13:0-2

>  <s_i_glide_gridfile>  (44) 
pfpi4k_grid

>  <i_i_glide_lignum>  (44) 
18

>  <i_i_glide_rotatable_bonds>  (44) 
2

>  <r_i_docking_score>  (44) 
-3.98497

>  <r_i_glide_ligand_efficiency>  (44) 
-0.24906

>  <r_i_glide_ligand_efficiency_sa>  (44) 
-0.627593

>  <r_i_glide_ligand_efficiency_ln>  (44) 
-1.05629

>  <r_i_glide_gscore>  (44) 
-3.98497

>  <r_i_glide_lipo>  (44) 
-0.104884

>  <r_i_glide_hbond>  (44) 
-0.0513934

>  <r_i_glide_metal>  (44) 
-0

>  <r_i_glide_rewards>  (44) 
-2.22422

>  <r_i_glide_evdw>  (44) 
-20.7262

>  <r_i_glide_ecoul>  (44) 
-3.78772

>  <r_i_glide_erotb>  (44) 
0

>  <r_i_glide_esite>  (44) 
0

>  <r_i_glide_emodel>  (44) 
-30.6515

>  <r_i_glide_energy>  (44) 
-24.5139

>  <r_i_glide_einternal>  (44) 
0.85113

>  <r_i_glide_intrahb_reward>  (44) 
-0

>  <i_i_glide_confnum>  (44) 
2

>  <i_i_glide_posenum>  (44) 
40

>  <r_i_glide_eff_state_penalty>  (44) 
0

>  <ligand_id>  (44) 
13

>  <original_smiles>  (44) 
CCn1cnc2c1N=CC1OCCC1C2O

>  <smiles>  (44) 
[H]OC1([H])c2c(n(C([H])([H])C([H])([H])[H])c([H])[n+]2[H])N=C([H])C2([H])OC([H])([H])C([H])([H])C21[H]

$$$$
13:1:2
     RDKit          3D

 32 34  0  0  1  0  0  0  0  0999 V2000
    3.1619   -1.4804    3.3661 C   0  0  0  0  0  0  0  0  0  0  0  0
    1.6596   -1.1945    3.2398 C   0  0  0  0  0  0  0  0  0  0  0  0
    1.3782    0.2357    3.0532 N   0  0  0  0  0  0  0  0  0  0  0  0
    1.2622    0.8223    1.8517 C   0  0  0  0  0  0  0  0  0  0  0  0
    1.0144    2.1243    2.0710 N   0  0  0  0  0  0  0  0  0  0  0  0
    0.9740    2.3890    3.4139 C   0  0  0  0  0  0  0  0  0  0  0  0
    1.2104    1.1823    4.0258 C   0  0  0  0  0  0  0  0  0  0  0  0
    1.3530    0.9532    5.3962 N   0  0  0  0  0  0  0  0  0  0  0  0
    0.6467    1.5930    6.2410 C   0  0  0  0  0  0  0  0  0  0  0  0
   -0.5209    2.5303    5.9686 C   0  0  2  0  0  0  0  0  0  0  0  0
   -1.6098    1.8309    5.3852 O   0  0  0  0  0  0  0  0  0  0  0  0
   -2.5443    2.8028    4.9536 C   0  0  0  0  0  0  0  0  0  0  0  0
   -1.7028    3.9854    4.4867 C   0  0  0  0  0  0  0  0  0  0  0  0
   -0.3058    3.7854    5.0821 C   0  0  2  0  0  0  0  0  0  0  0  0
    0.7798    3.7511    3.9705 C   0  0  1  0  0  0  0  0  0  0  0  0
    1.9860    4.2590    4.5152 O   0  0  0  0  0  0  0  0  0  0  0  0
    3.3408   -2.5439    3.5326 H   0  0  0  0  0  0  0  0  0  0  0  0
    3.5978   -0.9423    4.2112 H   0  0  0  0  0  0  0  0  0  0  0  0
    3.7014   -1.1889    2.4626 H   0  0  0  0  0  0  0  0  0  0  0  0
    1.2226   -1.7530    2.4093 H   0  0  0  0  0  0  0  0  0  0  0  0
    1.1473   -1.5088    4.1488 H   0  0  0  0  0  0  0  0  0  0  0  0
    1.3627    0.3344    0.8951 H   0  0  0  0  0  0  0  0  0  0  0  0
    0.8170    1.4406    7.3067 H   0  0  0  0  0  0  0  0  0  0  0  0
   -0.8538    2.8793    6.9474 H   0  0  0  0  0  0  0  0  0  0  0  0
   -3.1543    2.4199    4.1406 H   0  0  0  0  0  0  0  0  0  0  0  0
   -3.1845    3.0879    5.7890 H   0  0  0  0  0  0  0  0  0  0  0  0
   -1.6831    4.0276    3.3966 H   0  0  0  0  0  0  0  0  0  0  0  0
   -2.1386    4.9169    4.8373 H   0  0  0  0  0  0  0  0  0  0  0  0
   -0.0949    4.6450    5.7214 H   0  0  0  0  0  0  0  0  0  0  0  0
    0.5162    4.4357    3.1588 H   0  0  0  0  0  0  0  0  0  0  0  0
    2.6011    4.3707    3.8072 H   0  0  0  0  0  0  0  0  0  0  0  0
    0.8528    2.8306    1.3490 H   0  0  0  0  0  0  0  0  0  0  0  0
  1  2  1  0
  1 17  1  0
  1 18  1  0
  1 19  1  0
  2  3  1  0
  2 20  1  0
  2 21  1  0
  3  7  1  0
  3  4  1  0
  4  5  2  0
  4 22  1  0
  5  6  1  0
  5 32  1  0
  6 15  1  0
  6  7  2  0
  7  8  1  0
  8  9  2  0
  9 10  1  0
  9 23  1  0
 10 14  1  0
 10 11  1  0
 10 24  1  1
 11 12  1  0
 12 13  1  0
 12 25  1  0
 12 26  1  0
 13 14  1  0
 13 27  1  0
 13 28  1  0
 14 15  1  0
 14 29  1  1
 15 16  1  0
 15 30  1  6
 16 31  1  0
M  CHG  1   5   1
M  END
>  <i_m_ct_stereo_status>  (45) 
1

>  <s_m_source_file>  (45) 
/var/tmp/pbs.5076255.sched01/tmpcyubysk0/0_f5co88n.sdf

>  <i_m_source_file_index>  (45) 
18

>  <i_lp_mmshare_version>  (45) 
48012

>  <i_f3d_flags>  (45) 
0

>  <s_epik_input>  (45) 
W0NIM11bQ0gyXW4oW2NIXW4xKWMoYzEyKU49W0NIXVtDQEhdM1tDQEhdKFtDSDJdW0NIMl1PMylbQ0BIXTJbT0hd

>  <s_epik_cmdline>  (45) 
J2VwaWtfcHl0aG9uJywgJy1waHQnLCAnMi4wJywgJy1waCcsICc3LjAnLCAnLXRuJywgJzgnLCAnLW1hJywgJzIwMCcsICctaW1hZScsICc8aW5maWxlLm1hZT4nLCAnLW9tYWUnLCAnPG91dGZpbGUubWFlPic=

>  <r_lp_tautomer_probability>  (45) 
0.999601

>  <r_epik_Ionization_Penalty>  (45) 
1.28529

>  <r_epik_Ionization_Penalty_Charging>  (45) 
0

>  <r_epik_Ionization_Penalty_Neutral>  (45) 
1.28529

>  <r_epik_State_Penalty>  (45) 
1.35719

>  <r_epik_Charging_Adjusted_Penalty>  (45) 
1.35719

>  <i_epik_Tot_Q>  (45) 
1

>  <i_epik_Tot_abs_Q>  (45) 
1

>  <s_epik_Chemistry_Notes>  (45) 
This compound has an imine and may undergo hydrolysis.

>  <s_lp_Force_Field>  (45) 
OPLS3e

>  <r_lp_Energy>  (45) 
27.9666

>  <b_lp_Chiralities_Consistent>  (45) 
1

>  <s_lp_Variant>  (45) 
13:0-2

>  <s_i_glide_gridfile>  (45) 
pfpi4k_grid

>  <i_i_glide_lignum>  (45) 
18

>  <i_i_glide_rotatable_bonds>  (45) 
2

>  <r_i_docking_score>  (45) 
-3.74011

>  <r_i_glide_ligand_efficiency>  (45) 
-0.233757

>  <r_i_glide_ligand_efficiency_sa>  (45) 
-0.589031

>  <r_i_glide_ligand_efficiency_ln>  (45) 
-0.991391

>  <r_i_glide_gscore>  (45) 
-3.74011

>  <r_i_glide_lipo>  (45) 
0

>  <r_i_glide_hbond>  (45) 
-0.2

>  <r_i_glide_metal>  (45) 
-0

>  <r_i_glide_rewards>  (45) 
-1.89366

>  <r_i_glide_evdw>  (45) 
-11.5021

>  <r_i_glide_ecoul>  (45) 
-6.04096

>  <r_i_glide_erotb>  (45) 
0

>  <r_i_glide_esite>  (45) 
-0.165204

>  <r_i_glide_emodel>  (45) 
-23.4817

>  <r_i_glide_energy>  (45) 
-17.5431

>  <r_i_glide_einternal>  (45) 
0.643507

>  <r_i_glide_intrahb_reward>  (45) 
-0

>  <i_i_glide_confnum>  (45) 
1

>  <i_i_glide_posenum>  (45) 
37

>  <r_i_glide_eff_state_penalty>  (45) 
0

>  <ligand_id>  (45) 
13

>  <original_smiles>  (45) 
CCn1cnc2c1N=CC1OCCC1C2O

>  <smiles>  (45) 
[H]OC1([H])c2c(n(C([H])([H])C([H])([H])[H])c([H])[n+]2[H])N=C([H])C2([H])OC([H])([H])C([H])([H])C21[H]

$$$$
14:0:0
     RDKit          3D

 45 48  0  0  1  0  0  0  0  0999 V2000
    0.7334   -9.2730    6.2464 C   0  0  0  0  0  0  0  0  0  0  0  0
    1.2504   -8.4730    5.0495 C   0  0  0  0  0  0  0  0  0  0  0  0
    2.5752   -8.2788    4.9054 C   0  0  0  0  0  0  0  0  0  0  0  0
    3.1684   -7.5331    3.8012 C   0  0  0  0  0  0  0  0  0  0  0  0
    4.4455   -7.1414    3.9294 C   0  0  0  0  0  0  0  0  0  0  0  0
    5.0949   -6.3116    2.9189 C   0  0  0  0  0  0  0  0  0  0  0  0
    6.3254   -6.2376    2.9348 O   0  0  0  0  0  0  0  0  0  0  0  0
    4.2644   -5.6267    1.8883 C   0  0  0  0  0  0  0  0  0  0  0  0
    2.9836   -6.0727    1.7209 C   0  0  0  0  0  0  0  0  0  0  0  0
    2.2067   -5.4577    0.6083 C   0  0  0  0  0  0  0  0  0  0  0  0
    1.1942   -5.9764    0.1378 O   0  0  0  0  0  0  0  0  0  0  0  0
    2.6543   -4.1914    0.0273 C   0  0  0  0  0  0  0  0  0  0  0  0
    3.8910   -3.7231    0.2254 C   0  0  0  0  0  0  0  0  0  0  0  0
    4.3075   -2.4236   -0.4542 C   0  0  0  0  0  0  0  0  0  0  0  0
    5.0729   -1.5110    0.4946 C   0  0  0  0  0  0  0  0  0  0  0  0
    4.8758   -0.3004    0.5496 O   0  0  0  0  0  0  0  0  0  0  0  0
    6.1621   -2.1685    1.3187 C   0  0  0  0  0  0  0  0  0  0  0  0
    5.6137   -3.4256    2.0129 C   0  0  0  0  0  0  0  0  0  0  0  0
    4.9302   -4.4647    1.0736 C   0  0  1  0  0  0  0  0  0  0  0  0
    5.9613   -5.0543    0.0899 C   0  0  0  0  0  0  0  0  0  0  0  0
    2.3211   -7.2265    2.5605 C   0  0  1  0  0  0  0  0  0  0  0  0
    2.2978   -8.5033    1.6795 C   0  0  0  0  0  0  0  0  0  0  0  0
    0.8824   -6.8869    3.1237 C   0  0  0  0  0  0  0  0  0  0  0  0
    0.2795   -5.8684    2.8129 O   0  0  0  0  0  0  0  0  0  0  0  0
    0.1921   -7.8650    4.1112 C   0  0  1  0  0  0  0  0  0  0  0  0
   -0.3552   -8.8072    3.3854 O   0  0  0  0  0  0  0  0  0  0  0  0
    0.0855   -8.6802    6.8995 H   0  0  0  0  0  0  0  0  0  0  0  0
    1.5704   -9.6301    6.8583 H   0  0  0  0  0  0  0  0  0  0  0  0
    0.1872  -10.1636    5.9195 H   0  0  0  0  0  0  0  0  0  0  0  0
    3.2384   -8.7125    5.6467 H   0  0  0  0  0  0  0  0  0  0  0  0
    5.0291   -7.4102    4.8014 H   0  0  0  0  0  0  0  0  0  0  0  0
    1.9606   -3.6605   -0.6132 H   0  0  0  0  0  0  0  0  0  0  0  0
    4.9442   -2.6475   -1.3085 H   0  0  0  0  0  0  0  0  0  0  0  0
    3.4239   -1.8947   -0.8162 H   0  0  0  0  0  0  0  0  0  0  0  0
    6.9924   -2.4171    0.6579 H   0  0  0  0  0  0  0  0  0  0  0  0
    6.5564   -1.4538    2.0445 H   0  0  0  0  0  0  0  0  0  0  0  0
    6.4618   -3.8786    2.5127 H   0  0  0  0  0  0  0  0  0  0  0  0
    4.9156   -3.1074    2.7890 H   0  0  0  0  0  0  0  0  0  0  0  0
    5.4824   -5.8064   -0.5399 H   0  0  0  0  0  0  0  0  0  0  0  0
    6.8070   -5.5335    0.5837 H   0  0  0  0  0  0  0  0  0  0  0  0
    6.3799   -4.2947   -0.5751 H   0  0  0  0  0  0  0  0  0  0  0  0
    1.5453   -8.4297    0.8968 H   0  0  0  0  0  0  0  0  0  0  0  0
    2.0682   -9.4042    2.2515 H   0  0  0  0  0  0  0  0  0  0  0  0
    3.2634   -8.6664    1.2024 H   0  0  0  0  0  0  0  0  0  0  0  0
   -0.3849   -7.2225    4.7664 H   0  0  0  0  0  0  0  0  0  0  0  0
  1  2  1  0
  1 27  1  0
  1 28  1  0
  1 29  1  0
  2 25  1  0
  2  3  2  0
  3  4  1  0
  3 30  1  0
  4 21  1  0
  4  5  2  0
  5  6  1  0
  5 31  1  0
  6  7  2  0
  6  8  1  0
  8 19  1  0
  8  9  2  0
  9 10  1  0
  9 21  1  0
 10 11  2  0
 10 12  1  0
 12 13  2  0
 12 32  1  0
 13 19  1  0
 13 14  1  0
 14 15  1  0
 14 33  1  0
 14 34  1  0
 15 16  2  0
 15 17  1  0
 17 18  1  0
 17 35  1  0
 17 36  1  0
 18 19  1  0
 18 37  1  0
 18 38  1  0
 19 20  1  6
 20 39  1  0
 20 40  1  0
 20 41  1  0
 21 22  1  6
 21 23  1  0
 22 42  1  0
 22 43  1  0
 22 44  1  0
 23 24  2  0
 23 25  1  0
 25 26  1  0
 25 45  1  1
M  CHG  1  26  -1
M  END
>  <i_m_ct_stereo_status>  (46) 
1

>  <s_m_source_file>  (46) 
/var/tmp/pbs.5076255.sched01/tmpcyubysk0/0_f5co88n.sdf

>  <i_m_source_file_index>  (46) 
19

>  <i_lp_mmshare_version>  (46) 
48012

>  <i_f3d_flags>  (46) 
0

>  <s_epik_input>  (46) 
Tz1DMVtDQEBIXShbT0hdKUMoW0NIM10pPVtDSF1DKD1bQ0hdQzI9TylbQ0BdMShbQ0gzXSlDKD1DMltDQEBdMzRbQ0gzXSlDKD1PKVtDSF09QzNbQ0gyXUMoPU8pW0NIMl1bQ0gyXTQ=

>  <s_epik_cmdline>  (46) 
J2VwaWtfcHl0aG9uJywgJy1waHQnLCAnMi4wJywgJy1waCcsICc3LjAnLCAnLXRuJywgJzgnLCAnLW1hJywgJzIwMCcsICctaW1hZScsICc8aW5maWxlLm1hZT4nLCAnLW9tYWUnLCAnPG91dGZpbGUubWFlPic=

>  <r_lp_tautomer_probability>  (46) 
0.99995

>  <r_epik_Ionization_Penalty>  (46) 
0.0103559

>  <r_epik_Ionization_Penalty_Charging>  (46) 
0.0103559

>  <r_epik_Ionization_Penalty_Neutral>  (46) 
2.06974e-09

>  <r_epik_State_Penalty>  (46) 
0.00791493

>  <r_epik_Charging_Adjusted_Penalty>  (46) 
0.0182708

>  <i_epik_Tot_Q>  (46) 
-1

>  <i_epik_Tot_abs_Q>  (46) 
1

>  <s_lp_Force_Field>  (46) 
OPLS3e

>  <r_lp_Energy>  (46) 
68.5754

>  <b_lp_Chiralities_Consistent>  (46) 
1

>  <s_lp_Variant>  (46) 
14:0-1

>  <s_i_glide_gridfile>  (46) 
pfpi4k_grid

>  <i_i_glide_lignum>  (46) 
19

>  <i_i_glide_rotatable_bonds>  (46) 
0

>  <r_i_docking_score>  (46) 
-3.64484

>  <r_i_glide_ligand_efficiency>  (46) 
-0.140186

>  <r_i_glide_ligand_efficiency_sa>  (46) 
-0.415301

>  <r_i_glide_ligand_efficiency_ln>  (46) 
-0.855978

>  <r_i_glide_gscore>  (46) 
-3.64484

>  <r_i_glide_lipo>  (46) 
-0.331434

>  <r_i_glide_hbond>  (46) 
-0.423776

>  <r_i_glide_metal>  (46) 
-0

>  <r_i_glide_rewards>  (46) 
-1.09086

>  <r_i_glide_evdw>  (46) 
-25.2501

>  <r_i_glide_ecoul>  (46) 
-2.98629

>  <r_i_glide_erotb>  (46) 
0

>  <r_i_glide_esite>  (46) 
-0.0883201

>  <r_i_glide_emodel>  (46) 
-35.5559

>  <r_i_glide_energy>  (46) 
-28.2364

>  <r_i_glide_einternal>  (46) 
0

>  <r_i_glide_intrahb_reward>  (46) 
-0

>  <i_i_glide_confnum>  (46) 
1

>  <i_i_glide_posenum>  (46) 
30

>  <r_i_glide_eff_state_penalty>  (46) 
0

>  <ligand_id>  (46) 
14

>  <original_smiles>  (46) 
CC1=CC2=CC(=O)C3=C(C(=O)C=C4CC(=O)CCC43C)C2(C)C(=O)C1O

>  <smiles>  (46) 
[H]C1=C(C([H])([H])[H])C([H])([O-])C(=O)C2(C([H])([H])[H])C1=C([H])C(=O)C1=C2C(=O)C([H])=C2C([H])([H])C(=O)C([H])([H])C([H])([H])C12C([H])([H])[H]

$$$$
14:0:1
     RDKit          3D

 45 48  0  0  1  0  0  0  0  0999 V2000
    0.1390   -3.1126    6.6272 C   0  0  0  0  0  0  0  0  0  0  0  0
    1.0777   -3.3398    5.4448 C   0  0  0  0  0  0  0  0  0  0  0  0
    1.8604   -2.3317    5.0095 C   0  0  0  0  0  0  0  0  0  0  0  0
    2.7950   -2.4551    3.8979 C   0  0  0  0  0  0  0  0  0  0  0  0
    3.2769   -1.3190    3.3660 C   0  0  0  0  0  0  0  0  0  0  0  0
    4.1443   -1.3255    2.1945 C   0  0  0  0  0  0  0  0  0  0  0  0
    4.8001   -0.3116    1.9457 O   0  0  0  0  0  0  0  0  0  0  0  0
    4.2506   -2.5674    1.3811 C   0  0  0  0  0  0  0  0  0  0  0  0
    3.8147   -3.7347    1.9518 C   0  0  0  0  0  0  0  0  0  0  0  0
    4.0479   -4.9876    1.1830 C   0  0  0  0  0  0  0  0  0  0  0  0
    4.0720   -6.0938    1.7181 O   0  0  0  0  0  0  0  0  0  0  0  0
    4.3420   -4.8985   -0.2439 C   0  0  0  0  0  0  0  0  0  0  0  0
    4.7125   -3.7481   -0.8275 C   0  0  0  0  0  0  0  0  0  0  0  0
    5.0381   -3.7409   -2.3175 C   0  0  0  0  0  0  0  0  0  0  0  0
    4.4260   -2.5448   -3.0292 C   0  0  0  0  0  0  0  0  0  0  0  0
    3.9122   -2.6370   -4.1430 O   0  0  0  0  0  0  0  0  0  0  0  0
    4.5986   -1.2038   -2.3385 C   0  0  0  0  0  0  0  0  0  0  0  0
    4.1822   -1.2935   -0.8646 C   0  0  0  0  0  0  0  0  0  0  0  0
    4.8755   -2.4352   -0.0499 C   0  0  1  0  0  0  0  0  0  0  0  0
    6.4002   -2.1792    0.0682 C   0  0  0  0  0  0  0  0  0  0  0  0
    3.1794   -3.8513    3.3869 C   0  0  1  0  0  0  0  0  0  0  0  0
    4.2677   -4.4203    4.3405 C   0  0  0  0  0  0  0  0  0  0  0  0
    1.8463   -4.7001    3.4622 C   0  0  0  0  0  0  0  0  0  0  0  0
    1.4027   -5.3120    2.4939 O   0  0  0  0  0  0  0  0  0  0  0  0
    1.0307   -4.7285    4.7907 C   0  0  1  0  0  0  0  0  0  0  0  0
    1.5811   -5.5919    5.6010 O   0  0  0  0  0  0  0  0  0  0  0  0
   -0.9119   -3.2545    6.3540 H   0  0  0  0  0  0  0  0  0  0  0  0
    0.2453   -2.0904    7.0068 H   0  0  0  0  0  0  0  0  0  0  0  0
    0.3803   -3.7851    7.4567 H   0  0  0  0  0  0  0  0  0  0  0  0
    1.8013   -1.3824    5.5255 H   0  0  0  0  0  0  0  0  0  0  0  0
    3.0127   -0.3525    3.7776 H   0  0  0  0  0  0  0  0  0  0  0  0
    4.2740   -5.8185   -0.8065 H   0  0  0  0  0  0  0  0  0  0  0  0
    6.1182   -3.7172   -2.4580 H   0  0  0  0  0  0  0  0  0  0  0  0
    4.6659   -4.6506   -2.7867 H   0  0  0  0  0  0  0  0  0  0  0  0
    5.6447   -0.9168   -2.4069 H   0  0  0  0  0  0  0  0  0  0  0  0
    4.0305   -0.4366   -2.8705 H   0  0  0  0  0  0  0  0  0  0  0  0
    4.3650   -0.3061   -0.4394 H   0  0  0  0  0  0  0  0  0  0  0  0
    3.1006   -1.4313   -0.8387 H   0  0  0  0  0  0  0  0  0  0  0  0
    6.8716   -2.9559    0.6736 H   0  0  0  0  0  0  0  0  0  0  0  0
    6.6409   -1.2197    0.5284 H   0  0  0  0  0  0  0  0  0  0  0  0
    6.8979   -2.1962   -0.9029 H   0  0  0  0  0  0  0  0  0  0  0  0
    4.4394   -5.4822    4.1703 H   0  0  0  0  0  0  0  0  0  0  0  0
    3.9951   -4.3124    5.3893 H   0  0  0  0  0  0  0  0  0  0  0  0
    5.2181   -3.9037    4.2045 H   0  0  0  0  0  0  0  0  0  0  0  0
    0.0002   -4.8173    4.4554 H   0  0  0  0  0  0  0  0  0  0  0  0
  1  2  1  0
  1 27  1  0
  1 28  1  0
  1 29  1  0
  2 25  1  0
  2  3  2  0
  3  4  1  0
  3 30  1  0
  4 21  1  0
  4  5  2  0
  5  6  1  0
  5 31  1  0
  6  7  2  0
  6  8  1  0
  8 19  1  0
  8  9  2  0
  9 10  1  0
  9 21  1  0
 10 11  2  0
 10 12  1  0
 12 13  2  0
 12 32  1  0
 13 19  1  0
 13 14  1  0
 14 15  1  0
 14 33  1  0
 14 34  1  0
 15 16  2  0
 15 17  1  0
 17 18  1  0
 17 35  1  0
 17 36  1  0
 18 19  1  0
 18 37  1  0
 18 38  1  0
 19 20  1  1
 20 39  1  0
 20 40  1  0
 20 41  1  0
 21 22  1  1
 21 23  1  0
 22 42  1  0
 22 43  1  0
 22 44  1  0
 23 24  2  0
 23 25  1  0
 25 26  1  0
 25 45  1  6
M  CHG  1  26  -1
M  END
>  <i_m_ct_stereo_status>  (47) 
1

>  <s_m_source_file>  (47) 
/var/tmp/pbs.5076255.sched01/tmpcyubysk0/0_f5co88n.sdf

>  <i_m_source_file_index>  (47) 
19

>  <i_lp_mmshare_version>  (47) 
48012

>  <i_f3d_flags>  (47) 
0

>  <s_epik_input>  (47) 
Tz1DMVtDQEBIXShbT0hdKUMoW0NIM10pPVtDSF1DKD1bQ0hdQzI9TylbQ0BdMShbQ0gzXSlDKD1DMltDQEBdMzRbQ0gzXSlDKD1PKVtDSF09QzNbQ0gyXUMoPU8pW0NIMl1bQ0gyXTQ=

>  <s_epik_cmdline>  (47) 
J2VwaWtfcHl0aG9uJywgJy1waHQnLCAnMi4wJywgJy1waCcsICc3LjAnLCAnLXRuJywgJzgnLCAnLW1hJywgJzIwMCcsICctaW1hZScsICc8aW5maWxlLm1hZT4nLCAnLW9tYWUnLCAnPG91dGZpbGUubWFlPic=

>  <r_lp_tautomer_probability>  (47) 
0.99995

>  <r_epik_Ionization_Penalty>  (47) 
0.0103559

>  <r_epik_Ionization_Penalty_Charging>  (47) 
0.0103559

>  <r_epik_Ionization_Penalty_Neutral>  (47) 
2.06974e-09

>  <r_epik_State_Penalty>  (47) 
0.00791493

>  <r_epik_Charging_Adjusted_Penalty>  (47) 
0.0182708

>  <i_epik_Tot_Q>  (47) 
-1

>  <i_epik_Tot_abs_Q>  (47) 
1

>  <s_lp_Force_Field>  (47) 
OPLS3e

>  <r_lp_Energy>  (47) 
68.5754

>  <b_lp_Chiralities_Consistent>  (47) 
1

>  <s_lp_Variant>  (47) 
14:0-1

>  <s_i_glide_gridfile>  (47) 
pfpi4k_grid

>  <i_i_glide_lignum>  (47) 
19

>  <i_i_glide_rotatable_bonds>  (47) 
0

>  <r_i_docking_score>  (47) 
-3.54497

>  <r_i_glide_ligand_efficiency>  (47) 
-0.136345

>  <r_i_glide_ligand_efficiency_sa>  (47) 
-0.403922

>  <r_i_glide_ligand_efficiency_ln>  (47) 
-0.832525

>  <r_i_glide_gscore>  (47) 
-3.54497

>  <r_i_glide_lipo>  (47) 
-0.0636211

>  <r_i_glide_hbond>  (47) 
-0.352182

>  <r_i_glide_metal>  (47) 
-0

>  <r_i_glide_rewards>  (47) 
-1.21276

>  <r_i_glide_evdw>  (47) 
-28.4302

>  <r_i_glide_ecoul>  (47) 
-3.26948

>  <r_i_glide_erotb>  (47) 
0

>  <r_i_glide_esite>  (47) 
-0.00447326

>  <r_i_glide_emodel>  (47) 
-38.8596

>  <r_i_glide_energy>  (47) 
-31.6996

>  <r_i_glide_einternal>  (47) 
0

>  <r_i_glide_intrahb_reward>  (47) 
-0

>  <i_i_glide_confnum>  (47) 
1

>  <i_i_glide_posenum>  (47) 
10

>  <r_i_glide_eff_state_penalty>  (47) 
0

>  <ligand_id>  (47) 
14

>  <original_smiles>  (47) 
CC1=CC2=CC(=O)C3=C(C(=O)C=C4CC(=O)CCC43C)C2(C)C(=O)C1O

>  <smiles>  (47) 
[H]C1=C(C([H])([H])[H])C([H])([O-])C(=O)C2(C([H])([H])[H])C1=C([H])C(=O)C1=C2C(=O)C([H])=C2C([H])([H])C(=O)C([H])([H])C([H])([H])C12C([H])([H])[H]

$$$$
14:0:2
     RDKit          3D

 45 48  0  0  1  0  0  0  0  0999 V2000
    5.3869   -1.3954   -1.4651 C   0  0  0  0  0  0  0  0  0  0  0  0
    4.7743   -2.2356   -0.3522 C   0  0  0  0  0  0  0  0  0  0  0  0
    4.9003   -3.5779   -0.3856 C   0  0  0  0  0  0  0  0  0  0  0  0
    4.3616   -4.4626    0.6386 C   0  0  0  0  0  0  0  0  0  0  0  0
    4.2750   -5.7686    0.3422 C   0  0  0  0  0  0  0  0  0  0  0  0
    3.6652   -6.7243    1.2559 C   0  0  0  0  0  0  0  0  0  0  0  0
    3.8871   -7.9195    1.0745 O   0  0  0  0  0  0  0  0  0  0  0  0
    2.8337   -6.2189    2.3839 C   0  0  0  0  0  0  0  0  0  0  0  0
    2.9699   -4.9003    2.7246 C   0  0  0  0  0  0  0  0  0  0  0  0
    2.2438   -4.4394    3.9436 C   0  0  0  0  0  0  0  0  0  0  0  0
    2.5805   -3.4408    4.5751 O   0  0  0  0  0  0  0  0  0  0  0  0
    1.1386   -5.2493    4.4571 C   0  0  0  0  0  0  0  0  0  0  0  0
    0.9646   -6.5281    4.0908 C   0  0  0  0  0  0  0  0  0  0  0  0
   -0.1703   -7.3337    4.7222 C   0  0  0  0  0  0  0  0  0  0  0  0
   -0.9212   -8.1553    3.6832 C   0  0  0  0  0  0  0  0  0  0  0  0
   -2.1490   -8.1798    3.6359 O   0  0  0  0  0  0  0  0  0  0  0  0
   -0.0614   -8.9439    2.7105 C   0  0  0  0  0  0  0  0  0  0  0  0
    1.0092   -8.0322    2.0805 C   0  0  0  0  0  0  0  0  0  0  0  0
    1.8974   -7.2509    3.1044 C   0  0  1  0  0  0  0  0  0  0  0  0
    2.7555   -8.2367    3.9394 C   0  0  0  0  0  0  0  0  0  0  0  0
    3.9106   -3.8771    1.9853 C   0  0  1  0  0  0  0  0  0  0  0  0
    5.1799   -3.6797    2.8581 C   0  0  0  0  0  0  0  0  0  0  0  0
    3.2382   -2.4906    1.6364 C   0  0  0  0  0  0  0  0  0  0  0  0
    2.1115   -2.1974    2.0243 O   0  0  0  0  0  0  0  0  0  0  0  0
    4.0082   -1.4736    0.7407 C   0  0  1  0  0  0  0  0  0  0  0  0
    4.8701   -0.8214    1.4848 O   0  0  0  0  0  0  0  0  0  0  0  0
    4.6344   -0.8162   -2.0113 H   0  0  0  0  0  0  0  0  0  0  0  0
    5.9047   -2.0344   -2.1895 H   0  0  0  0  0  0  0  0  0  0  0  0
    6.1232   -0.7043   -1.0468 H   0  0  0  0  0  0  0  0  0  0  0  0
    5.4398   -4.0155   -1.2135 H   0  0  0  0  0  0  0  0  0  0  0  0
    4.6272   -6.1461   -0.6102 H   0  0  0  0  0  0  0  0  0  0  0  0
    0.4872   -4.7883    5.1878 H   0  0  0  0  0  0  0  0  0  0  0  0
    0.2287   -8.0095    5.4784 H   0  0  0  0  0  0  0  0  0  0  0  0
   -0.8743   -6.6614    5.2109 H   0  0  0  0  0  0  0  0  0  0  0  0
    0.3981   -9.7747    3.2476 H   0  0  0  0  0  0  0  0  0  0  0  0
   -0.6964   -9.3932    1.9447 H   0  0  0  0  0  0  0  0  0  0  0  0
    1.5975   -8.6671    1.4198 H   0  0  0  0  0  0  0  0  0  0  0  0
    0.5022   -7.3252    1.4254 H   0  0  0  0  0  0  0  0  0  0  0  0
    3.4055   -7.6933    4.6286 H   0  0  0  0  0  0  0  0  0  0  0  0
    3.3941   -8.8752    3.3263 H   0  0  0  0  0  0  0  0  0  0  0  0
    2.1449   -8.9096    4.5449 H   0  0  0  0  0  0  0  0  0  0  0  0
    4.9724   -3.0782    3.7415 H   0  0  0  0  0  0  0  0  0  0  0  0
    5.9792   -3.1754    2.3160 H   0  0  0  0  0  0  0  0  0  0  0  0
    5.5784   -4.6382    3.1919 H   0  0  0  0  0  0  0  0  0  0  0  0
    3.2187   -0.9679    0.1921 H   0  0  0  0  0  0  0  0  0  0  0  0
  1  2  1  0
  1 27  1  0
  1 28  1  0
  1 29  1  0
  2 25  1  0
  2  3  2  0
  3  4  1  0
  3 30  1  0
  4 21  1  0
  4  5  2  0
  5  6  1  0
  5 31  1  0
  6  7  2  0
  6  8  1  0
  8 19  1  0
  8  9  2  0
  9 10  1  0
  9 21  1  0
 10 11  2  0
 10 12  1  0
 12 13  2  0
 12 32  1  0
 13 19  1  0
 13 14  1  0
 14 15  1  0
 14 33  1  0
 14 34  1  0
 15 16  2  0
 15 17  1  0
 17 18  1  0
 17 35  1  0
 17 36  1  0
 18 19  1  0
 18 37  1  0
 18 38  1  0
 19 20  1  1
 20 39  1  0
 20 40  1  0
 20 41  1  0
 21 22  1  1
 21 23  1  0
 22 42  1  0
 22 43  1  0
 22 44  1  0
 23 24  2  0
 23 25  1  0
 25 26  1  0
 25 45  1  6
M  CHG  1  26  -1
M  END
>  <i_m_ct_stereo_status>  (48) 
1

>  <s_m_source_file>  (48) 
/var/tmp/pbs.5076255.sched01/tmpcyubysk0/0_f5co88n.sdf

>  <i_m_source_file_index>  (48) 
19

>  <i_lp_mmshare_version>  (48) 
48012

>  <i_f3d_flags>  (48) 
0

>  <s_epik_input>  (48) 
Tz1DMVtDQEBIXShbT0hdKUMoW0NIM10pPVtDSF1DKD1bQ0hdQzI9TylbQ0BdMShbQ0gzXSlDKD1DMltDQEBdMzRbQ0gzXSlDKD1PKVtDSF09QzNbQ0gyXUMoPU8pW0NIMl1bQ0gyXTQ=

>  <s_epik_cmdline>  (48) 
J2VwaWtfcHl0aG9uJywgJy1waHQnLCAnMi4wJywgJy1waCcsICc3LjAnLCAnLXRuJywgJzgnLCAnLW1hJywgJzIwMCcsICctaW1hZScsICc8aW5maWxlLm1hZT4nLCAnLW9tYWUnLCAnPG91dGZpbGUubWFlPic=

>  <r_lp_tautomer_probability>  (48) 
0.99995

>  <r_epik_Ionization_Penalty>  (48) 
0.0103559

>  <r_epik_Ionization_Penalty_Charging>  (48) 
0.0103559

>  <r_epik_Ionization_Penalty_Neutral>  (48) 
2.06974e-09

>  <r_epik_State_Penalty>  (48) 
0.00791493

>  <r_epik_Charging_Adjusted_Penalty>  (48) 
0.0182708

>  <i_epik_Tot_Q>  (48) 
-1

>  <i_epik_Tot_abs_Q>  (48) 
1

>  <s_lp_Force_Field>  (48) 
OPLS3e

>  <r_lp_Energy>  (48) 
68.5754

>  <b_lp_Chiralities_Consistent>  (48) 
1

>  <s_lp_Variant>  (48) 
14:0-1

>  <s_i_glide_gridfile>  (48) 
pfpi4k_grid

>  <i_i_glide_lignum>  (48) 
19

>  <i_i_glide_rotatable_bonds>  (48) 
0

>  <r_i_docking_score>  (48) 
-2.71791

>  <r_i_glide_ligand_efficiency>  (48) 
-0.104535

>  <r_i_glide_ligand_efficiency_sa>  (48) 
-0.309684

>  <r_i_glide_ligand_efficiency_ln>  (48) 
-0.638291

>  <r_i_glide_gscore>  (48) 
-2.71791

>  <r_i_glide_lipo>  (48) 
-0.203499

>  <r_i_glide_hbond>  (48) 
0

>  <r_i_glide_metal>  (48) 
-0

>  <r_i_glide_rewards>  (48) 
-1.10747

>  <r_i_glide_evdw>  (48) 
-30.5903

>  <r_i_glide_ecoul>  (48) 
1.29927

>  <r_i_glide_erotb>  (48) 
0

>  <r_i_glide_esite>  (48) 
-0.0723113

>  <r_i_glide_emodel>  (48) 
-34.6762

>  <r_i_glide_energy>  (48) 
-29.291

>  <r_i_glide_einternal>  (48) 
0

>  <r_i_glide_intrahb_reward>  (48) 
-0

>  <i_i_glide_confnum>  (48) 
1

>  <i_i_glide_posenum>  (48) 
2

>  <r_i_glide_eff_state_penalty>  (48) 
0

>  <ligand_id>  (48) 
14

>  <original_smiles>  (48) 
CC1=CC2=CC(=O)C3=C(C(=O)C=C4CC(=O)CCC43C)C2(C)C(=O)C1O

>  <smiles>  (48) 
[H]C1=C(C([H])([H])[H])C([H])([O-])C(=O)C2(C([H])([H])[H])C1=C([H])C(=O)C1=C2C(=O)C([H])=C2C([H])([H])C(=O)C([H])([H])C([H])([H])C12C([H])([H])[H]

$$$$
14:1:0
     RDKit          3D

 46 49  0  0  1  0  0  0  0  0999 V2000
    1.0736   -5.0415    6.5728 C   0  0  0  0  0  0  0  0  0  0  0  0
    1.8803   -4.8316    5.3110 C   0  0  0  0  0  0  0  0  0  0  0  0
    2.4130   -3.6361    5.0089 C   0  0  0  0  0  0  0  0  0  0  0  0
    3.1937   -3.4327    3.7995 C   0  0  0  0  0  0  0  0  0  0  0  0
    3.3827   -2.1625    3.4027 C   0  0  0  0  0  0  0  0  0  0  0  0
    4.1152   -1.8257    2.1824 C   0  0  0  0  0  0  0  0  0  0  0  0
    4.5013   -0.6630    2.0374 O   0  0  0  0  0  0  0  0  0  0  0  0
    4.4172   -2.9074    1.2039 C   0  0  0  0  0  0  0  0  0  0  0  0
    4.2788   -4.2011    1.6190 C   0  0  0  0  0  0  0  0  0  0  0  0
    4.7088   -5.2764    0.6753 C   0  0  0  0  0  0  0  0  0  0  0  0
    4.9171   -6.4329    1.0357 O   0  0  0  0  0  0  0  0  0  0  0  0
    4.9329   -4.9329   -0.7239 C   0  0  0  0  0  0  0  0  0  0  0  0
    5.0170   -3.6677   -1.1584 C   0  0  0  0  0  0  0  0  0  0  0  0
    5.2621   -3.3955   -2.6483 C   0  0  0  0  0  0  0  0  0  0  0  0
    4.3687   -2.2854   -3.1700 C   0  0  0  0  0  0  0  0  0  0  0  0
    3.8294   -2.3446   -4.2739 O   0  0  0  0  0  0  0  0  0  0  0  0
    4.2497   -1.0477   -2.2976 C   0  0  0  0  0  0  0  0  0  0  0  0
    3.9526   -1.4200   -0.8418 C   0  0  0  0  0  0  0  0  0  0  0  0
    4.9240   -2.4584   -0.2086 C   0  0  1  0  0  0  0  0  0  0  0  0
    6.3558   -1.8831   -0.1004 C   0  0  0  0  0  0  0  0  0  0  0  0
    3.7925   -4.6358    3.0431 C   0  0  1  0  0  0  0  0  0  0  0  0
    4.9966   -5.1616    3.8593 C   0  0  0  0  0  0  0  0  0  0  0  0
    2.6386   -5.6722    3.0270 C   0  0  0  0  0  0  0  0  0  0  0  0
    2.1686   -6.1319    1.9892 O   0  0  0  0  0  0  0  0  0  0  0  0
    2.0036   -6.0459    4.3852 C   0  0  1  0  0  0  0  0  0  0  0  0
    2.6863   -7.1079    5.0291 O   0  0  0  0  0  0  0  0  0  0  0  0
    0.0637   -5.4032    6.3389 H   0  0  0  0  0  0  0  0  0  0  0  0
    0.9845   -4.0965    7.1288 H   0  0  0  0  0  0  0  0  0  0  0  0
    1.5689   -5.7743    7.2199 H   0  0  0  0  0  0  0  0  0  0  0  0
    2.2698   -2.8050    5.6913 H   0  0  0  0  0  0  0  0  0  0  0  0
    2.9861   -1.3399    3.9737 H   0  0  0  0  0  0  0  0  0  0  0  0
    5.0133   -5.7533   -1.4217 H   0  0  0  0  0  0  0  0  0  0  0  0
    6.2960   -3.1087   -2.8247 H   0  0  0  0  0  0  0  0  0  0  0  0
    5.0683   -4.3032   -3.2129 H   0  0  0  0  0  0  0  0  0  0  0  0
    5.1882   -0.5052   -2.3649 H   0  0  0  0  0  0  0  0  0  0  0  0
    3.4806   -0.3816   -2.6917 H   0  0  0  0  0  0  0  0  0  0  0  0
    3.9277   -0.4857   -0.2822 H   0  0  0  0  0  0  0  0  0  0  0  0
    2.9424   -1.8227   -0.8022 H   0  0  0  0  0  0  0  0  0  0  0  0
    7.0185   -2.6049    0.3807 H   0  0  0  0  0  0  0  0  0  0  0  0
    6.3950   -0.9556    0.4715 H   0  0  0  0  0  0  0  0  0  0  0  0
    6.7680   -1.6764   -1.0855 H   0  0  0  0  0  0  0  0  0  0  0  0
    5.3493   -6.1243    3.4940 H   0  0  0  0  0  0  0  0  0  0  0  0
    4.7598   -5.2923    4.9114 H   0  0  0  0  0  0  0  0  0  0  0  0
    5.8371   -4.4697    3.8123 H   0  0  0  0  0  0  0  0  0  0  0  0
    0.9921   -6.4019    4.1919 H   0  0  0  0  0  0  0  0  0  0  0  0
    3.5817   -6.8451    5.1964 H   0  0  0  0  0  0  0  0  0  0  0  0
  1  2  1  0
  1 27  1  0
  1 28  1  0
  1 29  1  0
  2 25  1  0
  2  3  2  0
  3  4  1  0
  3 30  1  0
  4 21  1  0
  4  5  2  0
  5  6  1  0
  5 31  1  0
  6  7  2  0
  6  8  1  0
  8 19  1  0
  8  9  2  0
  9 10  1  0
  9 21  1  0
 10 11  2  0
 10 12  1  0
 12 13  2  0
 12 32  1  0
 13 19  1  0
 13 14  1  0
 14 15  1  0
 14 33  1  0
 14 34  1  0
 15 16  2  0
 15 17  1  0
 17 18  1  0
 17 35  1  0
 17 36  1  0
 18 19  1  0
 18 37  1  0
 18 38  1  0
 19 20  1  1
 20 39  1  0
 20 40  1  0
 20 41  1  0
 21 22  1  1
 21 23  1  0
 22 42  1  0
 22 43  1  0
 22 44  1  0
 23 24  2  0
 23 25  1  0
 25 26  1  0
 25 45  1  6
 26 46  1  0
M  END
>  <i_m_ct_stereo_status>  (49) 
1

>  <s_m_source_file>  (49) 
/var/tmp/pbs.5076255.sched01/tmpcyubysk0/0_f5co88n.sdf

>  <i_m_source_file_index>  (49) 
20

>  <i_lp_mmshare_version>  (49) 
48012

>  <i_f3d_flags>  (49) 
0

>  <s_epik_input>  (49) 
Tz1DMVtDQEBIXShbT0hdKUMoW0NIM10pPVtDSF1DKD1bQ0hdQzI9TylbQ0BdMShbQ0gzXSlDKD1DMltDQEBdMzRbQ0gzXSlDKD1PKVtDSF09QzNbQ0gyXUMoPU8pW0NIMl1bQ0gyXTQ=

>  <s_epik_cmdline>  (49) 
J2VwaWtfcHl0aG9uJywgJy1waHQnLCAnMi4wJywgJy1waCcsICc3LjAnLCAnLXRuJywgJzgnLCAnLW1hJywgJzIwMCcsICctaW1hZScsICc8aW5maWxlLm1hZT4nLCAnLW9tYWUnLCAnPG91dGZpbGUubWFlPic=

>  <r_lp_tautomer_probability>  (49) 
0.99995

>  <r_epik_Ionization_Penalty>  (49) 
2.40283

>  <r_epik_Ionization_Penalty_Charging>  (49) 
0

>  <r_epik_Ionization_Penalty_Neutral>  (49) 
2.40283

>  <r_epik_State_Penalty>  (49) 
2.56087

>  <r_epik_Charging_Adjusted_Penalty>  (49) 
2.56087

>  <i_epik_Tot_Q>  (49) 
0

>  <i_epik_Tot_abs_Q>  (49) 
0

>  <s_lp_Force_Field>  (49) 
OPLS3e

>  <r_lp_Energy>  (49) 
57.1934

>  <b_lp_Chiralities_Consistent>  (49) 
1

>  <s_lp_Variant>  (49) 
14:0-2

>  <s_i_glide_gridfile>  (49) 
pfpi4k_grid

>  <i_i_glide_lignum>  (49) 
20

>  <i_i_glide_rotatable_bonds>  (49) 
1

>  <r_i_docking_score>  (49) 
-3.7683

>  <r_i_glide_ligand_efficiency>  (49) 
-0.144934

>  <r_i_glide_ligand_efficiency_sa>  (49) 
-0.429368

>  <r_i_glide_ligand_efficiency_ln>  (49) 
-0.884972

>  <r_i_glide_gscore>  (49) 
-3.7683

>  <r_i_glide_lipo>  (49) 
-0.277783

>  <r_i_glide_hbond>  (49) 
-0.32

>  <r_i_glide_metal>  (49) 
-0

>  <r_i_glide_rewards>  (49) 
-1.26522

>  <r_i_glide_evdw>  (49) 
-27.4682

>  <r_i_glide_ecoul>  (49) 
-3.52617

>  <r_i_glide_erotb>  (49) 
0

>  <r_i_glide_esite>  (49) 
-0.00295688

>  <r_i_glide_emodel>  (49) 
-37.2645

>  <r_i_glide_energy>  (49) 
-30.9944

>  <r_i_glide_einternal>  (49) 
1.26451

>  <r_i_glide_intrahb_reward>  (49) 
-0

>  <i_i_glide_confnum>  (49) 
1

>  <i_i_glide_posenum>  (49) 
12

>  <r_i_glide_eff_state_penalty>  (49) 
0

>  <ligand_id>  (49) 
14

>  <original_smiles>  (49) 
CC1=CC2=CC(=O)C3=C(C(=O)C=C4CC(=O)CCC43C)C2(C)C(=O)C1O

>  <smiles>  (49) 
[H]OC1([H])C(=O)C2(C([H])([H])[H])C(=C([H])C(=O)C3=C2C(=O)C([H])=C2C([H])([H])C(=O)C([H])([H])C([H])([H])C32C([H])([H])[H])C([H])=C1C([H])([H])[H]

$$$$
14:1:1
     RDKit          3D

 46 49  0  0  1  0  0  0  0  0999 V2000
   -1.7411   -7.5065    4.3468 C   0  0  0  0  0  0  0  0  0  0  0  0
   -0.4945   -6.9458    3.7321 C   0  0  0  0  0  0  0  0  0  0  0  0
    0.1357   -5.8925    4.2910 C   0  0  0  0  0  0  0  0  0  0  0  0
    1.3128   -5.2955    3.6868 C   0  0  0  0  0  0  0  0  0  0  0  0
    1.6406   -4.0488    4.0806 C   0  0  0  0  0  0  0  0  0  0  0  0
    2.7799   -3.3338    3.5149 C   0  0  0  0  0  0  0  0  0  0  0  0
    3.1886   -2.3396    4.1138 O   0  0  0  0  0  0  0  0  0  0  0  0
    3.4231   -3.8625    2.2780 C   0  0  0  0  0  0  0  0  0  0  0  0
    3.1351   -5.1421    1.8927 C   0  0  0  0  0  0  0  0  0  0  0  0
    3.8798   -5.7058    0.7250 C   0  0  0  0  0  0  0  0  0  0  0  0
    3.9472   -6.9121    0.5106 O   0  0  0  0  0  0  0  0  0  0  0  0
    4.5976   -4.8022   -0.1639 C   0  0  0  0  0  0  0  0  0  0  0  0
    4.8625   -3.5335    0.1901 C   0  0  0  0  0  0  0  0  0  0  0  0
    5.6851   -2.6513   -0.7493 C   0  0  0  0  0  0  0  0  0  0  0  0
    5.0716   -1.2732   -0.8804 C   0  0  0  0  0  0  0  0  0  0  0  0
    4.9887   -0.7132   -1.9688 O   0  0  0  0  0  0  0  0  0  0  0  0
    4.6523   -0.5917    0.4064 C   0  0  0  0  0  0  0  0  0  0  0  0
    3.7907   -1.5216    1.2649 C   0  0  0  0  0  0  0  0  0  0  0  0
    4.4304   -2.9225    1.5431 C   0  0  1  0  0  0  0  0  0  0  0  0
    5.7181   -2.7668    2.3852 C   0  0  0  0  0  0  0  0  0  0  0  0
    2.1300   -6.0846    2.6467 C   0  0  1  0  0  0  0  0  0  0  0  0
    2.9193   -7.1710    3.4259 C   0  0  0  0  0  0  0  0  0  0  0  0
    1.0506   -6.7171    1.7125 C   0  0  0  0  0  0  0  0  0  0  0  0
    0.9498   -6.4272    0.5153 O   0  0  0  0  0  0  0  0  0  0  0  0
   -0.0490   -7.5658    2.4049 C   0  0  1  0  0  0  0  0  0  0  0  0
    0.3276   -8.9204    2.5742 O   0  0  0  0  0  0  0  0  0  0  0  0
   -2.5637   -7.5222    3.6148 H   0  0  0  0  0  0  0  0  0  0  0  0
   -2.0218   -6.9098    5.2249 H   0  0  0  0  0  0  0  0  0  0  0  0
   -1.5701   -8.5389    4.6697 H   0  0  0  0  0  0  0  0  0  0  0  0
   -0.2639   -5.4628    5.2010 H   0  0  0  0  0  0  0  0  0  0  0  0
    1.0582   -3.5350    4.8196 H   0  0  0  0  0  0  0  0  0  0  0  0
    4.9293   -5.1917   -1.1125 H   0  0  0  0  0  0  0  0  0  0  0  0
    6.7105   -2.5414   -0.3869 H   0  0  0  0  0  0  0  0  0  0  0  0
    5.7334   -3.1213   -1.7328 H   0  0  0  0  0  0  0  0  0  0  0  0
    5.5568   -0.2998    0.9381 H   0  0  0  0  0  0  0  0  0  0  0  0
    4.1185    0.3277    0.1884 H   0  0  0  0  0  0  0  0  0  0  0  0
    3.5704   -0.9753    2.1858 H   0  0  0  0  0  0  0  0  0  0  0  0
    2.8310   -1.6548    0.7641 H   0  0  0  0  0  0  0  0  0  0  0  0
    6.1320   -3.7469    2.6068 H   0  0  0  0  0  0  0  0  0  0  0  0
    5.5401   -2.2607    3.3335 H   0  0  0  0  0  0  0  0  0  0  0  0
    6.4915   -2.1985    1.8699 H   0  0  0  0  0  0  0  0  0  0  0  0
    3.3744   -7.9021    2.7624 H   0  0  0  0  0  0  0  0  0  0  0  0
    2.2842   -7.7334    4.1091 H   0  0  0  0  0  0  0  0  0  0  0  0
    3.7186   -6.7335    4.0281 H   0  0  0  0  0  0  0  0  0  0  0  0
   -0.9203   -7.5583    1.7559 H   0  0  0  0  0  0  0  0  0  0  0  0
    0.2538   -9.3762    1.7393 H   0  0  0  0  0  0  0  0  0  0  0  0
  1  2  1  0
  1 27  1  0
  1 28  1  0
  1 29  1  0
  2 25  1  0
  2  3  2  0
  3  4  1  0
  3 30  1  0
  4 21  1  0
  4  5  2  0
  5  6  1  0
  5 31  1  0
  6  7  2  0
  6  8  1  0
  8 19  1  0
  8  9  2  0
  9 10  1  0
  9 21  1  0
 10 11  2  0
 10 12  1  0
 12 13  2  0
 12 32  1  0
 13 19  1  0
 13 14  1  0
 14 15  1  0
 14 33  1  0
 14 34  1  0
 15 16  2  0
 15 17  1  0
 17 18  1  0
 17 35  1  0
 17 36  1  0
 18 19  1  0
 18 37  1  0
 18 38  1  0
 19 20  1  1
 20 39  1  0
 20 40  1  0
 20 41  1  0
 21 22  1  1
 21 23  1  0
 22 42  1  0
 22 43  1  0
 22 44  1  0
 23 24  2  0
 23 25  1  0
 25 26  1  0
 25 45  1  6
 26 46  1  0
M  END
>  <i_m_ct_stereo_status>  (50) 
1

>  <s_m_source_file>  (50) 
/var/tmp/pbs.5076255.sched01/tmpcyubysk0/0_f5co88n.sdf

>  <i_m_source_file_index>  (50) 
20

>  <i_lp_mmshare_version>  (50) 
48012

>  <i_f3d_flags>  (50) 
0

>  <s_epik_input>  (50) 
Tz1DMVtDQEBIXShbT0hdKUMoW0NIM10pPVtDSF1DKD1bQ0hdQzI9TylbQ0BdMShbQ0gzXSlDKD1DMltDQEBdMzRbQ0gzXSlDKD1PKVtDSF09QzNbQ0gyXUMoPU8pW0NIMl1bQ0gyXTQ=

>  <s_epik_cmdline>  (50) 
J2VwaWtfcHl0aG9uJywgJy1waHQnLCAnMi4wJywgJy1waCcsICc3LjAnLCAnLXRuJywgJzgnLCAnLW1hJywgJzIwMCcsICctaW1hZScsICc8aW5maWxlLm1hZT4nLCAnLW9tYWUnLCAnPG91dGZpbGUubWFlPic=

>  <r_lp_tautomer_probability>  (50) 
0.99995

>  <r_epik_Ionization_Penalty>  (50) 
2.40283

>  <r_epik_Ionization_Penalty_Charging>  (50) 
0

>  <r_epik_Ionization_Penalty_Neutral>  (50) 
2.40283

>  <r_epik_State_Penalty>  (50) 
2.56087

>  <r_epik_Charging_Adjusted_Penalty>  (50) 
2.56087

>  <i_epik_Tot_Q>  (50) 
0

>  <i_epik_Tot_abs_Q>  (50) 
0

>  <s_lp_Force_Field>  (50) 
OPLS3e

>  <r_lp_Energy>  (50) 
57.1934

>  <b_lp_Chiralities_Consistent>  (50) 
1

>  <s_lp_Variant>  (50) 
14:0-2

>  <s_i_glide_gridfile>  (50) 
pfpi4k_grid

>  <i_i_glide_lignum>  (50) 
20

>  <i_i_glide_rotatable_bonds>  (50) 
1

>  <r_i_docking_score>  (50) 
-3.66291

>  <r_i_glide_ligand_efficiency>  (50) 
-0.140881

>  <r_i_glide_ligand_efficiency_sa>  (50) 
-0.41736

>  <r_i_glide_ligand_efficiency_ln>  (50) 
-0.860223

>  <r_i_glide_gscore>  (50) 
-3.66291

>  <r_i_glide_lipo>  (50) 
-0.20508

>  <r_i_glide_hbond>  (50) 
-0.193938

>  <r_i_glide_metal>  (50) 
-0

>  <r_i_glide_rewards>  (50) 
-1.06343

>  <r_i_glide_evdw>  (50) 
-27.3958

>  <r_i_glide_ecoul>  (50) 
-4.85439

>  <r_i_glide_erotb>  (50) 
0

>  <r_i_glide_esite>  (50) 
-0.102512

>  <r_i_glide_emodel>  (50) 
-38.145

>  <r_i_glide_energy>  (50) 
-32.2502

>  <r_i_glide_einternal>  (50) 
1.72029

>  <r_i_glide_intrahb_reward>  (50) 
-0

>  <i_i_glide_confnum>  (50) 
2

>  <i_i_glide_posenum>  (50) 
32

>  <r_i_glide_eff_state_penalty>  (50) 
0

>  <ligand_id>  (50) 
14

>  <original_smiles>  (50) 
CC1=CC2=CC(=O)C3=C(C(=O)C=C4CC(=O)CCC43C)C2(C)C(=O)C1O

>  <smiles>  (50) 
[H]OC1([H])C(=O)C2(C([H])([H])[H])C(=C([H])C(=O)C3=C2C(=O)C([H])=C2C([H])([H])C(=O)C([H])([H])C([H])([H])C32C([H])([H])[H])C([H])=C1C([H])([H])[H]

$$$$
14:1:2
     RDKit          3D

 46 49  0  0  1  0  0  0  0  0999 V2000
   -1.7461   -7.5068    4.3689 C   0  0  0  0  0  0  0  0  0  0  0  0
   -0.5006   -6.9532    3.7481 C   0  0  0  0  0  0  0  0  0  0  0  0
    0.1239   -5.8737    4.2658 C   0  0  0  0  0  0  0  0  0  0  0  0
    1.2981   -5.3116    3.6471 C   0  0  0  0  0  0  0  0  0  0  0  0
    1.6048   -4.0496    3.9776 C   0  0  0  0  0  0  0  0  0  0  0  0
    2.7465   -3.3621    3.3653 C   0  0  0  0  0  0  0  0  0  0  0  0
    3.1573   -2.3463    3.9216 O   0  0  0  0  0  0  0  0  0  0  0  0
    3.4193   -3.9265    2.1717 C   0  0  0  0  0  0  0  0  0  0  0  0
    3.1277   -5.2321    1.8589 C   0  0  0  0  0  0  0  0  0  0  0  0
    3.8766   -5.8135    0.7142 C   0  0  0  0  0  0  0  0  0  0  0  0
    3.9686   -7.0337    0.5834 O   0  0  0  0  0  0  0  0  0  0  0  0
    4.6106   -4.9650   -0.2236 C   0  0  0  0  0  0  0  0  0  0  0  0
    4.8895   -3.6903    0.0842 C   0  0  0  0  0  0  0  0  0  0  0  0
    5.6974   -2.8552   -0.8914 C   0  0  0  0  0  0  0  0  0  0  0  0
    5.0506   -1.4959   -1.0927 C   0  0  0  0  0  0  0  0  0  0  0  0
    4.9816   -0.9784   -2.1847 O   0  0  0  0  0  0  0  0  0  0  0  0
    4.6438   -0.7488    0.1739 C   0  0  0  0  0  0  0  0  0  0  0  0
    3.7787   -1.6374    1.0617 C   0  0  0  0  0  0  0  0  0  0  0  0
    4.4244   -3.0191    1.4006 C   0  0  1  0  0  0  0  0  0  0  0  0
    5.7024   -2.8154    2.2443 C   0  0  0  0  0  0  0  0  0  0  0  0
    2.1324   -6.1432    2.6487 C   0  0  1  0  0  0  0  0  0  0  0  0
    2.9191   -7.1885    3.4796 C   0  0  0  0  0  0  0  0  0  0  0  0
    1.0428   -6.8032    1.7780 C   0  0  0  0  0  0  0  0  0  0  0  0
    0.9341   -6.5578    0.5511 O   0  0  0  0  0  0  0  0  0  0  0  0
   -0.0500   -7.6552    2.4732 C   0  0  1  0  0  0  0  0  0  0  0  0
    0.3527   -8.9758    2.7798 O   0  0  0  0  0  0  0  0  0  0  0  0
   -2.5736   -7.5392    3.6572 H   0  0  0  0  0  0  0  0  0  0  0  0
   -2.0327   -6.8522    5.2004 H   0  0  0  0  0  0  0  0  0  0  0  0
   -1.5836   -8.5188    4.7568 H   0  0  0  0  0  0  0  0  0  0  0  0
   -0.2858   -5.4049    5.1548 H   0  0  0  0  0  0  0  0  0  0  0  0
    1.0236   -3.4900    4.6951 H   0  0  0  0  0  0  0  0  0  0  0  0
    4.9554   -5.4138   -1.1479 H   0  0  0  0  0  0  0  0  0  0  0  0
    6.7129   -2.7155   -0.5248 H   0  0  0  0  0  0  0  0  0  0  0  0
    5.7394   -3.3684   -1.8586 H   0  0  0  0  0  0  0  0  0  0  0  0
    5.5442   -0.4178    0.6839 H   0  0  0  0  0  0  0  0  0  0  0  0
    4.1143    0.1569   -0.0979 H   0  0  0  0  0  0  0  0  0  0  0  0
    3.5483   -1.0450    1.9501 H   0  0  0  0  0  0  0  0  0  0  0  0
    2.8278   -1.7944    0.5521 H   0  0  0  0  0  0  0  0  0  0  0  0
    6.1185   -3.7843    2.5161 H   0  0  0  0  0  0  0  0  0  0  0  0
    5.5159   -2.2739    3.1710 H   0  0  0  0  0  0  0  0  0  0  0  0
    6.4802   -2.2739    1.7079 H   0  0  0  0  0  0  0  0  0  0  0  0
    3.3753   -7.9446    2.8396 H   0  0  0  0  0  0  0  0  0  0  0  0
    2.2738   -7.7187    4.1772 H   0  0  0  0  0  0  0  0  0  0  0  0
    3.7106   -6.7107    4.0578 H   0  0  0  0  0  0  0  0  0  0  0  0
   -0.9112   -7.6975    1.8069 H   0  0  0  0  0  0  0  0  0  0  0  0
   -0.3824   -9.4407    3.1787 H   0  0  0  0  0  0  0  0  0  0  0  0
  1  2  1  0
  1 27  1  0
  1 28  1  0
  1 29  1  0
  2 25  1  0
  2  3  2  0
  3  4  1  0
  3 30  1  0
  4 21  1  0
  4  5  2  0
  5  6  1  0
  5 31  1  0
  6  7  2  0
  6  8  1  0
  8 19  1  0
  8  9  2  0
  9 10  1  0
  9 21  1  0
 10 11  2  0
 10 12  1  0
 12 13  2  0
 12 32  1  0
 13 19  1  0
 13 14  1  0
 14 15  1  0
 14 33  1  0
 14 34  1  0
 15 16  2  0
 15 17  1  0
 17 18  1  0
 17 35  1  0
 17 36  1  0
 18 19  1  0
 18 37  1  0
 18 38  1  0
 19 20  1  1
 20 39  1  0
 20 40  1  0
 20 41  1  0
 21 22  1  1
 21 23  1  0
 22 42  1  0
 22 43  1  0
 22 44  1  0
 23 24  2  0
 23 25  1  0
 25 26  1  0
 25 45  1  6
 26 46  1  0
M  END
>  <i_m_ct_stereo_status>  (51) 
1

>  <s_m_source_file>  (51) 
/var/tmp/pbs.5076255.sched01/tmpcyubysk0/0_f5co88n.sdf

>  <i_m_source_file_index>  (51) 
20

>  <i_lp_mmshare_version>  (51) 
48012

>  <i_f3d_flags>  (51) 
0

>  <s_epik_input>  (51) 
Tz1DMVtDQEBIXShbT0hdKUMoW0NIM10pPVtDSF1DKD1bQ0hdQzI9TylbQ0BdMShbQ0gzXSlDKD1DMltDQEBdMzRbQ0gzXSlDKD1PKVtDSF09QzNbQ0gyXUMoPU8pW0NIMl1bQ0gyXTQ=

>  <s_epik_cmdline>  (51) 
J2VwaWtfcHl0aG9uJywgJy1waHQnLCAnMi4wJywgJy1waCcsICc3LjAnLCAnLXRuJywgJzgnLCAnLW1hJywgJzIwMCcsICctaW1hZScsICc8aW5maWxlLm1hZT4nLCAnLW9tYWUnLCAnPG91dGZpbGUubWFlPic=

>  <r_lp_tautomer_probability>  (51) 
0.99995

>  <r_epik_Ionization_Penalty>  (51) 
2.40283

>  <r_epik_Ionization_Penalty_Charging>  (51) 
0

>  <r_epik_Ionization_Penalty_Neutral>  (51) 
2.40283

>  <r_epik_State_Penalty>  (51) 
2.56087

>  <r_epik_Charging_Adjusted_Penalty>  (51) 
2.56087

>  <i_epik_Tot_Q>  (51) 
0

>  <i_epik_Tot_abs_Q>  (51) 
0

>  <s_lp_Force_Field>  (51) 
OPLS3e

>  <r_lp_Energy>  (51) 
57.1934

>  <b_lp_Chiralities_Consistent>  (51) 
1

>  <s_lp_Variant>  (51) 
14:0-2

>  <s_i_glide_gridfile>  (51) 
pfpi4k_grid

>  <i_i_glide_lignum>  (51) 
20

>  <i_i_glide_rotatable_bonds>  (51) 
1

>  <r_i_docking_score>  (51) 
-3.31029

>  <r_i_glide_ligand_efficiency>  (51) 
-0.127319

>  <r_i_glide_ligand_efficiency_sa>  (51) 
-0.377182

>  <r_i_glide_ligand_efficiency_ln>  (51) 
-0.777411

>  <r_i_glide_gscore>  (51) 
-3.31029

>  <r_i_glide_lipo>  (51) 
-0.149194

>  <r_i_glide_hbond>  (51) 
-0.144058

>  <r_i_glide_metal>  (51) 
-0

>  <r_i_glide_rewards>  (51) 
-1.07396

>  <r_i_glide_evdw>  (51) 
-28.2248

>  <r_i_glide_ecoul>  (51) 
-2.89279

>  <r_i_glide_erotb>  (51) 
0

>  <r_i_glide_esite>  (51) 
-0.0979208

>  <r_i_glide_emodel>  (51) 
-37.1765

>  <r_i_glide_energy>  (51) 
-31.1176

>  <r_i_glide_einternal>  (51) 
0.0256651

>  <r_i_glide_intrahb_reward>  (51) 
-0

>  <i_i_glide_confnum>  (51) 
2

>  <i_i_glide_posenum>  (51) 
28

>  <r_i_glide_eff_state_penalty>  (51) 
0

>  <ligand_id>  (51) 
14

>  <original_smiles>  (51) 
CC1=CC2=CC(=O)C3=C(C(=O)C=C4CC(=O)CCC43C)C2(C)C(=O)C1O

>  <smiles>  (51) 
[H]OC1([H])C(=O)C2(C([H])([H])[H])C(=C([H])C(=O)C3=C2C(=O)C([H])=C2C([H])([H])C(=O)C([H])([H])C([H])([H])C32C([H])([H])[H])C([H])=C1C([H])([H])[H]

$$$$
15:0:0
     RDKit          3D

 40 43  0  0  1  0  0  0  0  0999 V2000
    4.1059   -0.6863   -2.7655 C   0  0  0  0  0  0  0  0  0  0  0  0
    3.9370   -1.5125   -1.4788 C   0  0  2  0  0  0  0  0  0  0  0  0
    5.1103   -1.2737   -0.5363 C   0  0  0  0  0  0  0  0  0  0  0  0
    6.2669   -1.8991   -0.7815 C   0  0  0  0  0  0  0  0  0  0  0  0
    6.2752   -3.0516   -1.7426 C   0  0  0  0  0  0  0  0  0  0  0  0
    4.9978   -3.8863   -1.4300 C   0  0  2  0  0  0  0  0  0  0  0  0
    3.7302   -3.0339   -1.7473 C   0  0  1  0  0  0  0  0  0  0  0  0
    2.5121   -3.5514   -0.9709 C   0  0  0  0  0  0  0  0  0  0  0  0
    2.6962   -3.3483    0.5297 C   0  0  0  0  0  0  0  0  0  0  0  0
    3.9658   -4.0208    1.0771 C   0  0  2  0  0  0  0  0  0  0  0  0
    3.5005   -5.2431    1.9261 C   0  0  0  0  0  0  0  0  0  0  0  0
    4.8076   -3.1005    2.0277 C   0  0  2  0  0  0  0  0  0  0  0  0
    4.7938   -1.5559    1.8853 C   0  0  0  0  0  0  0  0  0  0  0  0
    4.8972   -0.7676    0.7917 C   0  0  0  0  0  0  0  0  0  0  0  0
    6.2161   -3.6887    1.9800 C   0  0  0  0  0  0  0  0  0  0  0  0
    6.2549   -4.5994    0.7676 C   0  0  0  0  0  0  0  0  0  0  0  0
    7.2286   -5.2722    0.4822 O   0  0  0  0  0  0  0  0  0  0  0  0
    4.9409   -4.5809   -0.0105 C   0  0  2  0  0  0  0  0  0  0  0  0
    4.2218    0.3750   -2.5386 H   0  0  0  0  0  0  0  0  0  0  0  0
    3.2299   -0.7790   -3.4103 H   0  0  0  0  0  0  0  0  0  0  0  0
    4.9826   -0.9867   -3.3379 H   0  0  0  0  0  0  0  0  0  0  0  0
    3.0531   -1.0910   -1.0038 H   0  0  0  0  0  0  0  0  0  0  0  0
    7.0986   -1.8553   -0.0919 H   0  0  0  0  0  0  0  0  0  0  0  0
    6.2589   -2.7062   -2.7766 H   0  0  0  0  0  0  0  0  0  0  0  0
    7.1939   -3.6282   -1.6303 H   0  0  0  0  0  0  0  0  0  0  0  0
    4.9971   -4.7156   -2.1374 H   0  0  0  0  0  0  0  0  0  0  0  0
    3.5156   -3.1481   -2.8130 H   0  0  0  0  0  0  0  0  0  0  0  0
    1.6082   -3.0587   -1.3270 H   0  0  0  0  0  0  0  0  0  0  0  0
    2.3512   -4.6120   -1.1405 H   0  0  0  0  0  0  0  0  0  0  0  0
    2.6227   -2.2964    0.7917 H   0  0  0  0  0  0  0  0  0  0  0  0
    1.8560   -3.7849    1.0467 H   0  0  0  0  0  0  0  0  0  0  0  0
    4.3274   -5.7842    2.3870 H   0  0  0  0  0  0  0  0  0  0  0  0
    2.9516   -5.9599    1.3200 H   0  0  0  0  0  0  0  0  0  0  0  0
    2.8443   -4.9436    2.7406 H   0  0  0  0  0  0  0  0  0  0  0  0
    4.4356   -3.2410    3.0457 H   0  0  0  0  0  0  0  0  0  0  0  0
    4.6524   -1.0459    2.8281 H   0  0  0  0  0  0  0  0  0  0  0  0
    4.8333    0.3018    0.9209 H   0  0  0  0  0  0  0  0  0  0  0  0
    6.9765   -2.9164    1.8950 H   0  0  0  0  0  0  0  0  0  0  0  0
    6.4111   -4.2922    2.8674 H   0  0  0  0  0  0  0  0  0  0  0  0
    4.6867   -5.6265   -0.1972 H   0  0  0  0  0  0  0  0  0  0  0  0
  1  2  1  0
  1 19  1  0
  1 20  1  0
  1 21  1  0
  2  7  1  0
  2  3  1  0
  2 22  1  1
  3 14  1  0
  3  4  2  0
  4  5  1  0
  4 23  1  0
  5  6  1  0
  5 24  1  0
  5 25  1  0
  6 18  1  0
  6  7  1  0
  6 26  1  6
  7  8  1  0
  7 27  1  6
  8  9  1  0
  8 28  1  0
  8 29  1  0
  9 10  1  0
  9 30  1  0
  9 31  1  0
 10 18  1  0
 10 11  1  1
 10 12  1  0
 11 32  1  0
 11 33  1  0
 11 34  1  0
 12 13  1  0
 12 15  1  0
 12 35  1  1
 13 14  2  3
 13 36  1  0
 14 37  1  0
 15 16  1  0
 15 38  1  0
 15 39  1  0
 16 17  2  0
 16 18  1  0
 18 40  1  6
M  END
>  <i_m_ct_stereo_status>  (52) 
1

>  <s_m_source_file>  (52) 
/var/tmp/pbs.5076255.sched01/tmpcyubysk0/0_f5co88n.sdf

>  <i_m_source_file_index>  (52) 
21

>  <i_lp_mmshare_version>  (52) 
48012

>  <i_f3d_flags>  (52) 
0

>  <s_epik_input>  (52) 
W0NIM11bQ0BIXTFbQ0BIXShbQ0gyXVtDSDJdMilbQ0BIXShbQ0BIXTNDKD1PKVtDSDJdNClbQ0gyXVtDSF09QzEvW0NIXT1bQ0hdXFtDQEhdNFtDQEBdMjNbQ0gzXQ==

>  <s_epik_cmdline>  (52) 
J2VwaWtfcHl0aG9uJywgJy1waHQnLCAnMi4wJywgJy1waCcsICc3LjAnLCAnLXRuJywgJzgnLCAnLW1hJywgJzIwMCcsICctaW1hZScsICc8aW5maWxlLm1hZT4nLCAnLW9tYWUnLCAnPG91dGZpbGUubWFlPic=

>  <r_lp_tautomer_probability>  (52) 
1

>  <r_epik_Ionization_Penalty>  (52) 
9.48535e-14

>  <r_epik_Ionization_Penalty_Charging>  (52) 
0

>  <r_epik_Ionization_Penalty_Neutral>  (52) 
9.48535e-14

>  <r_epik_State_Penalty>  (52) 
-0

>  <r_epik_Charging_Adjusted_Penalty>  (52) 
0

>  <i_epik_Tot_Q>  (52) 
0

>  <i_epik_Tot_abs_Q>  (52) 
0

>  <s_lp_Force_Field>  (52) 
OPLS3e

>  <r_lp_Energy>  (52) 
57.3169

>  <b_lp_Chiralities_Consistent>  (52) 
1

>  <s_lp_Variant>  (52) 
15:0-1

>  <s_i_glide_gridfile>  (52) 
pfpi4k_grid

>  <i_i_glide_lignum>  (52) 
21

>  <i_i_glide_rotatable_bonds>  (52) 
0

>  <r_i_docking_score>  (52) 
-3.60888

>  <r_i_glide_ligand_efficiency>  (52) 
-0.200493

>  <r_i_glide_ligand_efficiency_sa>  (52) 
-0.525441

>  <r_i_glide_ligand_efficiency_ln>  (52) 
-0.927644

>  <r_i_glide_gscore>  (52) 
-3.60888

>  <r_i_glide_lipo>  (52) 
-0.505112

>  <r_i_glide_hbond>  (52) 
0

>  <r_i_glide_metal>  (52) 
-0

>  <r_i_glide_rewards>  (52) 
-1.89624

>  <r_i_glide_evdw>  (52) 
-21.0002

>  <r_i_glide_ecoul>  (52) 
-1.05014

>  <r_i_glide_erotb>  (52) 
0

>  <r_i_glide_esite>  (52) 
0

>  <r_i_glide_emodel>  (52) 
-26.1937

>  <r_i_glide_energy>  (52) 
-22.0503

>  <r_i_glide_einternal>  (52) 
0

>  <r_i_glide_intrahb_reward>  (52) 
-0

>  <i_i_glide_confnum>  (52) 
2

>  <i_i_glide_posenum>  (52) 
35

>  <r_i_glide_eff_state_penalty>  (52) 
0

>  <ligand_id>  (52) 
15

>  <original_smiles>  (52) 
CC1C2=CCC3C1CCC1(C)C(C=C2)CC(=O)C31

>  <smiles>  (52) 
[H]C1=C([H])C2([H])C([H])([H])C(=O)C3([H])C4([H])C([H])([H])C([H])=C1C([H])(C([H])([H])[H])C4([H])C([H])([H])C([H])([H])C23C([H])([H])[H]

$$$$
15:0:1
     RDKit          3D

 40 43  0  0  1  0  0  0  0  0999 V2000
    4.2792   -0.2050   -2.7964 C   0  0  0  0  0  0  0  0  0  0  0  0
    3.9186   -1.2035   -1.7200 C   0  0  2  0  0  0  0  0  0  0  0  0
    4.8446   -1.1311   -0.4973 C   0  0  0  0  0  0  0  0  0  0  0  0
    6.0510   -1.7042   -0.5440 C   0  0  0  0  0  0  0  0  0  0  0  0
    6.3544   -2.6921   -1.6466 C   0  0  0  0  0  0  0  0  0  0  0  0
    5.0869   -3.5491   -1.8388 C   0  0  2  0  0  0  0  0  0  0  0  0
    3.9102   -2.6299   -2.3401 C   0  0  1  0  0  0  0  0  0  0  0  0
    2.5593   -3.2194   -2.0196 C   0  0  0  0  0  0  0  0  0  0  0  0
    2.3715   -3.3761   -0.5185 C   0  0  0  0  0  0  0  0  0  0  0  0
    3.4762   -4.1142    0.2468 C   0  0  2  0  0  0  0  0  0  0  0  0
    2.8362   -5.4521    0.7011 C   0  0  0  0  0  0  0  0  0  0  0  0
    3.9943   -3.3730    1.5387 C   0  0  2  0  0  0  0  0  0  0  0  0
    3.9448   -1.8289    1.6778 C   0  0  0  0  0  0  0  0  0  0  0  0
    4.2877   -0.8537    0.8094 C   0  0  0  0  0  0  0  0  0  0  0  0
    5.3968   -3.9332    1.7880 C   0  0  0  0  0  0  0  0  0  0  0  0
    5.8036   -4.6486    0.4935 C   0  0  0  0  0  0  0  0  0  0  0  0
    6.8381   -5.2462    0.3833 O   0  0  0  0  0  0  0  0  0  0  0  0
    4.7166   -4.4756   -0.6084 C   0  0  2  0  0  0  0  0  0  0  0  0
    4.1687    0.7918   -2.3964 H   0  0  0  0  0  0  0  0  0  0  0  0
    3.6517   -0.2779   -3.6983 H   0  0  0  0  0  0  0  0  0  0  0  0
    5.3208   -0.4201   -3.0305 H   0  0  0  0  0  0  0  0  0  0  0  0
    2.9195   -0.8920   -1.4000 H   0  0  0  0  0  0  0  0  0  0  0  0
    6.6683   -1.7600    0.3536 H   0  0  0  0  0  0  0  0  0  0  0  0
    6.5615   -2.2127   -2.5897 H   0  0  0  0  0  0  0  0  0  0  0  0
    7.2272   -3.2886   -1.3803 H   0  0  0  0  0  0  0  0  0  0  0  0
    5.2720   -4.2233   -2.6746 H   0  0  0  0  0  0  0  0  0  0  0  0
    3.9941   -2.5196   -3.4365 H   0  0  0  0  0  0  0  0  0  0  0  0
    1.7697   -2.6121   -2.4314 H   0  0  0  0  0  0  0  0  0  0  0  0
    2.4388   -4.2007   -2.5237 H   0  0  0  0  0  0  0  0  0  0  0  0
    2.1991   -2.3994   -0.0459 H   0  0  0  0  0  0  0  0  0  0  0  0
    1.4591   -3.9447   -0.4160 H   0  0  0  0  0  0  0  0  0  0  0  0
    3.5219   -6.0965    1.2518 H   0  0  0  0  0  0  0  0  0  0  0  0
    2.4743   -6.0244   -0.1570 H   0  0  0  0  0  0  0  0  0  0  0  0
    1.9805   -5.2737    1.3450 H   0  0  0  0  0  0  0  0  0  0  0  0
    3.3584   -3.7037    2.3575 H   0  0  0  0  0  0  0  0  0  0  0  0
    3.5234   -1.5075    2.6263 H   0  0  0  0  0  0  0  0  0  0  0  0
    4.1301    0.1771    1.1037 H   0  0  0  0  0  0  0  0  0  0  0  0
    6.1193   -3.1554    2.0491 H   0  0  0  0  0  0  0  0  0  0  0  0
    5.3834   -4.6889    2.5718 H   0  0  0  0  0  0  0  0  0  0  0  0
    4.5617   -5.4650   -1.0534 H   0  0  0  0  0  0  0  0  0  0  0  0
  1  2  1  0
  1 19  1  0
  1 20  1  0
  1 21  1  0
  2  7  1  0
  2  3  1  0
  2 22  1  1
  3 14  1  0
  3  4  2  0
  4  5  1  0
  4 23  1  0
  5  6  1  0
  5 24  1  0
  5 25  1  0
  6 18  1  0
  6  7  1  0
  6 26  1  6
  7  8  1  0
  7 27  1  6
  8  9  1  0
  8 28  1  0
  8 29  1  0
  9 10  1  0
  9 30  1  0
  9 31  1  0
 10 18  1  0
 10 11  1  1
 10 12  1  0
 11 32  1  0
 11 33  1  0
 11 34  1  0
 12 13  1  0
 12 15  1  0
 12 35  1  1
 13 14  2  3
 13 36  1  0
 14 37  1  0
 15 16  1  0
 15 38  1  0
 15 39  1  0
 16 17  2  0
 16 18  1  0
 18 40  1  6
M  END
>  <i_m_ct_stereo_status>  (53) 
1

>  <s_m_source_file>  (53) 
/var/tmp/pbs.5076255.sched01/tmpcyubysk0/0_f5co88n.sdf

>  <i_m_source_file_index>  (53) 
21

>  <i_lp_mmshare_version>  (53) 
48012

>  <i_f3d_flags>  (53) 
0

>  <s_epik_input>  (53) 
W0NIM11bQ0BIXTFbQ0BIXShbQ0gyXVtDSDJdMilbQ0BIXShbQ0BIXTNDKD1PKVtDSDJdNClbQ0gyXVtDSF09QzEvW0NIXT1bQ0hdXFtDQEhdNFtDQEBdMjNbQ0gzXQ==

>  <s_epik_cmdline>  (53) 
J2VwaWtfcHl0aG9uJywgJy1waHQnLCAnMi4wJywgJy1waCcsICc3LjAnLCAnLXRuJywgJzgnLCAnLW1hJywgJzIwMCcsICctaW1hZScsICc8aW5maWxlLm1hZT4nLCAnLW9tYWUnLCAnPG91dGZpbGUubWFlPic=

>  <r_lp_tautomer_probability>  (53) 
1

>  <r_epik_Ionization_Penalty>  (53) 
9.48535e-14

>  <r_epik_Ionization_Penalty_Charging>  (53) 
0

>  <r_epik_Ionization_Penalty_Neutral>  (53) 
9.48535e-14

>  <r_epik_State_Penalty>  (53) 
-0

>  <r_epik_Charging_Adjusted_Penalty>  (53) 
0

>  <i_epik_Tot_Q>  (53) 
0

>  <i_epik_Tot_abs_Q>  (53) 
0

>  <s_lp_Force_Field>  (53) 
OPLS3e

>  <r_lp_Energy>  (53) 
57.3169

>  <b_lp_Chiralities_Consistent>  (53) 
1

>  <s_lp_Variant>  (53) 
15:0-1

>  <s_i_glide_gridfile>  (53) 
pfpi4k_grid

>  <i_i_glide_lignum>  (53) 
21

>  <i_i_glide_rotatable_bonds>  (53) 
0

>  <r_i_docking_score>  (53) 
-3.11251

>  <r_i_glide_ligand_efficiency>  (53) 
-0.172917

>  <r_i_glide_ligand_efficiency_sa>  (53) 
-0.453172

>  <r_i_glide_ligand_efficiency_ln>  (53) 
-0.800056

>  <r_i_glide_gscore>  (53) 
-3.11251

>  <r_i_glide_lipo>  (53) 
-0.38975

>  <r_i_glide_hbond>  (53) 
0

>  <r_i_glide_metal>  (53) 
-0

>  <r_i_glide_rewards>  (53) 
-1.88521

>  <r_i_glide_evdw>  (53) 
-13.0763

>  <r_i_glide_ecoul>  (53) 
-1.2249

>  <r_i_glide_erotb>  (53) 
0

>  <r_i_glide_esite>  (53) 
0

>  <r_i_glide_emodel>  (53) 
-17.612

>  <r_i_glide_energy>  (53) 
-14.3012

>  <r_i_glide_einternal>  (53) 
0

>  <r_i_glide_intrahb_reward>  (53) 
-0

>  <i_i_glide_confnum>  (53) 
1

>  <i_i_glide_posenum>  (53) 
36

>  <r_i_glide_eff_state_penalty>  (53) 
0

>  <ligand_id>  (53) 
15

>  <original_smiles>  (53) 
CC1C2=CCC3C1CCC1(C)C(C=C2)CC(=O)C31

>  <smiles>  (53) 
[H]C1=C([H])C2([H])C([H])([H])C(=O)C3([H])C4([H])C([H])([H])C([H])=C1C([H])(C([H])([H])[H])C4([H])C([H])([H])C([H])([H])C23C([H])([H])[H]

$$$$
15:0:2
     RDKit          3D

 40 43  0  0  1  0  0  0  0  0999 V2000
    2.0930   -4.1249    4.8362 C   0  0  0  0  0  0  0  0  0  0  0  0
    2.5209   -3.6548    3.4302 C   0  0  2  0  0  0  0  0  0  0  0  0
    2.9880   -4.8395    2.5922 C   0  0  0  0  0  0  0  0  0  0  0  0
    4.2127   -5.3411    2.8035 C   0  0  0  0  0  0  0  0  0  0  0  0
    5.2101   -4.5115    3.5673 C   0  0  0  0  0  0  0  0  0  0  0  0
    5.0359   -3.0494    3.0661 C   0  0  2  0  0  0  0  0  0  0  0  0
    3.6131   -2.5357    3.4584 C   0  0  1  0  0  0  0  0  0  0  0  0
    3.2058   -1.3399    2.5844 C   0  0  0  0  0  0  0  0  0  0  0  0
    3.0134   -1.7723    1.1263 C   0  0  0  0  0  0  0  0  0  0  0  0
    4.2639   -2.4706    0.5245 C   0  0  2  0  0  0  0  0  0  0  0  0
    4.8510   -1.4703   -0.5157 C   0  0  0  0  0  0  0  0  0  0  0  0
    3.9856   -3.8235   -0.2311 C   0  0  2  0  0  0  0  0  0  0  0  0
    2.7819   -4.7190    0.1409 C   0  0  0  0  0  0  0  0  0  0  0  0
    2.3367   -5.1527    1.3445 C   0  0  0  0  0  0  0  0  0  0  0  0
    5.3194   -4.5936   -0.2232 C   0  0  0  0  0  0  0  0  0  0  0  0
    6.1737   -3.8998    0.8302 C   0  0  0  0  0  0  0  0  0  0  0  0
    7.3448   -4.1974    1.0583 O   0  0  0  0  0  0  0  0  0  0  0  0
    5.4076   -2.7820    1.5476 C   0  0  2  0  0  0  0  0  0  0  0  0
    1.3072   -4.8782    4.7680 H   0  0  0  0  0  0  0  0  0  0  0  0
    1.7031   -3.2957    5.4282 H   0  0  0  0  0  0  0  0  0  0  0  0
    2.9185   -4.5677    5.3936 H   0  0  0  0  0  0  0  0  0  0  0  0
    1.6055   -3.2652    2.9815 H   0  0  0  0  0  0  0  0  0  0  0  0
    4.6124   -6.1188    2.1669 H   0  0  0  0  0  0  0  0  0  0  0  0
    5.0262   -4.5855    4.6385 H   0  0  0  0  0  0  0  0  0  0  0  0
    6.2153   -4.8933    3.3995 H   0  0  0  0  0  0  0  0  0  0  0  0
    5.7414   -2.4475    3.6379 H   0  0  0  0  0  0  0  0  0  0  0  0
    3.6730   -2.1659    4.4848 H   0  0  0  0  0  0  0  0  0  0  0  0
    2.2846   -0.8909    2.9562 H   0  0  0  0  0  0  0  0  0  0  0  0
    3.9661   -0.5622    2.6413 H   0  0  0  0  0  0  0  0  0  0  0  0
    2.1317   -2.4006    1.0340 H   0  0  0  0  0  0  0  0  0  0  0  0
    2.7422   -0.8926    0.5406 H   0  0  0  0  0  0  0  0  0  0  0  0
    5.7424   -1.8546   -1.0148 H   0  0  0  0  0  0  0  0  0  0  0  0
    5.1315   -0.5267   -0.0436 H   0  0  0  0  0  0  0  0  0  0  0  0
    4.1291   -1.2355   -1.2983 H   0  0  0  0  0  0  0  0  0  0  0  0
    3.7696   -3.5759   -1.2707 H   0  0  0  0  0  0  0  0  0  0  0  0
    2.2144   -5.0365   -0.7195 H   0  0  0  0  0  0  0  0  0  0  0  0
    1.4570   -5.7762    1.3780 H   0  0  0  0  0  0  0  0  0  0  0  0
    5.1927   -5.6542    0.0007 H   0  0  0  0  0  0  0  0  0  0  0  0
    5.8125   -4.5134   -1.1909 H   0  0  0  0  0  0  0  0  0  0  0  0
    6.0778   -1.9229    1.5652 H   0  0  0  0  0  0  0  0  0  0  0  0
  1  2  1  0
  1 19  1  0
  1 20  1  0
  1 21  1  0
  2  7  1  0
  2  3  1  0
  2 22  1  6
  3 14  1  0
  3  4  2  0
  4  5  1  0
  4 23  1  0
  5  6  1  0
  5 24  1  0
  5 25  1  0
  6 18  1  0
  6  7  1  0
  6 26  1  1
  7  8  1  0
  7 27  1  1
  8  9  1  0
  8 28  1  0
  8 29  1  0
  9 10  1  0
  9 30  1  0
  9 31  1  0
 10 18  1  0
 10 11  1  6
 10 12  1  0
 11 32  1  0
 11 33  1  0
 11 34  1  0
 12 13  1  0
 12 15  1  0
 12 35  1  6
 13 14  2  3
 13 36  1  0
 14 37  1  0
 15 16  1  0
 15 38  1  0
 15 39  1  0
 16 17  2  0
 16 18  1  0
 18 40  1  1
M  END
>  <i_m_ct_stereo_status>  (54) 
1

>  <s_m_source_file>  (54) 
/var/tmp/pbs.5076255.sched01/tmpcyubysk0/0_f5co88n.sdf

>  <i_m_source_file_index>  (54) 
21

>  <i_lp_mmshare_version>  (54) 
48012

>  <i_f3d_flags>  (54) 
0

>  <s_epik_input>  (54) 
W0NIM11bQ0BIXTFbQ0BIXShbQ0gyXVtDSDJdMilbQ0BIXShbQ0BIXTNDKD1PKVtDSDJdNClbQ0gyXVtDSF09QzEvW0NIXT1bQ0hdXFtDQEhdNFtDQEBdMjNbQ0gzXQ==

>  <s_epik_cmdline>  (54) 
J2VwaWtfcHl0aG9uJywgJy1waHQnLCAnMi4wJywgJy1waCcsICc3LjAnLCAnLXRuJywgJzgnLCAnLW1hJywgJzIwMCcsICctaW1hZScsICc8aW5maWxlLm1hZT4nLCAnLW9tYWUnLCAnPG91dGZpbGUubWFlPic=

>  <r_lp_tautomer_probability>  (54) 
1

>  <r_epik_Ionization_Penalty>  (54) 
9.48535e-14

>  <r_epik_Ionization_Penalty_Charging>  (54) 
0

>  <r_epik_Ionization_Penalty_Neutral>  (54) 
9.48535e-14

>  <r_epik_State_Penalty>  (54) 
-0

>  <r_epik_Charging_Adjusted_Penalty>  (54) 
0

>  <i_epik_Tot_Q>  (54) 
0

>  <i_epik_Tot_abs_Q>  (54) 
0

>  <s_lp_Force_Field>  (54) 
OPLS3e

>  <r_lp_Energy>  (54) 
57.3169

>  <b_lp_Chiralities_Consistent>  (54) 
1

>  <s_lp_Variant>  (54) 
15:0-1

>  <s_i_glide_gridfile>  (54) 
pfpi4k_grid

>  <i_i_glide_lignum>  (54) 
21

>  <i_i_glide_rotatable_bonds>  (54) 
0

>  <r_i_docking_score>  (54) 
-2.92451

>  <r_i_glide_ligand_efficiency>  (54) 
-0.162473

>  <r_i_glide_ligand_efficiency_sa>  (54) 
-0.4258

>  <r_i_glide_ligand_efficiency_ln>  (54) 
-0.751731

>  <r_i_glide_gscore>  (54) 
-2.92451

>  <r_i_glide_lipo>  (54) 
-0.161071

>  <r_i_glide_hbond>  (54) 
0

>  <r_i_glide_metal>  (54) 
-0

>  <r_i_glide_rewards>  (54) 
-1.87713

>  <r_i_glide_evdw>  (54) 
-16.413

>  <r_i_glide_ecoul>  (54) 
-0.437714

>  <r_i_glide_erotb>  (54) 
0

>  <r_i_glide_esite>  (54) 
0

>  <r_i_glide_emodel>  (54) 
-20.2523

>  <r_i_glide_energy>  (54) 
-16.8507

>  <r_i_glide_einternal>  (54) 
0

>  <r_i_glide_intrahb_reward>  (54) 
-0

>  <i_i_glide_confnum>  (54) 
1

>  <i_i_glide_posenum>  (54) 
3

>  <r_i_glide_eff_state_penalty>  (54) 
0

>  <ligand_id>  (54) 
15

>  <original_smiles>  (54) 
CC1C2=CCC3C1CCC1(C)C(C=C2)CC(=O)C31

>  <smiles>  (54) 
[H]C1=C([H])C2([H])C([H])([H])C(=O)C3([H])C4([H])C([H])([H])C([H])=C1C([H])(C([H])([H])[H])C4([H])C([H])([H])C([H])([H])C23C([H])([H])[H]

$$$$
15:1:0
     RDKit          3D

 40 43  0  0  1  0  0  0  0  0999 V2000
    3.2796   -2.5964   -2.6199 C   0  0  0  0  0  0  0  0  0  0  0  0
    3.7122   -1.9906   -1.2520 C   0  0  2  0  0  0  0  0  0  0  0  0
    5.3712   -1.7216   -1.1890 C   0  0  0  0  0  0  0  0  0  0  0  0
    5.6375   -1.0479   -0.1939 C   0  0  0  0  0  0  0  0  0  0  0  0
    5.0896   -1.9089    0.8999 C   0  0  0  0  0  0  0  0  0  0  0  0
    4.2579   -3.4235    0.3758 C   0  0  2  0  0  0  0  0  0  0  0  0
    3.0224   -2.8531    0.0189 C   0  0  1  0  0  0  0  0  0  0  0  0
    2.7055   -2.6329    1.6147 C   0  0  0  0  0  0  0  0  0  0  0  0
    3.8265   -3.1459    2.7687 C   0  0  0  0  0  0  0  0  0  0  0  0
    5.0324   -4.2182    2.2828 C   0  0  2  0  0  0  0  0  0  0  0  0
    5.2275   -5.1130    3.5632 C   0  0  0  0  0  0  0  0  0  0  0  0
    6.5009   -4.2701    1.3335 C   0  0  2  0  0  0  0  0  0  0  0  0
    6.9346   -3.6568   -0.1848 C   0  0  0  0  0  0  0  0  0  0  0  0
    6.4968   -2.8278   -1.2045 C   0  0  0  0  0  0  0  0  0  0  0  0
    6.5231   -5.7873    1.0683 C   0  0  0  0  0  0  0  0  0  0  0  0
    5.0699   -5.9747    0.6832 C   0  0  0  0  0  0  0  0  0  0  0  0
    4.6132   -6.9585    0.1035 O   0  0  0  0  0  0  0  0  0  0  0  0
    4.2408   -4.7782    1.1968 C   0  0  2  0  0  0  0  0  0  0  0  0
    3.5967   -1.9735   -3.4604 H   0  0  0  0  0  0  0  0  0  0  0  0
    2.1951   -2.7032   -2.7017 H   0  0  0  0  0  0  0  0  0  0  0  0
    3.7043   -3.5921   -2.7928 H   0  0  0  0  0  0  0  0  0  0  0  0
    3.2533   -0.9938   -1.2433 H   0  0  0  0  0  0  0  0  0  0  0  0
    6.6955   -0.8234    0.0107 H   0  0  0  0  0  0  0  0  0  0  0  0
    5.8938   -1.9877    1.6190 H   0  0  0  0  0  0  0  0  0  0  0  0
    4.4656   -1.1443    1.3522 H   0  0  0  0  0  0  0  0  0  0  0  0
    4.4325   -4.0171   -0.5145 H   0  0  0  0  0  0  0  0  0  0  0  0
    2.3037   -3.5800   -0.3775 H   0  0  0  0  0  0  0  0  0  0  0  0
    2.3236   -1.6314    1.8152 H   0  0  0  0  0  0  0  0  0  0  0  0
    1.8237   -3.2447    1.8149 H   0  0  0  0  0  0  0  0  0  0  0  0
    4.2618   -2.3043    3.3162 H   0  0  0  0  0  0  0  0  0  0  0  0
    3.2108   -3.6244    3.5287 H   0  0  0  0  0  0  0  0  0  0  0  0
    6.2567   -5.4344    3.7225 H   0  0  0  0  0  0  0  0  0  0  0  0
    4.6030   -6.0086    3.5483 H   0  0  0  0  0  0  0  0  0  0  0  0
    4.9791   -4.5842    4.4856 H   0  0  0  0  0  0  0  0  0  0  0  0
    7.3281   -3.9980    1.9850 H   0  0  0  0  0  0  0  0  0  0  0  0
    7.8397   -4.2064   -0.4952 H   0  0  0  0  0  0  0  0  0  0  0  0
    5.5298   -2.9890   -1.4408 H   0  0  0  0  0  0  0  0  0  0  0  0
    7.2062   -6.1019    0.2819 H   0  0  0  0  0  0  0  0  0  0  0  0
    6.7681   -6.3833    1.9502 H   0  0  0  0  0  0  0  0  0  0  0  0
    3.2466   -5.1202    1.4727 H   0  0  0  0  0  0  0  0  0  0  0  0
  1  2  1  0
  1 19  1  0
  1 20  1  0
  1 21  1  0
  2  7  1  0
  2  3  1  0
  2 22  1  6
  3 14  1  0
  3  4  2  0
  4  5  1  0
  4 23  1  0
  5  6  1  0
  5 24  1  0
  5 25  1  0
  6 18  1  0
  6  7  1  0
  6 26  1  6
  7  8  1  0
  7 27  1  6
  8  9  1  0
  8 28  1  0
  8 29  1  0
  9 10  1  0
  9 30  1  0
  9 31  1  0
 10 18  1  0
 10 11  1  1
 10 12  1  0
 11 32  1  0
 11 33  1  0
 11 34  1  0
 12 13  1  0
 12 15  1  0
 12 35  1  1
 13 14  2  3
 13 36  1  0
 14 37  1  0
 15 16  1  0
 15 38  1  0
 15 39  1  0
 16 17  2  0
 16 18  1  0
 18 40  1  1
M  END
>  <i_m_ct_stereo_status>  (55) 
1

>  <s_m_source_file>  (55) 
/var/tmp/pbs.5076255.sched01/tmpcyubysk0/0_f5co88n.sdf

>  <i_m_source_file_index>  (55) 
22

>  <i_lp_mmshare_version>  (55) 
48012

>  <i_f3d_flags>  (55) 
0

>  <s_epik_input>  (55) 
W0NIM11bQ0BIXTFbQ0BIXShbQ0gyXVtDSDJdMilbQ0BIXShbQ0BIXTNDKD1PKVtDSDJdNClbQ0gyXVtDSF09QzEvW0NIXT1bQ0hdXFtDQEhdNFtDQEBdMjNbQ0gzXQ==

>  <s_epik_cmdline>  (55) 
J2VwaWtfcHl0aG9uJywgJy1waHQnLCAnMi4wJywgJy1waCcsICc3LjAnLCAnLXRuJywgJzgnLCAnLW1hJywgJzIwMCcsICctaW1hZScsICc8aW5maWxlLm1hZT4nLCAnLW9tYWUnLCAnPG91dGZpbGUubWFlPic=

>  <r_lp_tautomer_probability>  (55) 
1

>  <r_epik_Ionization_Penalty>  (55) 
9.48535e-14

>  <r_epik_Ionization_Penalty_Charging>  (55) 
0

>  <r_epik_Ionization_Penalty_Neutral>  (55) 
9.48535e-14

>  <r_epik_State_Penalty>  (55) 
-0

>  <r_epik_Charging_Adjusted_Penalty>  (55) 
0

>  <i_epik_Tot_Q>  (55) 
0

>  <i_epik_Tot_abs_Q>  (55) 
0

>  <s_lp_Force_Field>  (55) 
OPLS3e

>  <r_lp_Energy>  (55) 
380.99

>  <b_lp_Chiralities_Consistent>  (55) 
1

>  <s_lp_Variant>  (55) 
15:0-2

>  <s_i_glide_gridfile>  (55) 
pfpi4k_grid

>  <i_i_glide_lignum>  (55) 
22

>  <i_i_glide_rotatable_bonds>  (55) 
0

>  <r_i_docking_score>  (55) 
3.10485

>  <r_i_glide_ligand_efficiency>  (55) 
0.172491

>  <r_i_glide_ligand_efficiency_sa>  (55) 
0.452055

>  <r_i_glide_ligand_efficiency_ln>  (55) 
0.798085

>  <r_i_glide_gscore>  (55) 
3.10485

>  <r_i_glide_lipo>  (55) 
-0.428812

>  <r_i_glide_hbond>  (55) 
0

>  <r_i_glide_metal>  (55) 
-0

>  <r_i_glide_rewards>  (55) 
-1.91711

>  <r_i_glide_evdw>  (55) 
-20.864

>  <r_i_glide_ecoul>  (55) 
-0.231328

>  <r_i_glide_erotb>  (55) 
0

>  <r_i_glide_esite>  (55) 
0

>  <r_i_glide_emodel>  (55) 
4.85355

>  <r_i_glide_energy>  (55) 
-21.0953

>  <r_i_glide_einternal>  (55) 
0

>  <r_i_glide_intrahb_reward>  (55) 
-0

>  <i_i_glide_confnum>  (55) 
1

>  <i_i_glide_posenum>  (55) 
1

>  <r_i_glide_eff_state_penalty>  (55) 
0

>  <ligand_id>  (55) 
15

>  <original_smiles>  (55) 
CC1C2=CCC3C1CCC1(C)C(C=C2)CC(=O)C31

>  <smiles>  (55) 
[H]C1=C([H])C2([H])C([H])([H])C(=O)C3([H])C4([H])C([H])([H])C([H])=C1C([H])(C([H])([H])[H])C4([H])C([H])([H])C([H])([H])C23C([H])([H])[H]

$$$$
15:1:1
     RDKit          3D

 40 43  0  0  1  0  0  0  0  0999 V2000
    4.3380   -3.7951   -3.4488 C   0  0  0  0  0  0  0  0  0  0  0  0
    4.1300   -2.7786   -2.2899 C   0  0  2  0  0  0  0  0  0  0  0  0
    5.5524   -1.9437   -1.9719 C   0  0  0  0  0  0  0  0  0  0  0  0
    5.2876   -0.9872   -1.2128 C   0  0  0  0  0  0  0  0  0  0  0  0
    4.7106   -1.7092   -0.0446 C   0  0  0  0  0  0  0  0  0  0  0  0
    4.5425   -3.4985   -0.2095 C   0  0  2  0  0  0  0  0  0  0  0  0
    3.3691   -3.5047   -0.9793 C   0  0  1  0  0  0  0  0  0  0  0  0
    2.5479   -3.0590    0.3612 C   0  0  0  0  0  0  0  0  0  0  0  0
    3.3499   -2.8433    1.8225 C   0  0  0  0  0  0  0  0  0  0  0  0
    4.8935   -3.4915    1.9677 C   0  0  2  0  0  0  0  0  0  0  0  0
    4.9310   -3.9282    3.4793 C   0  0  0  0  0  0  0  0  0  0  0  0
    6.5277   -3.2339    1.4032 C   0  0  2  0  0  0  0  0  0  0  0  0
    7.2192   -2.8913   -0.0950 C   0  0  0  0  0  0  0  0  0  0  0  0
    6.8846   -2.5329   -1.4047 C   0  0  0  0  0  0  0  0  0  0  0  0
    7.0621   -4.6566    1.6613 C   0  0  0  0  0  0  0  0  0  0  0  0
    5.9127   -5.4341    1.0693 C   0  0  0  0  0  0  0  0  0  0  0  0
    5.9500   -6.6286    0.7845 O   0  0  0  0  0  0  0  0  0  0  0  0
    4.6636   -4.5363    0.9806 C   0  0  2  0  0  0  0  0  0  0  0  0
    4.7011   -3.3218   -4.3576 H   0  0  0  0  0  0  0  0  0  0  0  0
    3.3971   -4.2646   -3.7262 H   0  0  0  0  0  0  0  0  0  0  0  0
    5.0465   -4.5936   -3.1965 H   0  0  0  0  0  0  0  0  0  0  0  0
    3.4329   -2.0438   -2.7030 H   0  0  0  0  0  0  0  0  0  0  0  0
    6.1252   -0.3678   -0.8836 H   0  0  0  0  0  0  0  0  0  0  0  0
    5.2473   -1.3203    0.8132 H   0  0  0  0  0  0  0  0  0  0  0  0
    3.7878   -1.1342   -0.0036 H   0  0  0  0  0  0  0  0  0  0  0  0
    5.1405   -4.1811   -0.8084 H   0  0  0  0  0  0  0  0  0  0  0  0
    3.0424   -4.5111   -1.2386 H   0  0  0  0  0  0  0  0  0  0  0  0
    1.8543   -2.2717    0.1597 H   0  0  0  0  0  0  0  0  0  0  0  0
    1.8538   -3.8804    0.5495 H   0  0  0  0  0  0  0  0  0  0  0  0
    3.3369   -1.7968    2.1441 H   0  0  0  0  0  0  0  0  0  0  0  0
    2.6914   -3.3195    2.5477 H   0  0  0  0  0  0  0  0  0  0  0  0
    5.9033   -3.8099    3.9495 H   0  0  0  0  0  0  0  0  0  0  0  0
    4.6256   -4.9657    3.6271 H   0  0  0  0  0  0  0  0  0  0  0  0
    4.2738   -3.3229    4.1066 H   0  0  0  0  0  0  0  0  0  0  0  0
    6.9996   -2.5219    2.0747 H   0  0  0  0  0  0  0  0  0  0  0  0
    8.2875   -3.1276   -0.0211 H   0  0  0  0  0  0  0  0  0  0  0  0
    6.1116   -3.0517   -1.7532 H   0  0  0  0  0  0  0  0  0  0  0  0
    8.0119   -4.8767    1.1820 H   0  0  0  0  0  0  0  0  0  0  0  0
    7.1819   -4.9046    2.7171 H   0  0  0  0  0  0  0  0  0  0  0  0
    3.7725   -5.1394    1.1365 H   0  0  0  0  0  0  0  0  0  0  0  0
  1  2  1  0
  1 19  1  0
  1 20  1  0
  1 21  1  0
  2  7  1  0
  2  3  1  0
  2 22  1  6
  3 14  1  0
  3  4  2  0
  4  5  1  0
  4 23  1  0
  5  6  1  0
  5 24  1  0
  5 25  1  0
  6 18  1  0
  6  7  1  0
  6 26  1  6
  7  8  1  0
  7 27  1  6
  8  9  1  0
  8 28  1  0
  8 29  1  0
  9 10  1  0
  9 30  1  0
  9 31  1  0
 10 18  1  0
 10 11  1  1
 10 12  1  0
 11 32  1  0
 11 33  1  0
 11 34  1  0
 12 13  1  0
 12 15  1  0
 12 35  1  1
 13 14  2  3
 13 36  1  0
 14 37  1  0
 15 16  1  0
 15 38  1  0
 15 39  1  0
 16 17  2  0
 16 18  1  0
 18 40  1  1
M  END
>  <i_m_ct_stereo_status>  (56) 
1

>  <s_m_source_file>  (56) 
/var/tmp/pbs.5076255.sched01/tmpcyubysk0/0_f5co88n.sdf

>  <i_m_source_file_index>  (56) 
22

>  <i_lp_mmshare_version>  (56) 
48012

>  <i_f3d_flags>  (56) 
0

>  <s_epik_input>  (56) 
W0NIM11bQ0BIXTFbQ0BIXShbQ0gyXVtDSDJdMilbQ0BIXShbQ0BIXTNDKD1PKVtDSDJdNClbQ0gyXVtDSF09QzEvW0NIXT1bQ0hdXFtDQEhdNFtDQEBdMjNbQ0gzXQ==

>  <s_epik_cmdline>  (56) 
J2VwaWtfcHl0aG9uJywgJy1waHQnLCAnMi4wJywgJy1waCcsICc3LjAnLCAnLXRuJywgJzgnLCAnLW1hJywgJzIwMCcsICctaW1hZScsICc8aW5maWxlLm1hZT4nLCAnLW9tYWUnLCAnPG91dGZpbGUubWFlPic=

>  <r_lp_tautomer_probability>  (56) 
1

>  <r_epik_Ionization_Penalty>  (56) 
9.48535e-14

>  <r_epik_Ionization_Penalty_Charging>  (56) 
0

>  <r_epik_Ionization_Penalty_Neutral>  (56) 
9.48535e-14

>  <r_epik_State_Penalty>  (56) 
-0

>  <r_epik_Charging_Adjusted_Penalty>  (56) 
0

>  <i_epik_Tot_Q>  (56) 
0

>  <i_epik_Tot_abs_Q>  (56) 
0

>  <s_lp_Force_Field>  (56) 
OPLS3e

>  <r_lp_Energy>  (56) 
380.99

>  <b_lp_Chiralities_Consistent>  (56) 
1

>  <s_lp_Variant>  (56) 
15:0-2

>  <s_i_glide_gridfile>  (56) 
pfpi4k_grid

>  <i_i_glide_lignum>  (56) 
22

>  <i_i_glide_rotatable_bonds>  (56) 
0

>  <r_i_docking_score>  (56) 
3.82334

>  <r_i_glide_ligand_efficiency>  (56) 
0.212408

>  <r_i_glide_ligand_efficiency_sa>  (56) 
0.556666

>  <r_i_glide_ligand_efficiency_ln>  (56) 
0.982771

>  <r_i_glide_gscore>  (56) 
3.82334

>  <r_i_glide_lipo>  (56) 
-0.403692

>  <r_i_glide_hbond>  (56) 
0

>  <r_i_glide_metal>  (56) 
-0

>  <r_i_glide_rewards>  (56) 
-1.87943

>  <r_i_glide_evdw>  (56) 
-10.7777

>  <r_i_glide_ecoul>  (56) 
-1.00697

>  <r_i_glide_erotb>  (56) 
0

>  <r_i_glide_esite>  (56) 
0

>  <r_i_glide_emodel>  (56) 
15.7836

>  <r_i_glide_energy>  (56) 
-11.7847

>  <r_i_glide_einternal>  (56) 
0

>  <r_i_glide_intrahb_reward>  (56) 
-0

>  <i_i_glide_confnum>  (56) 
2

>  <i_i_glide_posenum>  (56) 
14

>  <r_i_glide_eff_state_penalty>  (56) 
0

>  <ligand_id>  (56) 
15

>  <original_smiles>  (56) 
CC1C2=CCC3C1CCC1(C)C(C=C2)CC(=O)C31

>  <smiles>  (56) 
[H]C1=C([H])C2([H])C([H])([H])C(=O)C3([H])C4([H])C([H])([H])C([H])=C1C([H])(C([H])([H])[H])C4([H])C([H])([H])C([H])([H])C23C([H])([H])[H]

$$$$
15:1:2
     RDKit          3D

 40 43  0  0  1  0  0  0  0  0999 V2000
    4.5648   -0.6054   -2.4535 C   0  0  0  0  0  0  0  0  0  0  0  0
    3.6044   -1.0725   -1.3147 C   0  0  2  0  0  0  0  0  0  0  0  0
    4.0212   -0.3108    0.1496 C   0  0  0  0  0  0  0  0  0  0  0  0
    3.0688   -0.4857    0.9772 C   0  0  0  0  0  0  0  0  0  0  0  0
    3.0352   -1.9778    0.9921 C   0  0  0  0  0  0  0  0  0  0  0  0
    4.1628   -2.8433   -0.1259 C   0  0  2  0  0  0  0  0  0  0  0  0
    3.4150   -2.7133   -1.3080 C   0  0  1  0  0  0  0  0  0  0  0  0
    2.3550   -3.8097   -0.7121 C   0  0  0  0  0  0  0  0  0  0  0  0
    2.6377   -4.5167    0.7928 C   0  0  0  0  0  0  0  0  0  0  0  0
    4.1769   -4.3751    1.4574 C   0  0  2  0  0  0  0  0  0  0  0  0
    4.3502   -5.7452    2.2128 C   0  0  0  0  0  0  0  0  0  0  0  0
    5.2232   -3.1893    2.1994 C   0  0  2  0  0  0  0  0  0  0  0  0
    5.6564   -1.6025    1.8266 C   0  0  0  0  0  0  0  0  0  0  0  0
    5.3043   -0.5331    0.9814 C   0  0  0  0  0  0  0  0  0  0  0  0
    6.5428   -3.9221    1.9330 C   0  0  0  0  0  0  0  0  0  0  0  0
    6.3360   -4.2850    0.5011 C   0  0  0  0  0  0  0  0  0  0  0  0
    7.2483   -4.5835   -0.2486 O   0  0  0  0  0  0  0  0  0  0  0  0
    4.8363   -4.2405    0.1646 C   0  0  2  0  0  0  0  0  0  0  0  0
    4.5834    0.4825   -2.5693 H   0  0  0  0  0  0  0  0  0  0  0  0
    4.2697   -1.0047   -3.4254 H   0  0  0  0  0  0  0  0  0  0  0  0
    5.5973   -0.9138   -2.2736 H   0  0  0  0  0  0  0  0  0  0  0  0
    2.6350   -0.6617   -1.6151 H   0  0  0  0  0  0  0  0  0  0  0  0
    3.2210   -0.0857    1.9760 H   0  0  0  0  0  0  0  0  0  0  0  0
    3.0600   -2.2358    2.0462 H   0  0  0  0  0  0  0  0  0  0  0  0
    1.9734   -2.0714    0.7799 H   0  0  0  0  0  0  0  0  0  0  0  0
    5.1272   -2.4981   -0.4990 H   0  0  0  0  0  0  0  0  0  0  0  0
    3.9006   -3.1356   -2.1938 H   0  0  0  0  0  0  0  0  0  0  0  0
    1.3279   -3.4891   -0.8550 H   0  0  0  0  0  0  0  0  0  0  0  0
    2.3932   -4.6394   -1.4047 H   0  0  0  0  0  0  0  0  0  0  0  0
    1.8789   -4.2322    1.5286 H   0  0  0  0  0  0  0  0  0  0  0  0
    2.4223   -5.5712    0.6249 H   0  0  0  0  0  0  0  0  0  0  0  0
    4.9206   -5.6694    3.1391 H   0  0  0  0  0  0  0  0  0  0  0  0
    4.8297   -6.5083    1.5958 H   0  0  0  0  0  0  0  0  0  0  0  0
    3.3958   -6.1673    2.5327 H   0  0  0  0  0  0  0  0  0  0  0  0
    5.0177   -3.1766    3.2722 H   0  0  0  0  0  0  0  0  0  0  0  0
    6.5752   -1.3655    2.3650 H   0  0  0  0  0  0  0  0  0  0  0  0
    5.1163   -0.8216    0.0583 H   0  0  0  0  0  0  0  0  0  0  0  0
    7.4189   -3.3025    2.0569 H   0  0  0  0  0  0  0  0  0  0  0  0
    6.7094   -4.8038    2.5512 H   0  0  0  0  0  0  0  0  0  0  0  0
    4.5987   -5.0098   -0.5657 H   0  0  0  0  0  0  0  0  0  0  0  0
  1  2  1  0
  1 19  1  0
  1 20  1  0
  1 21  1  0
  2  7  1  0
  2  3  1  0
  2 22  1  6
  3 14  1  0
  3  4  2  0
  4  5  1  0
  4 23  1  0
  5  6  1  0
  5 24  1  0
  5 25  1  0
  6 18  1  0
  6  7  1  0
  6 26  1  6
  7  8  1  0
  7 27  1  6
  8  9  1  0
  8 28  1  0
  8 29  1  0
  9 10  1  0
  9 30  1  0
  9 31  1  0
 10 18  1  0
 10 11  1  1
 10 12  1  0
 11 32  1  0
 11 33  1  0
 11 34  1  0
 12 13  1  0
 12 15  1  0
 12 35  1  1
 13 14  2  3
 13 36  1  0
 14 37  1  0
 15 16  1  0
 15 38  1  0
 15 39  1  0
 16 17  2  0
 16 18  1  0
 18 40  1  6
M  END
>  <i_m_ct_stereo_status>  (57) 
1

>  <s_m_source_file>  (57) 
/var/tmp/pbs.5076255.sched01/tmpcyubysk0/0_f5co88n.sdf

>  <i_m_source_file_index>  (57) 
22

>  <i_lp_mmshare_version>  (57) 
48012

>  <i_f3d_flags>  (57) 
0

>  <s_epik_input>  (57) 
W0NIM11bQ0BIXTFbQ0BIXShbQ0gyXVtDSDJdMilbQ0BIXShbQ0BIXTNDKD1PKVtDSDJdNClbQ0gyXVtDSF09QzEvW0NIXT1bQ0hdXFtDQEhdNFtDQEBdMjNbQ0gzXQ==

>  <s_epik_cmdline>  (57) 
J2VwaWtfcHl0aG9uJywgJy1waHQnLCAnMi4wJywgJy1waCcsICc3LjAnLCAnLXRuJywgJzgnLCAnLW1hJywgJzIwMCcsICctaW1hZScsICc8aW5maWxlLm1hZT4nLCAnLW9tYWUnLCAnPG91dGZpbGUubWFlPic=

>  <r_lp_tautomer_probability>  (57) 
1

>  <r_epik_Ionization_Penalty>  (57) 
9.48535e-14

>  <r_epik_Ionization_Penalty_Charging>  (57) 
0

>  <r_epik_Ionization_Penalty_Neutral>  (57) 
9.48535e-14

>  <r_epik_State_Penalty>  (57) 
-0

>  <r_epik_Charging_Adjusted_Penalty>  (57) 
0

>  <i_epik_Tot_Q>  (57) 
0

>  <i_epik_Tot_abs_Q>  (57) 
0

>  <s_lp_Force_Field>  (57) 
OPLS3e

>  <r_lp_Energy>  (57) 
380.99

>  <b_lp_Chiralities_Consistent>  (57) 
1

>  <s_lp_Variant>  (57) 
15:0-2

>  <s_i_glide_gridfile>  (57) 
pfpi4k_grid

>  <i_i_glide_lignum>  (57) 
22

>  <i_i_glide_rotatable_bonds>  (57) 
0

>  <r_i_docking_score>  (57) 
5.17635

>  <r_i_glide_ligand_efficiency>  (57) 
0.287575

>  <r_i_glide_ligand_efficiency_sa>  (57) 
0.753659

>  <r_i_glide_ligand_efficiency_ln>  (57) 
1.33055

>  <r_i_glide_gscore>  (57) 
5.17635

>  <r_i_glide_lipo>  (57) 
-0.48216

>  <r_i_glide_hbond>  (57) 
0

>  <r_i_glide_metal>  (57) 
-0

>  <r_i_glide_rewards>  (57) 
-1.90145

>  <r_i_glide_evdw>  (57) 
0.582981

>  <r_i_glide_ecoul>  (57) 
-0.986492

>  <r_i_glide_erotb>  (57) 
0

>  <r_i_glide_esite>  (57) 
0

>  <r_i_glide_emodel>  (57) 
31.2669

>  <r_i_glide_energy>  (57) 
-0.403511

>  <r_i_glide_einternal>  (57) 
0

>  <r_i_glide_intrahb_reward>  (57) 
-0

>  <i_i_glide_confnum>  (57) 
2

>  <i_i_glide_posenum>  (57) 
3

>  <r_i_glide_eff_state_penalty>  (57) 
0

>  <ligand_id>  (57) 
15

>  <original_smiles>  (57) 
CC1C2=CCC3C1CCC1(C)C(C=C2)CC(=O)C31

>  <smiles>  (57) 
[H]C1=C([H])C2([H])C([H])([H])C(=O)C3([H])C4([H])C([H])([H])C([H])=C1C([H])(C([H])([H])[H])C4([H])C([H])([H])C([H])([H])C23C([H])([H])[H]

$$$$
17:0:0
     RDKit          3D

 38 41  0  0  1  0  0  0  0  0999 V2000
    6.2654   -5.7847    0.8796 N   0  0  0  0  0  0  0  0  0  0  0  0
    4.9494   -5.8678    1.0329 C   0  0  0  0  0  0  0  0  0  0  0  0
    4.1656   -4.9852    0.3662 N   0  0  0  0  0  0  0  0  0  0  0  0
    2.8381   -5.0499    0.5135 C   0  0  0  0  0  0  0  0  0  0  0  0
    2.1303   -5.8889    1.2782 N   0  0  0  0  0  0  0  0  0  0  0  0
    2.9319   -6.7685    1.9554 C   0  0  0  0  0  0  0  0  0  0  0  0
    4.3411   -6.8335    1.8760 C   0  0  0  0  0  0  0  0  0  0  0  0
    4.8155   -7.8627    2.6854 N   0  0  0  0  0  0  0  0  0  0  0  0
    3.7502   -8.4085    3.2236 C   0  0  0  0  0  0  0  0  0  0  0  0
    3.9266   -9.5703    4.1266 C   0  0  0  0  0  0  0  0  0  0  0  0
    2.9159  -10.5850    4.3464 C   0  0  0  0  0  0  0  0  0  0  0  0
    3.2665  -11.4993    5.2890 C   0  0  0  0  0  0  0  0  0  0  0  0
    4.8926  -11.2624    5.8504 S   0  0  0  0  0  0  0  0  0  0  0  0
    5.0559   -9.8469    4.8470 C   0  0  0  0  0  0  0  0  0  0  0  0
    2.5696   -7.7560    2.8713 N   0  0  0  0  0  0  0  0  0  0  0  0
    1.2065   -8.0204    3.3206 C   0  0  0  0  0  0  0  0  0  0  0  0
    0.3493   -8.5246    2.1377 C   0  0  0  0  0  0  0  0  0  0  0  0
   -1.0864   -8.8191    2.5760 C   0  0  0  0  0  0  0  0  0  0  0  0
   -1.6937   -7.5975    3.2837 C   0  0  0  0  0  0  0  0  0  0  0  0
   -0.8298   -7.1362    4.4708 C   0  0  0  0  0  0  0  0  0  0  0  0
    0.5968   -6.8026    4.0221 C   0  0  0  0  0  0  0  0  0  0  0  0
    6.6505   -5.0955    0.2519 H   0  0  0  0  0  0  0  0  0  0  0  0
    6.8477   -6.4428    1.3755 H   0  0  0  0  0  0  0  0  0  0  0  0
    2.2566   -4.3315   -0.0533 H   0  0  0  0  0  0  0  0  0  0  0  0
    1.9560  -10.6226    3.8403 H   0  0  0  0  0  0  0  0  0  0  0  0
    2.6468  -12.3007    5.6893 H   0  0  0  0  0  0  0  0  0  0  0  0
    5.9915   -9.3022    4.8394 H   0  0  0  0  0  0  0  0  0  0  0  0
    1.1988   -8.7530    4.1180 H   0  0  0  0  0  0  0  0  0  0  0  0
    0.3195   -7.8065    1.3237 H   0  0  0  0  0  0  0  0  0  0  0  0
    0.8015   -9.4263    1.7195 H   0  0  0  0  0  0  0  0  0  0  0  0
   -1.6863   -9.0884    1.7031 H   0  0  0  0  0  0  0  0  0  0  0  0
   -1.1029   -9.6840    3.2452 H   0  0  0  0  0  0  0  0  0  0  0  0
   -1.7839   -6.7835    2.5653 H   0  0  0  0  0  0  0  0  0  0  0  0
   -2.6986   -7.8349    3.6273 H   0  0  0  0  0  0  0  0  0  0  0  0
   -1.2663   -6.2550    4.9405 H   0  0  0  0  0  0  0  0  0  0  0  0
   -0.8184   -7.9230    5.2336 H   0  0  0  0  0  0  0  0  0  0  0  0
    1.2170   -6.5836    4.8920 H   0  0  0  0  0  0  0  0  0  0  0  0
    0.5933   -5.9215    3.3876 H   0  0  0  0  0  0  0  0  0  0  0  0
  1  2  1  0
  1 23  1  0
  1 22  1  0
  2  3  2  0
  2  7  1  0
  3  4  1  0
  4 24  1  0
  4  5  2  0
  5  6  1  0
  6 15  1  0
  6  7  2  0
  7  8  1  0
  8  9  2  0
  9 10  1  0
  9 15  1  0
 10 14  2  0
 10 11  1  0
 11 12  2  0
 11 25  1  0
 12 13  1  0
 12 26  1  0
 13 14  1  0
 14 27  1  0
 15 16  1  0
 16 21  1  0
 16 17  1  0
 16 28  1  0
 17 18  1  0
 17 29  1  0
 17 30  1  0
 18 19  1  0
 18 31  1  0
 18 32  1  0
 19 20  1  0
 19 33  1  0
 19 34  1  0
 20 21  1  0
 20 35  1  0
 20 36  1  0
 21 37  1  0
 21 38  1  0
M  END
>  <i_m_ct_stereo_status>  (58) 
1

>  <s_m_source_file>  (58) 
/var/tmp/pbs.5076255.sched01/tmpcyubysk0/0_f5co88n.sdf

>  <i_m_source_file_index>  (58) 
24

>  <i_lp_mmshare_version>  (58) 
48012

>  <i_f3d_flags>  (58) 
0

>  <s_epik_input>  (58) 
bjFbY0hdW25IXVxjKD1OXFtIXSljKGMxMiluYygtYzNbY0hdW2NIXXNbY0hdMyluMltDSF00W0NIMl1bQ0gyXVtDSDJdW0NIMl1bQ0gyXTQ=

>  <s_epik_cmdline>  (58) 
J2VwaWtfcHl0aG9uJywgJy1waHQnLCAnMi4wJywgJy1waCcsICc3LjAnLCAnLXRuJywgJzgnLCAnLW1hJywgJzIwMCcsICctaW1hZScsICc8aW5maWxlLm1hZT4nLCAnLW9tYWUnLCAnPG91dGZpbGUubWFlPic=

>  <r_lp_tautomer_probability>  (58) 
1

>  <r_epik_Ionization_Penalty>  (58) 
0.00165361

>  <r_epik_Ionization_Penalty_Charging>  (58) 
0

>  <r_epik_Ionization_Penalty_Neutral>  (58) 
0.00165361

>  <r_epik_State_Penalty>  (58) 
-0

>  <r_epik_Charging_Adjusted_Penalty>  (58) 
0

>  <i_epik_Tot_Q>  (58) 
0

>  <i_epik_Tot_abs_Q>  (58) 
0

>  <s_lp_Force_Field>  (58) 
OPLS3e

>  <r_lp_Energy>  (58) 
28.0494

>  <b_lp_Chiralities_Consistent>  (58) 
1

>  <s_lp_Variant>  (58) 
17:0-1

>  <s_i_glide_gridfile>  (58) 
pfpi4k_grid

>  <i_i_glide_lignum>  (58) 
24

>  <i_i_glide_rotatable_bonds>  (58) 
2

>  <r_i_docking_score>  (58) 
-2.49773

>  <r_i_glide_ligand_efficiency>  (58) 
-0.11894

>  <r_i_glide_ligand_efficiency_sa>  (58) 
-0.328146

>  <r_i_glide_ligand_efficiency_ln>  (58) 
-0.61756

>  <r_i_glide_gscore>  (58) 
-2.49773

>  <r_i_glide_lipo>  (58) 
-0.143658

>  <r_i_glide_hbond>  (58) 
0

>  <r_i_glide_metal>  (58) 
-0

>  <r_i_glide_rewards>  (58) 
-1.38387

>  <r_i_glide_evdw>  (58) 
-23.1139

>  <r_i_glide_ecoul>  (58) 
-1.23797

>  <r_i_glide_erotb>  (58) 
0.409778

>  <r_i_glide_esite>  (58) 
-0.0385994

>  <r_i_glide_emodel>  (58) 
-27.77

>  <r_i_glide_energy>  (58) 
-24.3518

>  <r_i_glide_einternal>  (58) 
0.321072

>  <r_i_glide_intrahb_reward>  (58) 
-0

>  <i_i_glide_confnum>  (58) 
3

>  <i_i_glide_posenum>  (58) 
1

>  <r_i_glide_eff_state_penalty>  (58) 
0

>  <ligand_id>  (58) 
17

>  <original_smiles>  (58) 
N=c1[nH]cnc2c1nc(-c1ccsc1)n2C1CCCCC1

>  <smiles>  (58) 
[H]c1nc(N([H])[H])c2nc(-c3c([H])sc([H])c3[H])n(C3([H])C([H])([H])C([H])([H])C([H])([H])C([H])([H])C3([H])[H])c2n1

$$$$
17:0:1
     RDKit          3D

 38 41  0  0  1  0  0  0  0  0999 V2000
    3.2770   -0.1279    1.3094 N   0  0  0  0  0  0  0  0  0  0  0  0
    2.3069   -0.0509    2.2233 C   0  0  0  0  0  0  0  0  0  0  0  0
    1.6079   -1.1794    2.5116 N   0  0  0  0  0  0  0  0  0  0  0  0
    0.6450   -1.1224    3.4454 C   0  0  0  0  0  0  0  0  0  0  0  0
    0.2503   -0.0615    4.1498 N   0  0  0  0  0  0  0  0  0  0  0  0
    0.9652    1.0622    3.8531 C   0  0  0  0  0  0  0  0  0  0  0  0
    2.0111    1.1553    2.9183 C   0  0  0  0  0  0  0  0  0  0  0  0
    2.5239    2.4441    2.9170 N   0  0  0  0  0  0  0  0  0  0  0  0
    1.8307    3.1198    3.8113 C   0  0  0  0  0  0  0  0  0  0  0  0
    2.1515    4.5437    4.1140 C   0  0  0  0  0  0  0  0  0  0  0  0
    3.0156    5.2847    3.2451 C   0  0  0  0  0  0  0  0  0  0  0  0
    3.2233    6.5868    3.6386 C   0  0  0  0  0  0  0  0  0  0  0  0
    2.3267    6.9854    5.0553 S   0  0  0  0  0  0  0  0  0  0  0  0
    1.7695    5.3449    5.1877 C   0  0  0  0  0  0  0  0  0  0  0  0
    0.8357    2.3346    4.3912 N   0  0  0  0  0  0  0  0  0  0  0  0
   -0.1703    2.7046    5.3794 C   0  0  0  0  0  0  0  0  0  0  0  0
    0.0216    1.9334    6.7051 C   0  0  0  0  0  0  0  0  0  0  0  0
   -1.0252    2.3626    7.7368 C   0  0  0  0  0  0  0  0  0  0  0  0
   -2.4455    2.2525    7.1533 C   0  0  0  0  0  0  0  0  0  0  0  0
   -2.5934    3.0674    5.8571 C   0  0  0  0  0  0  0  0  0  0  0  0
   -1.5822    2.6172    4.7969 C   0  0  0  0  0  0  0  0  0  0  0  0
    3.4146   -0.9962    0.8051 H   0  0  0  0  0  0  0  0  0  0  0  0
    3.7701    0.7164    1.0845 H   0  0  0  0  0  0  0  0  0  0  0  0
    0.1023   -2.0376    3.6508 H   0  0  0  0  0  0  0  0  0  0  0  0
    3.4810    4.8510    2.3701 H   0  0  0  0  0  0  0  0  0  0  0  0
    3.8154    7.3635    3.1797 H   0  0  0  0  0  0  0  0  0  0  0  0
    1.2023    5.1326    6.0747 H   0  0  0  0  0  0  0  0  0  0  0  0
   -0.1276    3.7569    5.6037 H   0  0  0  0  0  0  0  0  0  0  0  0
   -0.0622    0.8610    6.5582 H   0  0  0  0  0  0  0  0  0  0  0  0
    1.0255    2.1155    7.0951 H   0  0  0  0  0  0  0  0  0  0  0  0
   -0.9319    1.7354    8.6257 H   0  0  0  0  0  0  0  0  0  0  0  0
   -0.8372    3.3916    8.0588 H   0  0  0  0  0  0  0  0  0  0  0  0
   -2.6649    1.2077    6.9318 H   0  0  0  0  0  0  0  0  0  0  0  0
   -3.1762    2.5849    7.8897 H   0  0  0  0  0  0  0  0  0  0  0  0
   -3.5964    2.9527    5.4510 H   0  0  0  0  0  0  0  0  0  0  0  0
   -2.4723    4.1320    6.0858 H   0  0  0  0  0  0  0  0  0  0  0  0
   -1.6310    3.2879    3.9364 H   0  0  0  0  0  0  0  0  0  0  0  0
   -1.8131    1.6152    4.4475 H   0  0  0  0  0  0  0  0  0  0  0  0
  1  2  1  0
  1 23  1  0
  1 22  1  0
  2  3  2  0
  2  7  1  0
  3  4  1  0
  4 24  1  0
  4  5  2  0
  5  6  1  0
  6 15  1  0
  6  7  2  0
  7  8  1  0
  8  9  2  0
  9 10  1  0
  9 15  1  0
 10 14  2  0
 10 11  1  0
 11 12  2  0
 11 25  1  0
 12 13  1  0
 12 26  1  0
 13 14  1  0
 14 27  1  0
 15 16  1  0
 16 21  1  0
 16 17  1  0
 16 28  1  0
 17 18  1  0
 17 29  1  0
 17 30  1  0
 18 19  1  0
 18 31  1  0
 18 32  1  0
 19 20  1  0
 19 33  1  0
 19 34  1  0
 20 21  1  0
 20 35  1  0
 20 36  1  0
 21 37  1  0
 21 38  1  0
M  END
>  <i_m_ct_stereo_status>  (59) 
1

>  <s_m_source_file>  (59) 
/var/tmp/pbs.5076255.sched01/tmpcyubysk0/0_f5co88n.sdf

>  <i_m_source_file_index>  (59) 
24

>  <i_lp_mmshare_version>  (59) 
48012

>  <i_f3d_flags>  (59) 
0

>  <s_epik_input>  (59) 
bjFbY0hdW25IXVxjKD1OXFtIXSljKGMxMiluYygtYzNbY0hdW2NIXXNbY0hdMyluMltDSF00W0NIMl1bQ0gyXVtDSDJdW0NIMl1bQ0gyXTQ=

>  <s_epik_cmdline>  (59) 
J2VwaWtfcHl0aG9uJywgJy1waHQnLCAnMi4wJywgJy1waCcsICc3LjAnLCAnLXRuJywgJzgnLCAnLW1hJywgJzIwMCcsICctaW1hZScsICc8aW5maWxlLm1hZT4nLCAnLW9tYWUnLCAnPG91dGZpbGUubWFlPic=

>  <r_lp_tautomer_probability>  (59) 
1

>  <r_epik_Ionization_Penalty>  (59) 
0.00165361

>  <r_epik_Ionization_Penalty_Charging>  (59) 
0

>  <r_epik_Ionization_Penalty_Neutral>  (59) 
0.00165361

>  <r_epik_State_Penalty>  (59) 
-0

>  <r_epik_Charging_Adjusted_Penalty>  (59) 
0

>  <i_epik_Tot_Q>  (59) 
0

>  <i_epik_Tot_abs_Q>  (59) 
0

>  <s_lp_Force_Field>  (59) 
OPLS3e

>  <r_lp_Energy>  (59) 
28.0494

>  <b_lp_Chiralities_Consistent>  (59) 
1

>  <s_lp_Variant>  (59) 
17:0-1

>  <s_i_glide_gridfile>  (59) 
pfpi4k_grid

>  <i_i_glide_lignum>  (59) 
24

>  <i_i_glide_rotatable_bonds>  (59) 
2

>  <r_i_docking_score>  (59) 
-2.43058

>  <r_i_glide_ligand_efficiency>  (59) 
-0.115742

>  <r_i_glide_ligand_efficiency_sa>  (59) 
-0.319323

>  <r_i_glide_ligand_efficiency_ln>  (59) 
-0.600956

>  <r_i_glide_gscore>  (59) 
-2.43058

>  <r_i_glide_lipo>  (59) 
-0.232818

>  <r_i_glide_hbond>  (59) 
0

>  <r_i_glide_metal>  (59) 
-0

>  <r_i_glide_rewards>  (59) 
-1.36776

>  <r_i_glide_evdw>  (59) 
-23.8199

>  <r_i_glide_ecoul>  (59) 
0.197408

>  <r_i_glide_erotb>  (59) 
0.409778

>  <r_i_glide_esite>  (59) 
-0.078393

>  <r_i_glide_emodel>  (59) 
-26.6837

>  <r_i_glide_energy>  (59) 
-23.6225

>  <r_i_glide_einternal>  (59) 
0.115641

>  <r_i_glide_intrahb_reward>  (59) 
-0

>  <i_i_glide_confnum>  (59) 
4

>  <i_i_glide_posenum>  (59) 
16

>  <r_i_glide_eff_state_penalty>  (59) 
0

>  <ligand_id>  (59) 
17

>  <original_smiles>  (59) 
N=c1[nH]cnc2c1nc(-c1ccsc1)n2C1CCCCC1

>  <smiles>  (59) 
[H]c1nc(N([H])[H])c2nc(-c3c([H])sc([H])c3[H])n(C3([H])C([H])([H])C([H])([H])C([H])([H])C([H])([H])C3([H])[H])c2n1

$$$$
17:0:2
     RDKit          3D

 38 41  0  0  1  0  0  0  0  0999 V2000
    3.4030   -0.1598    1.3633 N   0  0  0  0  0  0  0  0  0  0  0  0
    2.3951   -0.0735    2.2343 C   0  0  0  0  0  0  0  0  0  0  0  0
    1.6571   -1.1783    2.4703 N   0  0  0  0  0  0  0  0  0  0  0  0
    0.6515   -1.1077    3.3519 C   0  0  0  0  0  0  0  0  0  0  0  0
    0.2520   -0.0561    4.0721 N   0  0  0  0  0  0  0  0  0  0  0  0
    1.0026    1.0536    3.8298 C   0  0  0  0  0  0  0  0  0  0  0  0
    2.0923    1.1253    2.9283 C   0  0  0  0  0  0  0  0  0  0  0  0
    2.6186    2.4089    2.9553 N   0  0  0  0  0  0  0  0  0  0  0  0
    1.9378    3.0744    3.8425 C   0  0  0  0  0  0  0  0  0  0  0  0
    2.3128    4.4748    4.1464 C   0  0  0  0  0  0  0  0  0  0  0  0
    2.0650    5.1252    5.4072 C   0  0  0  0  0  0  0  0  0  0  0  0
    2.4103    6.4478    5.4215 C   0  0  0  0  0  0  0  0  0  0  0  0
    3.1977    6.9144    3.9421 S   0  0  0  0  0  0  0  0  0  0  0  0
    2.9615    5.3203    3.2781 C   0  0  0  0  0  0  0  0  0  0  0  0
    0.8887    2.3307    4.3805 N   0  0  0  0  0  0  0  0  0  0  0  0
   -0.1391    2.7386    5.3206 C   0  0  0  0  0  0  0  0  0  0  0  0
   -0.0039    1.9603    6.6550 C   0  0  0  0  0  0  0  0  0  0  0  0
   -1.0872    2.3799    7.6492 C   0  0  0  0  0  0  0  0  0  0  0  0
   -2.4854    2.2671    7.0136 C   0  0  0  0  0  0  0  0  0  0  0  0
   -2.5873    3.0725    5.7073 C   0  0  0  0  0  0  0  0  0  0  0  0
   -1.5362    2.6259    4.6950 C   0  0  0  0  0  0  0  0  0  0  0  0
    3.5452   -1.0209    0.8510 H   0  0  0  0  0  0  0  0  0  0  0  0
    3.9411    0.6742    1.1759 H   0  0  0  0  0  0  0  0  0  0  0  0
    0.0761   -2.0144    3.4962 H   0  0  0  0  0  0  0  0  0  0  0  0
    1.6330    4.6284    6.2682 H   0  0  0  0  0  0  0  0  0  0  0  0
    2.2612    7.1619    6.2192 H   0  0  0  0  0  0  0  0  0  0  0  0
    3.3110    5.0865    2.2834 H   0  0  0  0  0  0  0  0  0  0  0  0
   -0.0644    3.8087    5.5188 H   0  0  0  0  0  0  0  0  0  0  0  0
   -0.0828    0.8862    6.4966 H   0  0  0  0  0  0  0  0  0  0  0  0
    0.9846    2.1267    7.0855 H   0  0  0  0  0  0  0  0  0  0  0  0
   -1.0238    1.7559    8.5429 H   0  0  0  0  0  0  0  0  0  0  0  0
   -0.9089    3.4084    7.9734 H   0  0  0  0  0  0  0  0  0  0  0  0
   -2.6948    1.2191    6.7968 H   0  0  0  0  0  0  0  0  0  0  0  0
   -3.2417    2.6026    7.7239 H   0  0  0  0  0  0  0  0  0  0  0  0
   -3.5773    2.9626    5.2620 H   0  0  0  0  0  0  0  0  0  0  0  0
   -2.4597    4.1289    5.9361 H   0  0  0  0  0  0  0  0  0  0  0  0
   -1.5603    3.2737    3.8176 H   0  0  0  0  0  0  0  0  0  0  0  0
   -1.7554    1.6143    4.3523 H   0  0  0  0  0  0  0  0  0  0  0  0
  1  2  1  0
  1 23  1  0
  1 22  1  0
  2  3  2  0
  2  7  1  0
  3  4  1  0
  4 24  1  0
  4  5  2  0
  5  6  1  0
  6 15  1  0
  6  7  2  0
  7  8  1  0
  8  9  2  0
  9 10  1  0
  9 15  1  0
 10 14  2  0
 10 11  1  0
 11 12  2  0
 11 25  1  0
 12 13  1  0
 12 26  1  0
 13 14  1  0
 14 27  1  0
 15 16  1  0
 16 21  1  0
 16 17  1  0
 16 28  1  0
 17 18  1  0
 17 29  1  0
 17 30  1  0
 18 19  1  0
 18 31  1  0
 18 32  1  0
 19 20  1  0
 19 33  1  0
 19 34  1  0
 20 21  1  0
 20 35  1  0
 20 36  1  0
 21 37  1  0
 21 38  1  0
M  END
>  <i_m_ct_stereo_status>  (60) 
1

>  <s_m_source_file>  (60) 
/var/tmp/pbs.5076255.sched01/tmpcyubysk0/0_f5co88n.sdf

>  <i_m_source_file_index>  (60) 
24

>  <i_lp_mmshare_version>  (60) 
48012

>  <i_f3d_flags>  (60) 
0

>  <s_epik_input>  (60) 
bjFbY0hdW25IXVxjKD1OXFtIXSljKGMxMiluYygtYzNbY0hdW2NIXXNbY0hdMyluMltDSF00W0NIMl1bQ0gyXVtDSDJdW0NIMl1bQ0gyXTQ=

>  <s_epik_cmdline>  (60) 
J2VwaWtfcHl0aG9uJywgJy1waHQnLCAnMi4wJywgJy1waCcsICc3LjAnLCAnLXRuJywgJzgnLCAnLW1hJywgJzIwMCcsICctaW1hZScsICc8aW5maWxlLm1hZT4nLCAnLW9tYWUnLCAnPG91dGZpbGUubWFlPic=

>  <r_lp_tautomer_probability>  (60) 
1

>  <r_epik_Ionization_Penalty>  (60) 
0.00165361

>  <r_epik_Ionization_Penalty_Charging>  (60) 
0

>  <r_epik_Ionization_Penalty_Neutral>  (60) 
0.00165361

>  <r_epik_State_Penalty>  (60) 
-0

>  <r_epik_Charging_Adjusted_Penalty>  (60) 
0

>  <i_epik_Tot_Q>  (60) 
0

>  <i_epik_Tot_abs_Q>  (60) 
0

>  <s_lp_Force_Field>  (60) 
OPLS3e

>  <r_lp_Energy>  (60) 
28.0494

>  <b_lp_Chiralities_Consistent>  (60) 
1

>  <s_lp_Variant>  (60) 
17:0-1

>  <s_i_glide_gridfile>  (60) 
pfpi4k_grid

>  <i_i_glide_lignum>  (60) 
24

>  <i_i_glide_rotatable_bonds>  (60) 
2

>  <r_i_docking_score>  (60) 
-2.41586

>  <r_i_glide_ligand_efficiency>  (60) 
-0.115041

>  <r_i_glide_ligand_efficiency_sa>  (60) 
-0.31739

>  <r_i_glide_ligand_efficiency_ln>  (60) 
-0.597318

>  <r_i_glide_gscore>  (60) 
-2.41586

>  <r_i_glide_lipo>  (60) 
-0.161568

>  <r_i_glide_hbond>  (60) 
0

>  <r_i_glide_metal>  (60) 
-0

>  <r_i_glide_rewards>  (60) 
-1.36776

>  <r_i_glide_evdw>  (60) 
-23.5506

>  <r_i_glide_ecoul>  (60) 
-0.3288

>  <r_i_glide_erotb>  (60) 
0.409778

>  <r_i_glide_esite>  (60) 
-0.0694655

>  <r_i_glide_emodel>  (60) 
-27.2147

>  <r_i_glide_energy>  (60) 
-23.8794

>  <r_i_glide_einternal>  (60) 
0.293503

>  <r_i_glide_intrahb_reward>  (60) 
-0

>  <i_i_glide_confnum>  (60) 
3

>  <i_i_glide_posenum>  (60) 
9

>  <r_i_glide_eff_state_penalty>  (60) 
0

>  <ligand_id>  (60) 
17

>  <original_smiles>  (60) 
N=c1[nH]cnc2c1nc(-c1ccsc1)n2C1CCCCC1

>  <smiles>  (60) 
[H]c1nc(N([H])[H])c2nc(-c3c([H])sc([H])c3[H])n(C3([H])C([H])([H])C([H])([H])C([H])([H])C([H])([H])C3([H])[H])c2n1

$$$$
18:0:0
     RDKit          3D

 11 12  0  0  1  0  0  0  0  0999 V2000
    3.0856   -2.5976   -3.5846 C   0  0  0  0  0  0  0  0  0  0  0  0
    3.1250   -1.6482   -2.5264 C   0  0  0  0  0  0  0  0  0  0  0  0
    4.2700   -1.7458   -1.8701 N   0  0  0  0  0  0  0  0  0  0  0  0
    4.6687   -1.0559   -0.8110 C   0  0  0  0  0  0  0  0  0  0  0  0
    5.8953   -1.4515   -0.5086 N   0  0  0  0  0  0  0  0  0  0  0  0
    6.2550   -2.4570   -1.4503 N   0  0  0  0  0  0  0  0  0  0  0  0
    5.2295   -2.6304   -2.2528 C   0  0  0  0  0  0  0  0  0  0  0  0
    4.6128   -3.5417   -3.6510 S   0  0  0  0  0  0  0  0  0  0  0  0
    2.2746   -2.7752   -4.2933 H   0  0  0  0  0  0  0  0  0  0  0  0
    2.3718   -0.9140   -2.2376 H   0  0  0  0  0  0  0  0  0  0  0  0
    4.1333   -0.2879   -0.2779 H   0  0  0  0  0  0  0  0  0  0  0  0
  1  8  1  0
  1  2  2  0
  1  9  1  0
  2  3  1  0
  2 10  1  0
  3  7  1  0
  3  4  1  0
  4  5  2  0
  4 11  1  0
  5  6  1  0
  6  7  2  0
  7  8  1  0
M  END
>  <i_m_ct_stereo_status>  (61) 
1

>  <s_m_source_file>  (61) 
/var/tmp/pbs.5076255.sched01/tmpcyubysk0/0_f5co88n.sdf

>  <i_m_source_file_index>  (61) 
25

>  <i_lp_mmshare_version>  (61) 
48012

>  <i_f3d_flags>  (61) 
0

>  <s_epik_input>  (61) 
W2NIXTFbY0hdc2MobjEyKW5uW2NIXTI=

>  <s_epik_cmdline>  (61) 
J2VwaWtfcHl0aG9uJywgJy1waHQnLCAnMi4wJywgJy1waCcsICc3LjAnLCAnLXRuJywgJzgnLCAnLW1hJywgJzIwMCcsICctaW1hZScsICc8aW5maWxlLm1hZT4nLCAnLW9tYWUnLCAnPG91dGZpbGUubWFlPic=

>  <r_lp_tautomer_probability>  (61) 
1

>  <r_epik_Ionization_Penalty>  (61) 
0.000101483

>  <r_epik_Ionization_Penalty_Charging>  (61) 
0

>  <r_epik_Ionization_Penalty_Neutral>  (61) 
0.000101483

>  <r_epik_State_Penalty>  (61) 
-0

>  <r_epik_Charging_Adjusted_Penalty>  (61) 
0

>  <i_epik_Tot_Q>  (61) 
0

>  <i_epik_Tot_abs_Q>  (61) 
0

>  <s_lp_Force_Field>  (61) 
OPLS3e

>  <r_lp_Energy>  (61) 
1.20871

>  <b_lp_Chiralities_Consistent>  (61) 
1

>  <s_lp_Variant>  (61) 
18:0-1

>  <s_i_glide_gridfile>  (61) 
pfpi4k_grid

>  <i_i_glide_lignum>  (61) 
25

>  <i_i_glide_rotatable_bonds>  (61) 
0

>  <r_i_docking_score>  (61) 
-4.26271

>  <r_i_glide_ligand_efficiency>  (61) 
-0.532838

>  <r_i_glide_ligand_efficiency_sa>  (61) 
-1.06568

>  <r_i_glide_ligand_efficiency_ln>  (61) 
-1.38425

>  <r_i_glide_gscore>  (61) 
-4.26271

>  <r_i_glide_lipo>  (61) 
-0.401962

>  <r_i_glide_hbond>  (61) 
0

>  <r_i_glide_metal>  (61) 
-0

>  <r_i_glide_rewards>  (61) 
-2.38295

>  <r_i_glide_evdw>  (61) 
-17.0615

>  <r_i_glide_ecoul>  (61) 
-3.10163

>  <r_i_glide_erotb>  (61) 
0

>  <r_i_glide_esite>  (61) 
-0.159481

>  <r_i_glide_emodel>  (61) 
-26.7459

>  <r_i_glide_energy>  (61) 
-20.1631

>  <r_i_glide_einternal>  (61) 
0

>  <r_i_glide_intrahb_reward>  (61) 
-0

>  <i_i_glide_confnum>  (61) 
1

>  <i_i_glide_posenum>  (61) 
3

>  <r_i_glide_eff_state_penalty>  (61) 
0

>  <ligand_id>  (61) 
18

>  <original_smiles>  (61) 
c1cn2cnnc2s1

>  <smiles>  (61) 
[H]c1sc2nnc([H])n2c1[H]

$$$$
18:0:1
     RDKit          3D

 11 12  0  0  1  0  0  0  0  0999 V2000
    1.8965  -10.0512    2.6872 C   0  0  0  0  0  0  0  0  0  0  0  0
    0.5523  -10.2118    3.1381 C   0  0  0  0  0  0  0  0  0  0  0  0
   -0.1178   -9.0720    2.9610 N   0  0  0  0  0  0  0  0  0  0  0  0
   -1.3837   -8.7901    3.2437 C   0  0  0  0  0  0  0  0  0  0  0  0
   -1.6160   -7.5241    2.9066 N   0  0  0  0  0  0  0  0  0  0  0  0
   -0.4033   -7.0159    2.3713 N   0  0  0  0  0  0  0  0  0  0  0  0
    0.4901   -7.9794    2.4245 C   0  0  0  0  0  0  0  0  0  0  0  0
    2.1849   -8.3908    2.0652 S   0  0  0  0  0  0  0  0  0  0  0  0
    2.6879  -10.7958    2.6794 H   0  0  0  0  0  0  0  0  0  0  0  0
    0.0413  -11.0687    3.5706 H   0  0  0  0  0  0  0  0  0  0  0  0
   -2.1206   -9.4517    3.6736 H   0  0  0  0  0  0  0  0  0  0  0  0
  1  8  1  0
  1  2  2  0
  1  9  1  0
  2  3  1  0
  2 10  1  0
  3  7  1  0
  3  4  1  0
  4  5  2  0
  4 11  1  0
  5  6  1  0
  6  7  2  0
  7  8  1  0
M  END
>  <i_m_ct_stereo_status>  (62) 
1

>  <s_m_source_file>  (62) 
/var/tmp/pbs.5076255.sched01/tmpcyubysk0/0_f5co88n.sdf

>  <i_m_source_file_index>  (62) 
25

>  <i_lp_mmshare_version>  (62) 
48012

>  <i_f3d_flags>  (62) 
0

>  <s_epik_input>  (62) 
W2NIXTFbY0hdc2MobjEyKW5uW2NIXTI=

>  <s_epik_cmdline>  (62) 
J2VwaWtfcHl0aG9uJywgJy1waHQnLCAnMi4wJywgJy1waCcsICc3LjAnLCAnLXRuJywgJzgnLCAnLW1hJywgJzIwMCcsICctaW1hZScsICc8aW5maWxlLm1hZT4nLCAnLW9tYWUnLCAnPG91dGZpbGUubWFlPic=

>  <r_lp_tautomer_probability>  (62) 
1

>  <r_epik_Ionization_Penalty>  (62) 
0.000101483

>  <r_epik_Ionization_Penalty_Charging>  (62) 
0

>  <r_epik_Ionization_Penalty_Neutral>  (62) 
0.000101483

>  <r_epik_State_Penalty>  (62) 
-0

>  <r_epik_Charging_Adjusted_Penalty>  (62) 
0

>  <i_epik_Tot_Q>  (62) 
0

>  <i_epik_Tot_abs_Q>  (62) 
0

>  <s_lp_Force_Field>  (62) 
OPLS3e

>  <r_lp_Energy>  (62) 
1.20871

>  <b_lp_Chiralities_Consistent>  (62) 
1

>  <s_lp_Variant>  (62) 
18:0-1

>  <s_i_glide_gridfile>  (62) 
pfpi4k_grid

>  <i_i_glide_lignum>  (62) 
25

>  <i_i_glide_rotatable_bonds>  (62) 
0

>  <r_i_docking_score>  (62) 
-4.04

>  <r_i_glide_ligand_efficiency>  (62) 
-0.505

>  <r_i_glide_ligand_efficiency_sa>  (62) 
-1.01

>  <r_i_glide_ligand_efficiency_ln>  (62) 
-1.31193

>  <r_i_glide_gscore>  (62) 
-4.04

>  <r_i_glide_lipo>  (62) 
-0.110941

>  <r_i_glide_hbond>  (62) 
0

>  <r_i_glide_metal>  (62) 
-0

>  <r_i_glide_rewards>  (62) 
-2.25

>  <r_i_glide_evdw>  (62) 
-15.1863

>  <r_i_glide_ecoul>  (62) 
-4.03263

>  <r_i_glide_erotb>  (62) 
0

>  <r_i_glide_esite>  (62) 
-0.314849

>  <r_i_glide_emodel>  (62) 
-25.4756

>  <r_i_glide_energy>  (62) 
-19.219

>  <r_i_glide_einternal>  (62) 
0

>  <r_i_glide_intrahb_reward>  (62) 
-0

>  <i_i_glide_confnum>  (62) 
1

>  <i_i_glide_posenum>  (62) 
1

>  <r_i_glide_eff_state_penalty>  (62) 
0

>  <ligand_id>  (62) 
18

>  <original_smiles>  (62) 
c1cn2cnnc2s1

>  <smiles>  (62) 
[H]c1sc2nnc([H])n2c1[H]

$$$$
18:0:2
     RDKit          3D

 11 12  0  0  1  0  0  0  0  0999 V2000
    0.2199  -10.0389    3.1879 C   0  0  0  0  0  0  0  0  0  0  0  0
    1.4286   -9.3918    2.7889 C   0  0  0  0  0  0  0  0  0  0  0  0
    1.1375   -8.2172    2.2173 N   0  0  0  0  0  0  0  0  0  0  0  0
    1.9336   -7.2867    1.7024 C   0  0  0  0  0  0  0  0  0  0  0  0
    1.1665   -6.2942    1.2448 N   0  0  0  0  0  0  0  0  0  0  0  0
   -0.1769   -6.6596    1.4928 N   0  0  0  0  0  0  0  0  0  0  0  0
   -0.1576   -7.8283    2.0869 C   0  0  0  0  0  0  0  0  0  0  0  0
   -1.2229   -9.0516    2.7832 S   0  0  0  0  0  0  0  0  0  0  0  0
    0.1136  -11.0044    3.6808 H   0  0  0  0  0  0  0  0  0  0  0  0
    2.4599   -9.7106    2.8828 H   0  0  0  0  0  0  0  0  0  0  0  0
    3.0118   -7.3041    1.6505 H   0  0  0  0  0  0  0  0  0  0  0  0
  1  8  1  0
  1  2  2  0
  1  9  1  0
  2  3  1  0
  2 10  1  0
  3  7  1  0
  3  4  1  0
  4  5  2  0
  4 11  1  0
  5  6  1  0
  6  7  2  0
  7  8  1  0
M  END
>  <i_m_ct_stereo_status>  (63) 
1

>  <s_m_source_file>  (63) 
/var/tmp/pbs.5076255.sched01/tmpcyubysk0/0_f5co88n.sdf

>  <i_m_source_file_index>  (63) 
25

>  <i_lp_mmshare_version>  (63) 
48012

>  <i_f3d_flags>  (63) 
0

>  <s_epik_input>  (63) 
W2NIXTFbY0hdc2MobjEyKW5uW2NIXTI=

>  <s_epik_cmdline>  (63) 
J2VwaWtfcHl0aG9uJywgJy1waHQnLCAnMi4wJywgJy1waCcsICc3LjAnLCAnLXRuJywgJzgnLCAnLW1hJywgJzIwMCcsICctaW1hZScsICc8aW5maWxlLm1hZT4nLCAnLW9tYWUnLCAnPG91dGZpbGUubWFlPic=

>  <r_lp_tautomer_probability>  (63) 
1

>  <r_epik_Ionization_Penalty>  (63) 
0.000101483

>  <r_epik_Ionization_Penalty_Charging>  (63) 
0

>  <r_epik_Ionization_Penalty_Neutral>  (63) 
0.000101483

>  <r_epik_State_Penalty>  (63) 
-0

>  <r_epik_Charging_Adjusted_Penalty>  (63) 
0

>  <i_epik_Tot_Q>  (63) 
0

>  <i_epik_Tot_abs_Q>  (63) 
0

>  <s_lp_Force_Field>  (63) 
OPLS3e

>  <r_lp_Energy>  (63) 
1.20871

>  <b_lp_Chiralities_Consistent>  (63) 
1

>  <s_lp_Variant>  (63) 
18:0-1

>  <s_i_glide_gridfile>  (63) 
pfpi4k_grid

>  <i_i_glide_lignum>  (63) 
25

>  <i_i_glide_rotatable_bonds>  (63) 
0

>  <r_i_docking_score>  (63) 
-3.9919

>  <r_i_glide_ligand_efficiency>  (63) 
-0.498988

>  <r_i_glide_ligand_efficiency_sa>  (63) 
-0.997976

>  <r_i_glide_ligand_efficiency_ln>  (63) 
-1.29631

>  <r_i_glide_gscore>  (63) 
-3.9919

>  <r_i_glide_lipo>  (63) 
-0.0365615

>  <r_i_glide_hbond>  (63) 
0

>  <r_i_glide_metal>  (63) 
-0

>  <r_i_glide_rewards>  (63) 
-2.25

>  <r_i_glide_evdw>  (63) 
-15.3109

>  <r_i_glide_ecoul>  (63) 
-4.22499

>  <r_i_glide_erotb>  (63) 
0

>  <r_i_glide_esite>  (63) 
-0.306048

>  <r_i_glide_emodel>  (63) 
-25.7165

>  <r_i_glide_energy>  (63) 
-19.5359

>  <r_i_glide_einternal>  (63) 
0

>  <r_i_glide_intrahb_reward>  (63) 
-0

>  <i_i_glide_confnum>  (63) 
1

>  <i_i_glide_posenum>  (63) 
18

>  <r_i_glide_eff_state_penalty>  (63) 
0

>  <ligand_id>  (63) 
18

>  <original_smiles>  (63) 
c1cn2cnnc2s1

>  <smiles>  (63) 
[H]c1sc2nnc([H])n2c1[H]

$$$$
19:0:0
     RDKit          3D

 60 65  0  0  1  0  0  0  0  0999 V2000
   -0.7238   -1.6901    5.6490 C   0  0  0  0  0  0  0  0  0  0  0  0
    0.5928   -1.9667    5.1859 O   0  0  0  0  0  0  0  0  0  0  0  0
    0.8402   -1.5407    3.8801 C   0  0  2  0  0  0  0  0  0  0  0  0
    1.8825   -2.2384    3.2682 O   0  0  0  0  0  0  0  0  0  0  0  0
    3.2078   -1.9883    3.7571 C   0  0  1  0  0  0  0  0  0  0  0  0
    3.4673   -2.8718    4.9954 C   0  0  0  0  0  0  0  0  0  0  0  0
    4.2309   -2.2962    2.6391 C   0  0  2  0  0  0  0  0  0  0  0  0
    5.3277   -1.5131    3.0514 O   0  0  0  0  0  0  0  0  0  0  0  0
    4.6552   -0.3061    2.9621 C   0  0  1  0  0  0  0  0  0  0  0  0
    4.1168   -0.2628    1.6697 O   0  0  0  0  0  0  0  0  0  0  0  0
    3.8448   -1.5840    1.3400 C   0  0  1  0  0  0  0  0  0  0  0  0
    4.7147   -2.0799    0.3458 O   0  0  0  0  0  0  0  0  0  0  0  0
    4.1533   -2.3714   -0.9085 C   0  0  1  0  0  0  0  0  0  0  0  0
    3.0731   -3.2810   -0.7802 O   0  0  0  0  0  0  0  0  0  0  0  0
    3.6670   -1.0918   -1.6268 C   0  0  0  0  0  0  0  0  0  0  0  0
    3.1243   -1.4356   -3.0248 C   0  0  0  0  0  0  0  0  0  0  0  0
    4.1882   -2.1293   -3.8719 C   0  0  0  0  0  0  0  0  0  0  0  0
    4.7348   -3.3824   -3.1631 C   0  0  0  0  0  0  0  0  0  0  0  0
    5.2746   -3.0612   -1.7477 C   0  0  1  0  0  0  0  0  0  0  0  0
    6.4475   -2.2656   -1.9136 O   0  0  0  0  0  0  0  0  0  0  0  0
    3.5248   -0.4938    3.9966 C   0  0  1  0  0  0  0  0  0  0  0  0
    2.3274    0.4521    3.8681 C   0  0  0  0  0  0  0  0  0  0  0  0
    1.0654   -0.0436    3.8109 C   0  0  0  0  0  0  0  0  0  0  0  0
   -0.0542    0.8559    3.5884 C   0  0  0  0  0  0  0  0  0  0  0  0
    0.0967    2.1607    3.8404 C   0  0  0  0  0  0  0  0  0  0  0  0
   -0.8768    3.2157    3.5816 C   0  0  0  0  0  0  0  0  0  0  0  0
   -2.0716    3.0793    3.3323 O   0  0  0  0  0  0  0  0  0  0  0  0
   -0.2224    4.3842    3.7248 O   0  0  0  0  0  0  0  0  0  0  0  0
    1.1928    4.2359    3.8628 C   0  0  0  0  0  0  0  0  0  0  0  0
    1.3563    2.7790    4.3296 C   0  0  2  0  0  0  0  0  0  0  0  0
    2.5875    1.9725    3.8347 C   0  0  1  0  0  0  0  0  0  0  0  0
    3.7040    2.3264    4.6205 O   0  0  0  0  0  0  0  0  0  0  0  0
   -0.8349   -2.0347    6.6775 H   0  0  0  0  0  0  0  0  0  0  0  0
   -1.4671   -2.2081    5.0402 H   0  0  0  0  0  0  0  0  0  0  0  0
   -0.9611   -0.6243    5.6438 H   0  0  0  0  0  0  0  0  0  0  0  0
   -0.0361   -1.7616    3.2812 H   0  0  0  0  0  0  0  0  0  0  0  0
    4.5172   -2.8493    5.2814 H   0  0  0  0  0  0  0  0  0  0  0  0
    3.2093   -3.9112    4.7945 H   0  0  0  0  0  0  0  0  0  0  0  0
    2.8939   -2.5474    5.8610 H   0  0  0  0  0  0  0  0  0  0  0  0
    4.4288   -3.3576    2.4795 H   0  0  0  0  0  0  0  0  0  0  0  0
    5.3129    0.5431    3.1652 H   0  0  0  0  0  0  0  0  0  0  0  0
    2.7809   -1.6739    1.1009 H   0  0  0  0  0  0  0  0  0  0  0  0
    2.3051   -2.7788   -0.5601 H   0  0  0  0  0  0  0  0  0  0  0  0
    2.8863   -0.6655   -1.0163 H   0  0  0  0  0  0  0  0  0  0  0  0
    4.4878   -0.3734   -1.6825 H   0  0  0  0  0  0  0  0  0  0  0  0
    2.2398   -2.0719   -2.9554 H   0  0  0  0  0  0  0  0  0  0  0  0
    2.7971   -0.5291   -3.5297 H   0  0  0  0  0  0  0  0  0  0  0  0
    3.7285   -2.4220   -4.8105 H   0  0  0  0  0  0  0  0  0  0  0  0
    5.0017   -1.4397   -4.1018 H   0  0  0  0  0  0  0  0  0  0  0  0
    3.9365   -4.1205   -3.0959 H   0  0  0  0  0  0  0  0  0  0  0  0
    5.5115   -3.8519   -3.7757 H   0  0  0  0  0  0  0  0  0  0  0  0
    5.5583   -3.9837   -1.2381 H   0  0  0  0  0  0  0  0  0  0  0  0
    7.0575   -2.7496   -2.4697 H   0  0  0  0  0  0  0  0  0  0  0  0
    3.9709   -0.3688    4.9801 H   0  0  0  0  0  0  0  0  0  0  0  0
   -0.9834    0.4818    3.1817 H   0  0  0  0  0  0  0  0  0  0  0  0
    1.6615    4.4008    2.8910 H   0  0  0  0  0  0  0  0  0  0  0  0
    1.5954    4.9563    4.5704 H   0  0  0  0  0  0  0  0  0  0  0  0
    1.2988    2.7488    5.4186 H   0  0  0  0  0  0  0  0  0  0  0  0
    2.8153    2.2463    2.8015 H   0  0  0  0  0  0  0  0  0  0  0  0
    4.4110    2.5475    4.0253 H   0  0  0  0  0  0  0  0  0  0  0  0
  1  2  1  0
  1 33  1  0
  1 34  1  0
  1 35  1  0
  2  3  1  0
  3 23  1  0
  3  4  1  0
  3 36  1  6
  4  5  1  0
  5 21  1  0
  5  6  1  1
  5  7  1  0
  6 37  1  0
  6 38  1  0
  6 39  1  0
  7 11  1  0
  7  8  1  0
  7 40  1  6
  8  9  1  0
  9 10  1  0
  9 21  1  0
  9 41  1  1
 10 11  1  0
 11 12  1  0
 11 42  1  6
 13 12  1  1
 13 19  1  0
 13 14  1  0
 13 15  1  0
 14 43  1  0
 15 16  1  0
 15 44  1  0
 15 45  1  0
 16 17  1  0
 16 46  1  0
 16 47  1  0
 17 18  1  0
 17 48  1  0
 17 49  1  0
 18 19  1  0
 18 50  1  0
 18 51  1  0
 19 20  1  0
 19 52  1  1
 20 53  1  0
 21 22  1  0
 21 54  1  1
 22 31  1  0
 22 23  2  0
 23 24  1  0
 24 25  2  0
 24 55  1  0
 25 30  1  0
 25 26  1  0
 26 27  2  0
 26 28  1  0
 28 29  1  0
 29 30  1  0
 29 56  1  0
 29 57  1  0
 30 31  1  0
 30 58  1  1
 31 32  1  0
 31 59  1  6
 32 60  1  0
M  END
>  <i_m_ct_stereo_status>  (64) 
1

>  <s_m_source_file>  (64) 
/var/tmp/pbs.5076255.sched01/tmpcyubysk0/0_f5co88n.sdf

>  <i_m_source_file_index>  (64) 
26

>  <i_lp_mmshare_version>  (64) 
48012

>  <i_f3d_flags>  (64) 
0

>  <s_epik_input>  (64) 
Tz1DMU9bQ0gyXVtDQEhdKFtDQEhdMltPSF0pQzE9W0NIXUMoW0NAQEhdKE8zKU9bQ0gzXSk9QzJbQ0BASF00W0NAQEhdKE9bQ0BIXTVbQ0BdMzRbQ0gzXSlPW0NASF01T1tDQEBdNihbT0hdKVtDSDJdW0NIMl1bQ0gyXVtDSDJdW0NASF02W09IXQ==

>  <s_epik_cmdline>  (64) 
J2VwaWtfcHl0aG9uJywgJy1waHQnLCAnMi4wJywgJy1waCcsICc3LjAnLCAnLXRuJywgJzgnLCAnLW1hJywgJzIwMCcsICctaW1hZScsICc8aW5maWxlLm1hZT4nLCAnLW9tYWUnLCAnPG91dGZpbGUubWFlPic=

>  <r_epik_Ionization_Penalty>  (64) 
0.0434215

>  <r_epik_Ionization_Penalty_Charging>  (64) 
0

>  <r_epik_Ionization_Penalty_Neutral>  (64) 
0.0434215

>  <r_epik_State_Penalty>  (64) 
0.0367384

>  <r_epik_Charging_Adjusted_Penalty>  (64) 
0.0367384

>  <i_epik_Tot_Q>  (64) 
0

>  <i_epik_Tot_abs_Q>  (64) 
0

>  <s_epik_Chemistry_Notes>  (64) 
This compound has an ester and may undergo hydrolysis at high or low pH. This compound contains an acetal/aminal-like group ( X-CH(R)-Y where X, Y are N, S, or O) that may be acid/base labile, releasing an aldehyde.

>  <s_lp_Force_Field>  (64) 
OPLS3e

>  <r_lp_Energy>  (64) 
28.583

>  <b_lp_Chiralities_Consistent>  (64) 
1

>  <s_lp_Variant>  (64) 
19:0-1

>  <s_i_glide_gridfile>  (64) 
pfpi4k_grid

>  <i_i_glide_lignum>  (64) 
26

>  <i_i_glide_rotatable_bonds>  (64) 
6

>  <r_i_docking_score>  (64) 
-3.23343

>  <r_i_glide_ligand_efficiency>  (64) 
-0.101045

>  <r_i_glide_ligand_efficiency_sa>  (64) 
-0.320797

>  <r_i_glide_ligand_efficiency_ln>  (64) 
-0.724054

>  <r_i_glide_gscore>  (64) 
-3.23343

>  <r_i_glide_lipo>  (64) 
-0.317304

>  <r_i_glide_hbond>  (64) 
-0.153198

>  <r_i_glide_metal>  (64) 
-0

>  <r_i_glide_rewards>  (64) 
-0.452004

>  <r_i_glide_evdw>  (64) 
-29.047

>  <r_i_glide_ecoul>  (64) 
-6.28944

>  <r_i_glide_erotb>  (64) 
0.196033

>  <r_i_glide_esite>  (64) 
-0.111195

>  <r_i_glide_emodel>  (64) 
-39.0617

>  <r_i_glide_energy>  (64) 
-35.3364

>  <r_i_glide_einternal>  (64) 
5.9898

>  <r_i_glide_intrahb_reward>  (64) 
-0

>  <i_i_glide_confnum>  (64) 
3

>  <i_i_glide_posenum>  (64) 
1

>  <r_i_glide_eff_state_penalty>  (64) 
0

>  <ligand_id>  (64) 
19

>  <original_smiles>  (64) 
COC1OC2(C)C3OC(OC3OC3(O)CCCCC3O)C2C2=C1C=C1C(=O)OCC1C2O

>  <smiles>  (64) 
[H]OC1([H])C2=C(C([H])=C3C(=O)OC([H])([H])C31[H])C([H])(OC([H])([H])[H])OC1(C([H])([H])[H])C3([H])OC([H])(OC3([H])OC3(O[H])C([H])([H])C([H])([H])C([H])([H])C([H])([H])C3([H])O[H])C21[H]

$$$$
19:0:1
     RDKit          3D

 60 65  0  0  1  0  0  0  0  0999 V2000
   -0.2704   -2.3824    6.0994 C   0  0  0  0  0  0  0  0  0  0  0  0
    1.0071   -2.5504    5.4948 O   0  0  0  0  0  0  0  0  0  0  0  0
    1.0550   -2.2180    4.1400 C   0  0  2  0  0  0  0  0  0  0  0  0
    2.0382   -2.9246    3.4437 O   0  0  0  0  0  0  0  0  0  0  0  0
    3.4004   -2.5949    3.7298 C   0  0  1  0  0  0  0  0  0  0  0  0
    3.8668   -3.3603    4.9865 C   0  0  0  0  0  0  0  0  0  0  0  0
    4.2756   -2.9679    2.5078 C   0  0  2  0  0  0  0  0  0  0  0  0
    5.3810   -2.1148    2.7000 O   0  0  0  0  0  0  0  0  0  0  0  0
    4.6537   -0.9410    2.6150 C   0  0  1  0  0  0  0  0  0  0  0  0
    3.9365   -1.0241    1.4210 O   0  0  0  0  0  0  0  0  0  0  0  0
    3.6835   -2.3823    1.2183 C   0  0  1  0  0  0  0  0  0  0  0  0
    4.4180   -2.9296    0.1441 O   0  0  0  0  0  0  0  0  0  0  0  0
    3.8554   -2.7803   -1.1398 C   0  0  1  0  0  0  0  0  0  0  0  0
    2.6233   -3.4718   -1.2274 O   0  0  0  0  0  0  0  0  0  0  0  0
    3.6731   -1.2766   -1.5096 C   0  0  0  0  0  0  0  0  0  0  0  0
    3.1521   -1.1498   -2.9501 C   0  0  0  0  0  0  0  0  0  0  0  0
    4.0715   -1.8140   -3.9652 C   0  0  0  0  0  0  0  0  0  0  0  0
    4.3093   -3.2908   -3.5928 C   0  0  0  0  0  0  0  0  0  0  0  0
    4.8391   -3.4500   -2.1445 C   0  0  1  0  0  0  0  0  0  0  0  0
    6.1219   -2.8593   -2.1102 O   0  0  0  0  0  0  0  0  0  0  0  0
    3.6829   -1.0770    3.8070 C   0  0  1  0  0  0  0  0  0  0  0  0
    2.4350   -0.1844    3.7732 C   0  0  0  0  0  0  0  0  0  0  0  0
    1.2046   -0.7226    3.9344 C   0  0  0  0  0  0  0  0  0  0  0  0
    0.0252    0.1215    3.8064 C   0  0  0  0  0  0  0  0  0  0  0  0
    0.1533    1.4505    3.9167 C   0  0  0  0  0  0  0  0  0  0  0  0
   -0.8779    2.4535    3.7181 C   0  0  0  0  0  0  0  0  0  0  0  0
   -2.0934    2.2610    3.6462 O   0  0  0  0  0  0  0  0  0  0  0  0
   -0.2639    3.6460    3.6779 O   0  0  0  0  0  0  0  0  0  0  0  0
    1.1608    3.5503    3.6228 C   0  0  0  0  0  0  0  0  0  0  0  0
    1.4482    2.1437    4.1713 C   0  0  2  0  0  0  0  0  0  0  0  0
    2.6251    1.3342    3.5728 C   0  0  1  0  0  0  0  0  0  0  0  0
    3.8194    1.7947    4.1727 O   0  0  0  0  0  0  0  0  0  0  0  0
   -0.2113   -2.6239    7.1616 H   0  0  0  0  0  0  0  0  0  0  0  0
   -0.9998   -3.0548    5.6446 H   0  0  0  0  0  0  0  0  0  0  0  0
   -0.6446   -1.3596    6.0205 H   0  0  0  0  0  0  0  0  0  0  0  0
    0.1156   -2.5106    3.6757 H   0  0  0  0  0  0  0  0  0  0  0  0
    4.9451   -3.2795    5.1181 H   0  0  0  0  0  0  0  0  0  0  0  0
    3.6300   -4.4204    4.9085 H   0  0  0  0  0  0  0  0  0  0  0  0
    3.4063   -2.9804    5.8957 H   0  0  0  0  0  0  0  0  0  0  0  0
    4.4948   -4.0308    2.4084 H   0  0  0  0  0  0  0  0  0  0  0  0
    5.2924   -0.0557    2.6446 H   0  0  0  0  0  0  0  0  0  0  0  0
    2.6102   -2.5700    1.1234 H   0  0  0  0  0  0  0  0  0  0  0  0
    2.8189   -4.3907   -1.3691 H   0  0  0  0  0  0  0  0  0  0  0  0
    2.9717   -0.8043   -0.8289 H   0  0  0  0  0  0  0  0  0  0  0  0
    4.6167   -0.7492   -1.3819 H   0  0  0  0  0  0  0  0  0  0  0  0
    2.1935   -1.6450   -3.0179 H   0  0  0  0  0  0  0  0  0  0  0  0
    2.9964   -0.1022   -3.2053 H   0  0  0  0  0  0  0  0  0  0  0  0
    3.6244   -1.7357   -4.9523 H   0  0  0  0  0  0  0  0  0  0  0  0
    5.0073   -1.2639   -4.0154 H   0  0  0  0  0  0  0  0  0  0  0  0
    3.3764   -3.8437   -3.7043 H   0  0  0  0  0  0  0  0  0  0  0  0
    5.0090   -3.7475   -4.2956 H   0  0  0  0  0  0  0  0  0  0  0  0
    4.9395   -4.5075   -1.8863 H   0  0  0  0  0  0  0  0  0  0  0  0
    5.9949   -1.9288   -2.1941 H   0  0  0  0  0  0  0  0  0  0  0  0
    4.2541   -0.8519    4.7068 H   0  0  0  0  0  0  0  0  0  0  0  0
   -0.9346   -0.3136    3.5695 H   0  0  0  0  0  0  0  0  0  0  0  0
    1.4731    3.6488    2.5840 H   0  0  0  0  0  0  0  0  0  0  0  0
    1.6297    4.3434    4.2060 H   0  0  0  0  0  0  0  0  0  0  0  0
    1.5368    2.2029    5.2568 H   0  0  0  0  0  0  0  0  0  0  0  0
    2.6959    1.5190    2.4986 H   0  0  0  0  0  0  0  0  0  0  0  0
    4.2942    2.2896    3.5216 H   0  0  0  0  0  0  0  0  0  0  0  0
  1  2  1  0
  1 33  1  0
  1 34  1  0
  1 35  1  0
  2  3  1  0
  3 23  1  0
  3  4  1  0
  3 36  1  6
  4  5  1  0
  5 21  1  0
  5  6  1  1
  5  7  1  0
  6 37  1  0
  6 38  1  0
  6 39  1  0
  7 11  1  0
  7  8  1  0
  7 40  1  6
  8  9  1  0
  9 10  1  0
  9 21  1  0
  9 41  1  1
 10 11  1  0
 11 12  1  0
 11 42  1  6
 13 12  1  1
 13 19  1  0
 13 14  1  0
 13 15  1  0
 14 43  1  0
 15 16  1  0
 15 44  1  0
 15 45  1  0
 16 17  1  0
 16 46  1  0
 16 47  1  0
 17 18  1  0
 17 48  1  0
 17 49  1  0
 18 19  1  0
 18 50  1  0
 18 51  1  0
 19 20  1  0
 19 52  1  1
 20 53  1  0
 21 22  1  0
 21 54  1  1
 22 31  1  0
 22 23  2  0
 23 24  1  0
 24 25  2  0
 24 55  1  0
 25 30  1  0
 25 26  1  0
 26 27  2  0
 26 28  1  0
 28 29  1  0
 29 30  1  0
 29 56  1  0
 29 57  1  0
 30 31  1  0
 30 58  1  1
 31 32  1  0
 31 59  1  6
 32 60  1  0
M  END
>  <i_m_ct_stereo_status>  (65) 
1

>  <s_m_source_file>  (65) 
/var/tmp/pbs.5076255.sched01/tmpcyubysk0/0_f5co88n.sdf

>  <i_m_source_file_index>  (65) 
26

>  <i_lp_mmshare_version>  (65) 
48012

>  <i_f3d_flags>  (65) 
0

>  <s_epik_input>  (65) 
Tz1DMU9bQ0gyXVtDQEhdKFtDQEhdMltPSF0pQzE9W0NIXUMoW0NAQEhdKE8zKU9bQ0gzXSk9QzJbQ0BASF00W0NAQEhdKE9bQ0BIXTVbQ0BdMzRbQ0gzXSlPW0NASF01T1tDQEBdNihbT0hdKVtDSDJdW0NIMl1bQ0gyXVtDSDJdW0NASF02W09IXQ==

>  <s_epik_cmdline>  (65) 
J2VwaWtfcHl0aG9uJywgJy1waHQnLCAnMi4wJywgJy1waCcsICc3LjAnLCAnLXRuJywgJzgnLCAnLW1hJywgJzIwMCcsICctaW1hZScsICc8aW5maWxlLm1hZT4nLCAnLW9tYWUnLCAnPG91dGZpbGUubWFlPic=

>  <r_epik_Ionization_Penalty>  (65) 
0.0434215

>  <r_epik_Ionization_Penalty_Charging>  (65) 
0

>  <r_epik_Ionization_Penalty_Neutral>  (65) 
0.0434215

>  <r_epik_State_Penalty>  (65) 
0.0367384

>  <r_epik_Charging_Adjusted_Penalty>  (65) 
0.0367384

>  <i_epik_Tot_Q>  (65) 
0

>  <i_epik_Tot_abs_Q>  (65) 
0

>  <s_epik_Chemistry_Notes>  (65) 
This compound has an ester and may undergo hydrolysis at high or low pH. This compound contains an acetal/aminal-like group ( X-CH(R)-Y where X, Y are N, S, or O) that may be acid/base labile, releasing an aldehyde.

>  <s_lp_Force_Field>  (65) 
OPLS3e

>  <r_lp_Energy>  (65) 
28.583

>  <b_lp_Chiralities_Consistent>  (65) 
1

>  <s_lp_Variant>  (65) 
19:0-1

>  <s_i_glide_gridfile>  (65) 
pfpi4k_grid

>  <i_i_glide_lignum>  (65) 
26

>  <i_i_glide_rotatable_bonds>  (65) 
6

>  <r_i_docking_score>  (65) 
-3.20459

>  <r_i_glide_ligand_efficiency>  (65) 
-0.100143

>  <r_i_glide_ligand_efficiency_sa>  (65) 
-0.317935

>  <r_i_glide_ligand_efficiency_ln>  (65) 
-0.717594

>  <r_i_glide_gscore>  (65) 
-3.20459

>  <r_i_glide_lipo>  (65) 
-0.330901

>  <r_i_glide_hbond>  (65) 
-0.307528

>  <r_i_glide_metal>  (65) 
-0

>  <r_i_glide_rewards>  (65) 
-0.449482

>  <r_i_glide_evdw>  (65) 
-29.5031

>  <r_i_glide_ecoul>  (65) 
-5.12201

>  <r_i_glide_erotb>  (65) 
0.196033

>  <r_i_glide_esite>  (65) 
-0.0692482

>  <r_i_glide_emodel>  (65) 
-39.5807

>  <r_i_glide_energy>  (65) 
-34.6252

>  <r_i_glide_einternal>  (65) 
3.26724

>  <r_i_glide_intrahb_reward>  (65) 
-0

>  <i_i_glide_confnum>  (65) 
3

>  <i_i_glide_posenum>  (65) 
13

>  <r_i_glide_eff_state_penalty>  (65) 
0

>  <ligand_id>  (65) 
19

>  <original_smiles>  (65) 
COC1OC2(C)C3OC(OC3OC3(O)CCCCC3O)C2C2=C1C=C1C(=O)OCC1C2O

>  <smiles>  (65) 
[H]OC1([H])C2=C(C([H])=C3C(=O)OC([H])([H])C31[H])C([H])(OC([H])([H])[H])OC1(C([H])([H])[H])C3([H])OC([H])(OC3([H])OC3(O[H])C([H])([H])C([H])([H])C([H])([H])C([H])([H])C3([H])O[H])C21[H]

$$$$
19:0:2
     RDKit          3D

 60 65  0  0  1  0  0  0  0  0999 V2000
    4.7966   -3.6605   -2.7182 C   0  0  0  0  0  0  0  0  0  0  0  0
    4.6192   -4.0140   -1.3600 O   0  0  0  0  0  0  0  0  0  0  0  0
    3.5768   -3.3519   -0.7274 C   0  0  2  0  0  0  0  0  0  0  0  0
    3.8482   -1.9988   -0.5067 O   0  0  0  0  0  0  0  0  0  0  0  0
    4.9016   -1.6954    0.4148 C   0  0  1  0  0  0  0  0  0  0  0  0
    6.2590   -1.7495   -0.3076 C   0  0  0  0  0  0  0  0  0  0  0  0
    4.6378   -0.2889    1.0035 C   0  0  2  0  0  0  0  0  0  0  0  0
    5.3695   -0.3774    2.1950 O   0  0  0  0  0  0  0  0  0  0  0  0
    4.6350   -1.4331    2.7137 C   0  0  1  0  0  0  0  0  0  0  0  0
    3.2979   -1.0595    2.6237 O   0  0  0  0  0  0  0  0  0  0  0  0
    3.2072   -0.1738    1.5541 C   0  0  1  0  0  0  0  0  0  0  0  0
    3.0140    1.1598    1.9619 O   0  0  0  0  0  0  0  0  0  0  0  0
    1.7757    1.4850    2.5760 C   0  0  1  0  0  0  0  0  0  0  0  0
    0.6826    1.2870    1.7014 O   0  0  0  0  0  0  0  0  0  0  0  0
    1.5696    0.6537    3.8775 C   0  0  0  0  0  0  0  0  0  0  0  0
    0.3340    1.1004    4.6468 C   0  0  0  0  0  0  0  0  0  0  0  0
    0.3871    2.5832    4.9959 C   0  0  0  0  0  0  0  0  0  0  0  0
    0.5883    3.4216    3.7193 C   0  0  0  0  0  0  0  0  0  0  0  0
    1.8517    3.0020    2.9190 C   0  0  1  0  0  0  0  0  0  0  0  0
    3.0019    3.3303    3.6800 O   0  0  0  0  0  0  0  0  0  0  0  0
    4.8994   -2.5511    1.6990 C   0  0  1  0  0  0  0  0  0  0  0  0
    3.8744   -3.6893    1.7113 C   0  0  0  0  0  0  0  0  0  0  0  0
    3.2597   -4.0651    0.5675 C   0  0  0  0  0  0  0  0  0  0  0  0
    2.2552   -5.1135    0.5839 C   0  0  0  0  0  0  0  0  0  0  0  0
    2.1740   -5.9296    1.6486 C   0  0  0  0  0  0  0  0  0  0  0  0
    1.1252   -6.8872    1.9188 C   0  0  0  0  0  0  0  0  0  0  0  0
    0.2288   -7.2268    1.1415 O   0  0  0  0  0  0  0  0  0  0  0  0
    1.2635   -7.2780    3.1948 O   0  0  0  0  0  0  0  0  0  0  0  0
    2.2208   -6.5155    3.9288 C   0  0  0  0  0  0  0  0  0  0  0  0
    3.0765   -5.8562    2.8301 C   0  0  2  0  0  0  0  0  0  0  0  0
    3.5820   -4.4053    3.0489 C   0  0  1  0  0  0  0  0  0  0  0  0
    4.7242   -4.4526    3.8769 O   0  0  0  0  0  0  0  0  0  0  0  0
    5.6251   -4.2375   -3.1244 H   0  0  0  0  0  0  0  0  0  0  0  0
    5.0445   -2.6036   -2.8168 H   0  0  0  0  0  0  0  0  0  0  0  0
    3.9113   -3.8675   -3.3226 H   0  0  0  0  0  0  0  0  0  0  0  0
    2.6811   -3.4218   -1.3462 H   0  0  0  0  0  0  0  0  0  0  0  0
    7.0541   -1.3393    0.3174 H   0  0  0  0  0  0  0  0  0  0  0  0
    6.2140   -1.1710   -1.2324 H   0  0  0  0  0  0  0  0  0  0  0  0
    6.5459   -2.7752   -0.5532 H   0  0  0  0  0  0  0  0  0  0  0  0
    4.8954    0.5389    0.3520 H   0  0  0  0  0  0  0  0  0  0  0  0
    4.9183   -1.6641    3.7419 H   0  0  0  0  0  0  0  0  0  0  0  0
    2.4437   -0.4706    0.8295 H   0  0  0  0  0  0  0  0  0  0  0  0
    0.6135    2.0312    1.1201 H   0  0  0  0  0  0  0  0  0  0  0  0
    1.3840   -0.3955    3.6601 H   0  0  0  0  0  0  0  0  0  0  0  0
    2.4757    0.7420    4.4801 H   0  0  0  0  0  0  0  0  0  0  0  0
   -0.5506    0.8720    4.0494 H   0  0  0  0  0  0  0  0  0  0  0  0
    0.2634    0.5003    5.5542 H   0  0  0  0  0  0  0  0  0  0  0  0
   -0.5396    2.8617    5.4968 H   0  0  0  0  0  0  0  0  0  0  0  0
    1.1992    2.7652    5.7013 H   0  0  0  0  0  0  0  0  0  0  0  0
   -0.2918    3.3192    3.0778 H   0  0  0  0  0  0  0  0  0  0  0  0
    0.6430    4.4766    3.9836 H   0  0  0  0  0  0  0  0  0  0  0  0
    1.9122    3.5729    1.9951 H   0  0  0  0  0  0  0  0  0  0  0  0
    3.7687    3.1101    3.1650 H   0  0  0  0  0  0  0  0  0  0  0  0
    5.8938   -2.9548    1.9016 H   0  0  0  0  0  0  0  0  0  0  0  0
    1.5333   -5.1861   -0.2193 H   0  0  0  0  0  0  0  0  0  0  0  0
    1.6764   -5.7804    4.5245 H   0  0  0  0  0  0  0  0  0  0  0  0
    2.7981   -7.1445    4.6062 H   0  0  0  0  0  0  0  0  0  0  0  0
    3.9057   -6.5210    2.5870 H   0  0  0  0  0  0  0  0  0  0  0  0
    2.8140   -3.8249    3.5724 H   0  0  0  0  0  0  0  0  0  0  0  0
    5.3456   -5.0609    3.5014 H   0  0  0  0  0  0  0  0  0  0  0  0
  1  2  1  0
  1 33  1  0
  1 34  1  0
  1 35  1  0
  2  3  1  0
  3 23  1  0
  3  4  1  0
  3 36  1  6
  4  5  1  0
  5 21  1  0
  5  6  1  6
  5  7  1  0
  6 37  1  0
  6 38  1  0
  6 39  1  0
  7 11  1  0
  7  8  1  0
  7 40  1  6
  8  9  1  0
  9 10  1  0
  9 21  1  0
  9 41  1  1
 10 11  1  0
 11 12  1  0
 11 42  1  6
 13 12  1  6
 13 19  1  0
 13 14  1  0
 13 15  1  0
 14 43  1  0
 15 16  1  0
 15 44  1  0
 15 45  1  0
 16 17  1  0
 16 46  1  0
 16 47  1  0
 17 18  1  0
 17 48  1  0
 17 49  1  0
 18 19  1  0
 18 50  1  0
 18 51  1  0
 19 20  1  0
 19 52  1  6
 20 53  1  0
 21 22  1  0
 21 54  1  1
 22 31  1  0
 22 23  2  0
 23 24  1  0
 24 25  2  0
 24 55  1  0
 25 30  1  0
 25 26  1  0
 26 27  2  0
 26 28  1  0
 28 29  1  0
 29 30  1  0
 29 56  1  0
 29 57  1  0
 30 31  1  0
 30 58  1  6
 31 32  1  0
 31 59  1  1
 32 60  1  0
M  END
>  <i_m_ct_stereo_status>  (66) 
1

>  <s_m_source_file>  (66) 
/var/tmp/pbs.5076255.sched01/tmpcyubysk0/0_f5co88n.sdf

>  <i_m_source_file_index>  (66) 
26

>  <i_lp_mmshare_version>  (66) 
48012

>  <i_f3d_flags>  (66) 
0

>  <s_epik_input>  (66) 
Tz1DMU9bQ0gyXVtDQEhdKFtDQEhdMltPSF0pQzE9W0NIXUMoW0NAQEhdKE8zKU9bQ0gzXSk9QzJbQ0BASF00W0NAQEhdKE9bQ0BIXTVbQ0BdMzRbQ0gzXSlPW0NASF01T1tDQEBdNihbT0hdKVtDSDJdW0NIMl1bQ0gyXVtDSDJdW0NASF02W09IXQ==

>  <s_epik_cmdline>  (66) 
J2VwaWtfcHl0aG9uJywgJy1waHQnLCAnMi4wJywgJy1waCcsICc3LjAnLCAnLXRuJywgJzgnLCAnLW1hJywgJzIwMCcsICctaW1hZScsICc8aW5maWxlLm1hZT4nLCAnLW9tYWUnLCAnPG91dGZpbGUubWFlPic=

>  <r_epik_Ionization_Penalty>  (66) 
0.0434215

>  <r_epik_Ionization_Penalty_Charging>  (66) 
0

>  <r_epik_Ionization_Penalty_Neutral>  (66) 
0.0434215

>  <r_epik_State_Penalty>  (66) 
0.0367384

>  <r_epik_Charging_Adjusted_Penalty>  (66) 
0.0367384

>  <i_epik_Tot_Q>  (66) 
0

>  <i_epik_Tot_abs_Q>  (66) 
0

>  <s_epik_Chemistry_Notes>  (66) 
This compound has an ester and may undergo hydrolysis at high or low pH. This compound contains an acetal/aminal-like group ( X-CH(R)-Y where X, Y are N, S, or O) that may be acid/base labile, releasing an aldehyde.

>  <s_lp_Force_Field>  (66) 
OPLS3e

>  <r_lp_Energy>  (66) 
28.583

>  <b_lp_Chiralities_Consistent>  (66) 
1

>  <s_lp_Variant>  (66) 
19:0-1

>  <s_i_glide_gridfile>  (66) 
pfpi4k_grid

>  <i_i_glide_lignum>  (66) 
26

>  <i_i_glide_rotatable_bonds>  (66) 
6

>  <r_i_docking_score>  (66) 
-2.62518

>  <r_i_glide_ligand_efficiency>  (66) 
-0.082037

>  <r_i_glide_ligand_efficiency_sa>  (66) 
-0.260451

>  <r_i_glide_ligand_efficiency_ln>  (66) 
-0.58785

>  <r_i_glide_gscore>  (66) 
-2.62518

>  <r_i_glide_lipo>  (66) 
-0.242168

>  <r_i_glide_hbond>  (66) 
-0.114533

>  <r_i_glide_metal>  (66) 
-0

>  <r_i_glide_rewards>  (66) 
-0.480214

>  <r_i_glide_evdw>  (66) 
-28.8532

>  <r_i_glide_ecoul>  (66) 
-3.17167

>  <r_i_glide_erotb>  (66) 
0.196033

>  <r_i_glide_esite>  (66) 
-0.0658919

>  <r_i_glide_emodel>  (66) 
-36.6958

>  <r_i_glide_energy>  (66) 
-32.0249

>  <r_i_glide_einternal>  (66) 
1.19901

>  <r_i_glide_intrahb_reward>  (66) 
-0

>  <i_i_glide_confnum>  (66) 
2

>  <i_i_glide_posenum>  (66) 
2

>  <r_i_glide_eff_state_penalty>  (66) 
0

>  <ligand_id>  (66) 
19

>  <original_smiles>  (66) 
COC1OC2(C)C3OC(OC3OC3(O)CCCCC3O)C2C2=C1C=C1C(=O)OCC1C2O

>  <smiles>  (66) 
[H]OC1([H])C2=C(C([H])=C3C(=O)OC([H])([H])C31[H])C([H])(OC([H])([H])[H])OC1(C([H])([H])[H])C3([H])OC([H])(OC3([H])OC3(O[H])C([H])([H])C([H])([H])C([H])([H])C([H])([H])C3([H])O[H])C21[H]

$$$$
19:1:0
     RDKit          3D

 59 64  0  0  1  0  0  0  0  0999 V2000
    5.3731   -5.8869    6.2063 C   0  0  0  0  0  0  0  0  0  0  0  0
    5.6244   -5.0504    5.0809 O   0  0  0  0  0  0  0  0  0  0  0  0
    5.0574   -5.5090    3.8962 C   0  0  2  0  0  0  0  0  0  0  0  0
    5.6563   -6.7133    3.5075 O   0  0  0  0  0  0  0  0  0  0  0  0
    5.5952   -7.1947    2.1636 C   0  0  1  0  0  0  0  0  0  0  0  0
    6.9135   -7.9787    2.0791 C   0  0  0  0  0  0  0  0  0  0  0  0
    4.4168   -8.1259    1.7926 C   0  0  2  0  0  0  0  0  0  0  0  0
    4.5437   -8.0986    0.3802 O   0  0  0  0  0  0  0  0  0  0  0  0
    4.3125   -6.7389    0.2701 C   0  0  1  0  0  0  0  0  0  0  0  0
    3.1203   -6.5001    0.9667 O   0  0  0  0  0  0  0  0  0  0  0  0
    3.0662   -7.4463    1.9700 C   0  0  1  0  0  0  0  0  0  0  0  0
    2.0761   -8.4111    1.7125 O   0  0  0  0  0  0  0  0  0  0  0  0
    0.9160   -8.4696    2.5029 C   0  0  1  0  0  0  0  0  0  0  0  0
    0.4508   -9.8047    2.4714 O   0  0  0  0  0  0  0  0  0  0  0  0
    1.2051   -8.0724    3.9851 C   0  0  0  0  0  0  0  0  0  0  0  0
   -0.0543   -8.1304    4.8491 C   0  0  0  0  0  0  0  0  0  0  0  0
   -1.1380   -7.2179    4.2534 C   0  0  0  0  0  0  0  0  0  0  0  0
   -1.4553   -7.6438    2.8132 C   0  0  0  0  0  0  0  0  0  0  0  0
   -0.2173   -7.5933    1.8885 C   0  0  1  0  0  0  0  0  0  0  0  0
    0.1628   -6.2580    1.7756 O   0  0  0  0  0  0  0  0  0  0  0  0
    5.4931   -6.1377    1.0510 C   0  0  1  0  0  0  0  0  0  0  0  0
    5.3193   -4.6830    1.5347 C   0  0  0  0  0  0  0  0  0  0  0  0
    5.1158   -4.4127    2.8466 C   0  0  0  0  0  0  0  0  0  0  0  0
    4.9309   -3.0386    3.3191 C   0  0  0  0  0  0  0  0  0  0  0  0
    5.2208   -2.0387    2.4837 C   0  0  0  0  0  0  0  0  0  0  0  0
    4.9407   -0.6367    2.7110 C   0  0  0  0  0  0  0  0  0  0  0  0
    4.5943   -0.1140    3.7660 O   0  0  0  0  0  0  0  0  0  0  0  0
    5.1283   -0.0086    1.5426 O   0  0  0  0  0  0  0  0  0  0  0  0
    5.3771   -0.8796    0.4411 C   0  0  0  0  0  0  0  0  0  0  0  0
    5.8030   -2.1912    1.1196 C   0  0  2  0  0  0  0  0  0  0  0  0
    5.4448   -3.5613    0.4447 C   0  0  1  0  0  0  0  0  0  0  0  0
    6.4550   -3.7895   -0.3540 O   0  0  0  0  0  0  0  0  0  0  0  0
    5.8747   -5.4671    7.0755 H   0  0  0  0  0  0  0  0  0  0  0  0
    5.7595   -6.8967    6.0620 H   0  0  0  0  0  0  0  0  0  0  0  0
    4.3087   -5.9506    6.4370 H   0  0  0  0  0  0  0  0  0  0  0  0
    4.0070   -5.6524    4.1136 H   0  0  0  0  0  0  0  0  0  0  0  0
    7.0364   -8.4535    1.1071 H   0  0  0  0  0  0  0  0  0  0  0  0
    6.9492   -8.7664    2.8337 H   0  0  0  0  0  0  0  0  0  0  0  0
    7.7696   -7.3235    2.2422 H   0  0  0  0  0  0  0  0  0  0  0  0
    4.4231   -9.1035    2.2724 H   0  0  0  0  0  0  0  0  0  0  0  0
    4.2331   -6.3906   -0.7539 H   0  0  0  0  0  0  0  0  0  0  0  0
    2.9884   -6.9544    2.9214 H   0  0  0  0  0  0  0  0  0  0  0  0
    0.2573  -10.0315    1.5736 H   0  0  0  0  0  0  0  0  0  0  0  0
    1.9953   -8.7083    4.3914 H   0  0  0  0  0  0  0  0  0  0  0  0
    1.5293   -7.0386    4.0409 H   0  0  0  0  0  0  0  0  0  0  0  0
   -0.4212   -9.1599    4.9749 H   0  0  0  0  0  0  0  0  0  0  0  0
    0.2041   -7.7624    5.8411 H   0  0  0  0  0  0  0  0  0  0  0  0
   -2.0478   -7.2651    4.8475 H   0  0  0  0  0  0  0  0  0  0  0  0
   -0.8217   -6.1713    4.2744 H   0  0  0  0  0  0  0  0  0  0  0  0
   -1.8845   -8.6430    2.8215 H   0  0  0  0  0  0  0  0  0  0  0  0
   -2.2365   -6.9996    2.4239 H   0  0  0  0  0  0  0  0  0  0  0  0
   -0.4786   -7.9545    0.8902 H   0  0  0  0  0  0  0  0  0  0  0  0
    0.8178   -6.0848    2.4386 H   0  0  0  0  0  0  0  0  0  0  0  0
    6.3724   -6.2294    0.4157 H   0  0  0  0  0  0  0  0  0  0  0  0
    4.4868   -2.8521    4.2798 H   0  0  0  0  0  0  0  0  0  0  0  0
    4.4426   -0.9634   -0.1137 H   0  0  0  0  0  0  0  0  0  0  0  0
    6.1468   -0.4632   -0.2116 H   0  0  0  0  0  0  0  0  0  0  0  0
    6.8807   -2.1358    1.2835 H   0  0  0  0  0  0  0  0  0  0  0  0
    4.4095   -3.4511    0.0855 H   0  0  0  0  0  0  0  0  0  0  0  0
  1  2  1  0
  1 33  1  0
  1 34  1  0
  1 35  1  0
  2  3  1  0
  3 23  1  0
  3  4  1  0
  3 36  1  1
  4  5  1  0
  5 21  1  0
  5  6  1  6
  5  7  1  0
  6 37  1  0
  6 38  1  0
  6 39  1  0
  7 11  1  0
  7  8  1  0
  7 40  1  1
  8  9  1  0
  9 10  1  0
  9 21  1  0
  9 41  1  6
 10 11  1  0
 11 12  1  0
 11 42  1  1
 13 12  1  6
 13 19  1  0
 13 14  1  0
 13 15  1  0
 14 43  1  0
 15 16  1  0
 15 44  1  0
 15 45  1  0
 16 17  1  0
 16 46  1  0
 16 47  1  0
 17 18  1  0
 17 48  1  0
 17 49  1  0
 18 19  1  0
 18 50  1  0
 18 51  1  0
 19 20  1  0
 19 52  1  6
 20 53  1  0
 21 22  1  0
 21 54  1  6
 22 31  1  0
 22 23  2  0
 23 24  1  0
 24 25  2  0
 24 55  1  0
 25 30  1  0
 25 26  1  0
 26 27  2  0
 26 28  1  0
 28 29  1  0
 29 30  1  0
 29 56  1  0
 29 57  1  0
 30 31  1  0
 30 58  1  1
 31 32  1  0
 31 59  1  6
M  CHG  1  32  -1
M  END
>  <i_m_ct_stereo_status>  (67) 
1

>  <s_m_source_file>  (67) 
/var/tmp/pbs.5076255.sched01/tmpcyubysk0/0_f5co88n.sdf

>  <i_m_source_file_index>  (67) 
27

>  <i_lp_mmshare_version>  (67) 
48012

>  <i_f3d_flags>  (67) 
0

>  <s_epik_input>  (67) 
Tz1DMU9bQ0gyXVtDQEhdKFtDQEhdMltPSF0pQzE9W0NIXUMoW0NAQEhdKE8zKU9bQ0gzXSk9QzJbQ0BASF00W0NAQEhdKE9bQ0BIXTVbQ0BdMzRbQ0gzXSlPW0NASF01T1tDQEBdNihbT0hdKVtDSDJdW0NIMl1bQ0gyXVtDSDJdW0NASF02W09IXQ==

>  <s_epik_cmdline>  (67) 
J2VwaWtfcHl0aG9uJywgJy1waHQnLCAnMi4wJywgJy1waCcsICc3LjAnLCAnLXRuJywgJzgnLCAnLW1hJywgJzIwMCcsICctaW1hZScsICc8aW5maWxlLm1hZT4nLCAnLW9tYWUnLCAnPG91dGZpbGUubWFlPic=

>  <r_epik_Ionization_Penalty>  (67) 
1.56997

>  <r_epik_Ionization_Penalty_Charging>  (67) 
1.56997

>  <r_epik_Ionization_Penalty_Neutral>  (67) 
1.32038e-07

>  <r_epik_State_Penalty>  (67) 
1.66568

>  <r_epik_Charging_Adjusted_Penalty>  (67) 
3.23565

>  <i_epik_Tot_Q>  (67) 
-1

>  <i_epik_Tot_abs_Q>  (67) 
1

>  <s_epik_Chemistry_Notes>  (67) 
This compound has an ester and may undergo hydrolysis at high or low pH. This compound contains an acetal/aminal-like group ( X-CH(R)-Y where X, Y are N, S, or O) that may be acid/base labile, releasing an aldehyde.

>  <s_lp_Force_Field>  (67) 
OPLS3e

>  <r_lp_Energy>  (67) 
42.0359

>  <b_lp_Chiralities_Consistent>  (67) 
1

>  <s_lp_Variant>  (67) 
19:0-2

>  <s_i_glide_gridfile>  (67) 
pfpi4k_grid

>  <i_i_glide_lignum>  (67) 
27

>  <i_i_glide_rotatable_bonds>  (67) 
5

>  <r_i_docking_score>  (67) 
-3.98448

>  <r_i_glide_ligand_efficiency>  (67) 
-0.124515

>  <r_i_glide_ligand_efficiency_sa>  (67) 
-0.39531

>  <r_i_glide_ligand_efficiency_ln>  (67) 
-0.892233

>  <r_i_glide_gscore>  (67) 
-3.98448

>  <r_i_glide_lipo>  (67) 
-0.654143

>  <r_i_glide_hbond>  (67) 
-0.193009

>  <r_i_glide_metal>  (67) 
-0

>  <r_i_glide_rewards>  (67) 
-0.695015

>  <r_i_glide_evdw>  (67) 
-26.834

>  <r_i_glide_ecoul>  (67) 
-8.49105

>  <r_i_glide_erotb>  (67) 
0.19683

>  <r_i_glide_esite>  (67) 
-0.0237831

>  <r_i_glide_emodel>  (67) 
-35.3312

>  <r_i_glide_energy>  (67) 
-35.325

>  <r_i_glide_einternal>  (67) 
15.9436

>  <r_i_glide_intrahb_reward>  (67) 
-0

>  <i_i_glide_confnum>  (67) 
5

>  <i_i_glide_posenum>  (67) 
33

>  <r_i_glide_eff_state_penalty>  (67) 
0

>  <ligand_id>  (67) 
19

>  <original_smiles>  (67) 
COC1OC2(C)C3OC(OC3OC3(O)CCCCC3O)C2C2=C1C=C1C(=O)OCC1C2O

>  <smiles>  (67) 
[H]OC1([H])C([H])([H])C([H])([H])C([H])([H])C([H])([H])C1(O[H])OC1([H])OC2([H])OC1([H])C1(C([H])([H])[H])OC([H])(OC([H])([H])[H])C3=C(C([H])([O-])C4([H])C(=C3[H])C(=O)OC4([H])[H])C21[H]

$$$$
19:1:1
     RDKit          3D

 59 64  0  0  1  0  0  0  0  0999 V2000
    7.0296   -5.7173    5.2932 C   0  0  0  0  0  0  0  0  0  0  0  0
    5.6154   -5.6744    5.2804 O   0  0  0  0  0  0  0  0  0  0  0  0
    5.0387   -5.9730    4.0454 C   0  0  2  0  0  0  0  0  0  0  0  0
    5.5100   -7.2048    3.5785 O   0  0  0  0  0  0  0  0  0  0  0  0
    5.4898   -7.5541    2.1956 C   0  0  1  0  0  0  0  0  0  0  0  0
    6.7851   -8.3720    2.0705 C   0  0  0  0  0  0  0  0  0  0  0  0
    4.2849   -8.4075    1.7650 C   0  0  2  0  0  0  0  0  0  0  0  0
    4.4116   -8.2754    0.3607 O   0  0  0  0  0  0  0  0  0  0  0  0
    4.2369   -6.9002    0.3497 C   0  0  1  0  0  0  0  0  0  0  0  0
    3.0558   -6.6656    1.0745 O   0  0  0  0  0  0  0  0  0  0  0  0
    2.9646   -7.6809    2.0138 C   0  0  1  0  0  0  0  0  0  0  0  0
    1.9253   -8.5722    1.6783 O   0  0  0  0  0  0  0  0  0  0  0  0
    0.7759   -8.6740    2.4895 C   0  0  1  0  0  0  0  0  0  0  0  0
    0.3820  -10.0285    2.4850 O   0  0  0  0  0  0  0  0  0  0  0  0
    1.0604   -8.2478    3.9605 C   0  0  0  0  0  0  0  0  0  0  0  0
   -0.1867   -8.3446    4.8321 C   0  0  0  0  0  0  0  0  0  0  0  0
   -1.3072   -7.4838    4.2386 C   0  0  0  0  0  0  0  0  0  0  0  0
   -1.6211   -7.9294    2.8016 C   0  0  0  0  0  0  0  0  0  0  0  0
   -0.3859   -7.8195    1.8921 C   0  0  1  0  0  0  0  0  0  0  0  0
    0.0080   -6.4800    1.7254 O   0  0  0  0  0  0  0  0  0  0  0  0
    5.4375   -6.4037    1.1707 C   0  0  1  0  0  0  0  0  0  0  0  0
    5.3262   -4.9859    1.7431 C   0  0  0  0  0  0  0  0  0  0  0  0
    5.1357   -4.7950    3.0999 C   0  0  0  0  0  0  0  0  0  0  0  0
    4.9933   -3.4550    3.6468 C   0  0  0  0  0  0  0  0  0  0  0  0
    5.3109   -2.4015    2.8926 C   0  0  0  0  0  0  0  0  0  0  0  0
    5.0952   -1.0085    3.2213 C   0  0  0  0  0  0  0  0  0  0  0  0
    4.7641   -0.5497    4.3139 O   0  0  0  0  0  0  0  0  0  0  0  0
    5.3310   -0.2975    2.1060 O   0  0  0  0  0  0  0  0  0  0  0  0
    5.5321   -1.1082    0.9465 C   0  0  0  0  0  0  0  0  0  0  0  0
    5.8969   -2.4834    1.5198 C   0  0  2  0  0  0  0  0  0  0  0  0
    5.4929   -3.7911    0.7495 C   0  0  1  0  0  0  0  0  0  0  0  0
    6.4889   -4.0011   -0.0636 O   0  0  0  0  0  0  0  0  0  0  0  0
    7.4060   -5.4110    6.2685 H   0  0  0  0  0  0  0  0  0  0  0  0
    7.4471   -5.0560    4.5394 H   0  0  0  0  0  0  0  0  0  0  0  0
    7.3959   -6.7244    5.1013 H   0  0  0  0  0  0  0  0  0  0  0  0
    3.9907   -6.0636    4.2907 H   0  0  0  0  0  0  0  0  0  0  0  0
    6.8988   -8.7802    1.0662 H   0  0  0  0  0  0  0  0  0  0  0  0
    6.7925   -9.2086    2.7654 H   0  0  0  0  0  0  0  0  0  0  0  0
    7.6671   -7.7588    2.2816 H   0  0  0  0  0  0  0  0  0  0  0  0
    4.2562   -9.4131    2.1793 H   0  0  0  0  0  0  0  0  0  0  0  0
    4.1871   -6.4909   -0.6586 H   0  0  0  0  0  0  0  0  0  0  0  0
    2.9236   -7.2651    3.0003 H   0  0  0  0  0  0  0  0  0  0  0  0
    0.2183  -10.2755    1.5784 H   0  0  0  0  0  0  0  0  0  0  0  0
    1.8731   -8.8459    4.3785 H   0  0  0  0  0  0  0  0  0  0  0  0
    1.3492   -7.2070    3.9697 H   0  0  0  0  0  0  0  0  0  0  0  0
   -0.5101   -9.3881    4.9747 H   0  0  0  0  0  0  0  0  0  0  0  0
    0.0622   -7.9585    5.8172 H   0  0  0  0  0  0  0  0  0  0  0  0
   -2.1851   -7.5628    4.8610 H   0  0  0  0  0  0  0  0  0  0  0  0
   -1.0313   -6.4253    4.2366 H   0  0  0  0  0  0  0  0  0  0  0  0
   -2.0041   -8.9537    2.8212 H   0  0  0  0  0  0  0  0  0  0  0  0
   -2.4423   -7.3300    2.4071 H   0  0  0  0  0  0  0  0  0  0  0  0
   -0.6423   -8.1362    0.8817 H   0  0  0  0  0  0  0  0  0  0  0  0
    0.9138   -6.5254    1.4410 H   0  0  0  0  0  0  0  0  0  0  0  0
    6.3154   -6.4884    0.5313 H   0  0  0  0  0  0  0  0  0  0  0  0
    4.5572   -3.3249    4.6290 H   0  0  0  0  0  0  0  0  0  0  0  0
    4.5961   -1.1217    0.3871 H   0  0  0  0  0  0  0  0  0  0  0  0
    6.3212   -0.6863    0.3141 H   0  0  0  0  0  0  0  0  0  0  0  0
    6.9770   -2.4911    1.6780 H   0  0  0  0  0  0  0  0  0  0  0  0
    4.4552   -3.6188    0.4037 H   0  0  0  0  0  0  0  0  0  0  0  0
  1  2  1  0
  1 33  1  0
  1 34  1  0
  1 35  1  0
  2  3  1  0
  3 23  1  0
  3  4  1  0
  3 36  1  1
  4  5  1  0
  5 21  1  0
  5  6  1  6
  5  7  1  0
  6 37  1  0
  6 38  1  0
  6 39  1  0
  7 11  1  0
  7  8  1  0
  7 40  1  6
  8  9  1  0
  9 10  1  0
  9 21  1  0
  9 41  1  6
 10 11  1  0
 11 12  1  0
 11 42  1  1
 13 12  1  6
 13 19  1  0
 13 14  1  0
 13 15  1  0
 14 43  1  0
 15 16  1  0
 15 44  1  0
 15 45  1  0
 16 17  1  0
 16 46  1  0
 16 47  1  0
 17 18  1  0
 17 48  1  0
 17 49  1  0
 18 19  1  0
 18 50  1  0
 18 51  1  0
 19 20  1  0
 19 52  1  6
 20 53  1  0
 21 22  1  0
 21 54  1  6
 22 31  1  0
 22 23  2  0
 23 24  1  0
 24 25  2  0
 24 55  1  0
 25 30  1  0
 25 26  1  0
 26 27  2  0
 26 28  1  0
 28 29  1  0
 29 30  1  0
 29 56  1  0
 29 57  1  0
 30 31  1  0
 30 58  1  1
 31 32  1  0
 31 59  1  6
M  CHG  1  32  -1
M  END
>  <i_m_ct_stereo_status>  (68) 
1

>  <s_m_source_file>  (68) 
/var/tmp/pbs.5076255.sched01/tmpcyubysk0/0_f5co88n.sdf

>  <i_m_source_file_index>  (68) 
27

>  <i_lp_mmshare_version>  (68) 
48012

>  <i_f3d_flags>  (68) 
0

>  <s_epik_input>  (68) 
Tz1DMU9bQ0gyXVtDQEhdKFtDQEhdMltPSF0pQzE9W0NIXUMoW0NAQEhdKE8zKU9bQ0gzXSk9QzJbQ0BASF00W0NAQEhdKE9bQ0BIXTVbQ0BdMzRbQ0gzXSlPW0NASF01T1tDQEBdNihbT0hdKVtDSDJdW0NIMl1bQ0gyXVtDSDJdW0NASF02W09IXQ==

>  <s_epik_cmdline>  (68) 
J2VwaWtfcHl0aG9uJywgJy1waHQnLCAnMi4wJywgJy1waCcsICc3LjAnLCAnLXRuJywgJzgnLCAnLW1hJywgJzIwMCcsICctaW1hZScsICc8aW5maWxlLm1hZT4nLCAnLW9tYWUnLCAnPG91dGZpbGUubWFlPic=

>  <r_epik_Ionization_Penalty>  (68) 
1.56997

>  <r_epik_Ionization_Penalty_Charging>  (68) 
1.56997

>  <r_epik_Ionization_Penalty_Neutral>  (68) 
1.32038e-07

>  <r_epik_State_Penalty>  (68) 
1.66568

>  <r_epik_Charging_Adjusted_Penalty>  (68) 
3.23565

>  <i_epik_Tot_Q>  (68) 
-1

>  <i_epik_Tot_abs_Q>  (68) 
1

>  <s_epik_Chemistry_Notes>  (68) 
This compound has an ester and may undergo hydrolysis at high or low pH. This compound contains an acetal/aminal-like group ( X-CH(R)-Y where X, Y are N, S, or O) that may be acid/base labile, releasing an aldehyde.

>  <s_lp_Force_Field>  (68) 
OPLS3e

>  <r_lp_Energy>  (68) 
42.0359

>  <b_lp_Chiralities_Consistent>  (68) 
1

>  <s_lp_Variant>  (68) 
19:0-2

>  <s_i_glide_gridfile>  (68) 
pfpi4k_grid

>  <i_i_glide_lignum>  (68) 
27

>  <i_i_glide_rotatable_bonds>  (68) 
5

>  <r_i_docking_score>  (68) 
-3.75031

>  <r_i_glide_ligand_efficiency>  (68) 
-0.117197

>  <r_i_glide_ligand_efficiency_sa>  (68) 
-0.372078

>  <r_i_glide_ligand_efficiency_ln>  (68) 
-0.839797

>  <r_i_glide_gscore>  (68) 
-3.75031

>  <r_i_glide_lipo>  (68) 
-0.633193

>  <r_i_glide_hbond>  (68) 
-0.157357

>  <r_i_glide_metal>  (68) 
-0

>  <r_i_glide_rewards>  (68) 
-0.699745

>  <r_i_glide_evdw>  (68) 
-26.5613

>  <r_i_glide_ecoul>  (68) 
-7.38476

>  <r_i_glide_erotb>  (68) 
0.19683

>  <r_i_glide_esite>  (68) 
-0.0210669

>  <r_i_glide_emodel>  (68) 
-33.2412

>  <r_i_glide_energy>  (68) 
-33.946

>  <r_i_glide_einternal>  (68) 
14.713

>  <r_i_glide_intrahb_reward>  (68) 
-0

>  <i_i_glide_confnum>  (68) 
4

>  <i_i_glide_posenum>  (68) 
5

>  <r_i_glide_eff_state_penalty>  (68) 
0

>  <ligand_id>  (68) 
19

>  <original_smiles>  (68) 
COC1OC2(C)C3OC(OC3OC3(O)CCCCC3O)C2C2=C1C=C1C(=O)OCC1C2O

>  <smiles>  (68) 
[H]OC1([H])C([H])([H])C([H])([H])C([H])([H])C([H])([H])C1(O[H])OC1([H])OC2([H])OC1([H])C1(C([H])([H])[H])OC([H])(OC([H])([H])[H])C3=C(C([H])([O-])C4([H])C(=C3[H])C(=O)OC4([H])[H])C21[H]

$$$$
19:1:2
     RDKit          3D

 59 64  0  0  1  0  0  0  0  0999 V2000
   -1.1763   -3.9591    9.3936 C   0  0  0  0  0  0  0  0  0  0  0  0
   -1.6475   -4.6427    8.2361 O   0  0  0  0  0  0  0  0  0  0  0  0
   -0.6383   -5.1532    7.4151 C   0  0  2  0  0  0  0  0  0  0  0  0
    0.2070   -5.9769    8.1590 O   0  0  0  0  0  0  0  0  0  0  0  0
    1.5426   -6.2526    7.7453 C   0  0  1  0  0  0  0  0  0  0  0  0
    2.2713   -6.3697    9.0967 C   0  0  0  0  0  0  0  0  0  0  0  0
    1.7146   -7.5630    6.9281 C   0  0  2  0  0  0  0  0  0  0  0  0
    3.0135   -7.3322    6.4373 O   0  0  0  0  0  0  0  0  0  0  0  0
    2.6873   -6.1776    5.7336 C   0  0  1  0  0  0  0  0  0  0  0  0
    1.5661   -6.4894    4.9628 O   0  0  0  0  0  0  0  0  0  0  0  0
    0.9372   -7.5496    5.6102 C   0  0  1  0  0  0  0  0  0  0  0  0
    1.1778   -8.7813    4.9730 O   0  0  0  0  0  0  0  0  0  0  0  0
    0.4450   -9.0422    3.7934 C   0  0  1  0  0  0  0  0  0  0  0  0
   -0.9643   -9.0318    3.9920 O   0  0  0  0  0  0  0  0  0  0  0  0
    0.7813   -8.0071    2.6796 C   0  0  0  0  0  0  0  0  0  0  0  0
    2.2862   -8.0568    2.3366 C   0  0  0  0  0  0  0  0  0  0  0  0
    2.6868   -9.4473    1.8338 C   0  0  0  0  0  0  0  0  0  0  0  0
    2.3500  -10.5061    2.8938 C   0  0  0  0  0  0  0  0  0  0  0  0
    0.8563  -10.4629    3.2969 C   0  0  1  0  0  0  0  0  0  0  0  0
    0.6154  -11.4763    4.2613 O   0  0  0  0  0  0  0  0  0  0  0  0
    2.2428   -5.2128    6.8441 C   0  0  1  0  0  0  0  0  0  0  0  0
    1.3677   -4.0368    6.3707 C   0  0  0  0  0  0  0  0  0  0  0  0
    0.0317   -4.0297    6.6382 C   0  0  0  0  0  0  0  0  0  0  0  0
   -0.8286   -2.9417    6.1860 C   0  0  0  0  0  0  0  0  0  0  0  0
   -0.2467   -1.8192    5.7311 C   0  0  0  0  0  0  0  0  0  0  0  0
   -0.9363   -0.7091    5.0997 C   0  0  0  0  0  0  0  0  0  0  0  0
   -2.1534   -0.5233    5.0821 O   0  0  0  0  0  0  0  0  0  0  0  0
    0.0108    0.0808    4.5570 O   0  0  0  0  0  0  0  0  0  0  0  0
    1.3276   -0.4869    4.6074 C   0  0  0  0  0  0  0  0  0  0  0  0
    1.2235   -1.5594    5.7087 C   0  0  2  0  0  0  0  0  0  0  0  0
    2.0757   -2.8688    5.6109 C   0  0  1  0  0  0  0  0  0  0  0  0
    3.2032   -2.5770    6.1897 O   0  0  0  0  0  0  0  0  0  0  0  0
   -2.0264   -3.5776    9.9593 H   0  0  0  0  0  0  0  0  0  0  0  0
   -0.5367   -3.1184    9.1235 H   0  0  0  0  0  0  0  0  0  0  0  0
   -0.6153   -4.6245   10.0507 H   0  0  0  0  0  0  0  0  0  0  0  0
   -1.1390   -5.7647    6.6690 H   0  0  0  0  0  0  0  0  0  0  0  0
    3.3190   -6.6330    8.9570 H   0  0  0  0  0  0  0  0  0  0  0  0
    1.8156   -7.1406    9.7170 H   0  0  0  0  0  0  0  0  0  0  0  0
    2.2307   -5.4249    9.6408 H   0  0  0  0  0  0  0  0  0  0  0  0
    1.5576   -8.4835    7.4948 H   0  0  0  0  0  0  0  0  0  0  0  0
    3.5108   -5.8156    5.1188 H   0  0  0  0  0  0  0  0  0  0  0  0
   -0.1292   -7.3953    5.7414 H   0  0  0  0  0  0  0  0  0  0  0  0
   -1.2359   -9.8007    4.4797 H   0  0  0  0  0  0  0  0  0  0  0  0
    0.1816   -8.2393    1.7984 H   0  0  0  0  0  0  0  0  0  0  0  0
    0.4694   -7.0048    2.9796 H   0  0  0  0  0  0  0  0  0  0  0  0
    2.5104   -7.3128    1.5739 H   0  0  0  0  0  0  0  0  0  0  0  0
    2.8997   -7.8008    3.2004 H   0  0  0  0  0  0  0  0  0  0  0  0
    2.1764   -9.6711    0.8963 H   0  0  0  0  0  0  0  0  0  0  0  0
    3.7537   -9.4793    1.6131 H   0  0  0  0  0  0  0  0  0  0  0  0
    2.5954  -11.4949    2.4944 H   0  0  0  0  0  0  0  0  0  0  0  0
    2.9811  -10.3721    3.7756 H   0  0  0  0  0  0  0  0  0  0  0  0
    0.2519  -10.6916    2.4197 H   0  0  0  0  0  0  0  0  0  0  0  0
   -0.2637  -11.3878    4.6168 H   0  0  0  0  0  0  0  0  0  0  0  0
    3.1439   -4.8524    7.3458 H   0  0  0  0  0  0  0  0  0  0  0  0
   -1.8981   -3.0650    6.1388 H   0  0  0  0  0  0  0  0  0  0  0  0
    1.5442   -0.9118    3.6262 H   0  0  0  0  0  0  0  0  0  0  0  0
    2.0744    0.2754    4.8321 H   0  0  0  0  0  0  0  0  0  0  0  0
    1.4127   -1.0673    6.6648 H   0  0  0  0  0  0  0  0  0  0  0  0
    2.0298   -3.1799    4.5643 H   0  0  0  0  0  0  0  0  0  0  0  0
  1  2  1  0
  1 33  1  0
  1 34  1  0
  1 35  1  0
  2  3  1  0
  3 23  1  0
  3  4  1  0
  3 36  1  6
  4  5  1  0
  5 21  1  0
  5  6  1  1
  5  7  1  0
  6 37  1  0
  6 38  1  0
  6 39  1  0
  7 11  1  0
  7  8  1  0
  7 40  1  1
  8  9  1  0
  9 10  1  0
  9 21  1  0
  9 41  1  6
 10 11  1  0
 11 12  1  0
 11 42  1  1
 13 12  1  1
 13 19  1  0
 13 14  1  0
 13 15  1  0
 14 43  1  0
 15 16  1  0
 15 44  1  0
 15 45  1  0
 16 17  1  0
 16 46  1  0
 16 47  1  0
 17 18  1  0
 17 48  1  0
 17 49  1  0
 18 19  1  0
 18 50  1  0
 18 51  1  0
 19 20  1  0
 19 52  1  6
 20 53  1  0
 21 22  1  0
 21 54  1  1
 22 31  1  0
 22 23  2  0
 23 24  1  0
 24 25  2  0
 24 55  1  0
 25 30  1  0
 25 26  1  0
 26 27  2  0
 26 28  1  0
 28 29  1  0
 29 30  1  0
 29 56  1  0
 29 57  1  0
 30 31  1  0
 30 58  1  1
 31 32  1  0
 31 59  1  6
M  CHG  1  32  -1
M  END
>  <i_m_ct_stereo_status>  (69) 
1

>  <s_m_source_file>  (69) 
/var/tmp/pbs.5076255.sched01/tmpcyubysk0/0_f5co88n.sdf

>  <i_m_source_file_index>  (69) 
27

>  <i_lp_mmshare_version>  (69) 
48012

>  <i_f3d_flags>  (69) 
0

>  <s_epik_input>  (69) 
Tz1DMU9bQ0gyXVtDQEhdKFtDQEhdMltPSF0pQzE9W0NIXUMoW0NAQEhdKE8zKU9bQ0gzXSk9QzJbQ0BASF00W0NAQEhdKE9bQ0BIXTVbQ0BdMzRbQ0gzXSlPW0NASF01T1tDQEBdNihbT0hdKVtDSDJdW0NIMl1bQ0gyXVtDSDJdW0NASF02W09IXQ==

>  <s_epik_cmdline>  (69) 
J2VwaWtfcHl0aG9uJywgJy1waHQnLCAnMi4wJywgJy1waCcsICc3LjAnLCAnLXRuJywgJzgnLCAnLW1hJywgJzIwMCcsICctaW1hZScsICc8aW5maWxlLm1hZT4nLCAnLW9tYWUnLCAnPG91dGZpbGUubWFlPic=

>  <r_epik_Ionization_Penalty>  (69) 
1.56997

>  <r_epik_Ionization_Penalty_Charging>  (69) 
1.56997

>  <r_epik_Ionization_Penalty_Neutral>  (69) 
1.32038e-07

>  <r_epik_State_Penalty>  (69) 
1.66568

>  <r_epik_Charging_Adjusted_Penalty>  (69) 
3.23565

>  <i_epik_Tot_Q>  (69) 
-1

>  <i_epik_Tot_abs_Q>  (69) 
1

>  <s_epik_Chemistry_Notes>  (69) 
This compound has an ester and may undergo hydrolysis at high or low pH. This compound contains an acetal/aminal-like group ( X-CH(R)-Y where X, Y are N, S, or O) that may be acid/base labile, releasing an aldehyde.

>  <s_lp_Force_Field>  (69) 
OPLS3e

>  <r_lp_Energy>  (69) 
42.0359

>  <b_lp_Chiralities_Consistent>  (69) 
1

>  <s_lp_Variant>  (69) 
19:0-2

>  <s_i_glide_gridfile>  (69) 
pfpi4k_grid

>  <i_i_glide_lignum>  (69) 
27

>  <i_i_glide_rotatable_bonds>  (69) 
5

>  <r_i_docking_score>  (69) 
-2.27894

>  <r_i_glide_ligand_efficiency>  (69) 
-0.0712168

>  <r_i_glide_ligand_efficiency_sa>  (69) 
-0.226099

>  <r_i_glide_ligand_efficiency_ln>  (69) 
-0.510316

>  <r_i_glide_gscore>  (69) 
-2.27894

>  <r_i_glide_lipo>  (69) 
-0.107135

>  <r_i_glide_hbond>  (69) 
0

>  <r_i_glide_metal>  (69) 
-0

>  <r_i_glide_rewards>  (69) 
-0.417924

>  <r_i_glide_evdw>  (69) 
-24.9496

>  <r_i_glide_ecoul>  (69) 
-4.17233

>  <r_i_glide_erotb>  (69) 
0.19683

>  <r_i_glide_esite>  (69) 
-0.0773772

>  <r_i_glide_emodel>  (69) 
-33.614

>  <r_i_glide_energy>  (69) 
-29.1219

>  <r_i_glide_einternal>  (69) 
0.708423

>  <r_i_glide_intrahb_reward>  (69) 
-0

>  <i_i_glide_confnum>  (69) 
6

>  <i_i_glide_posenum>  (69) 
1

>  <r_i_glide_eff_state_penalty>  (69) 
0

>  <ligand_id>  (69) 
19

>  <original_smiles>  (69) 
COC1OC2(C)C3OC(OC3OC3(O)CCCCC3O)C2C2=C1C=C1C(=O)OCC1C2O

>  <smiles>  (69) 
[H]OC1([H])C([H])([H])C([H])([H])C([H])([H])C([H])([H])C1(O[H])OC1([H])OC2([H])OC1([H])C1(C([H])([H])[H])OC([H])(OC([H])([H])[H])C3=C(C([H])([O-])C4([H])C(=C3[H])C(=O)OC4([H])[H])C21[H]

$$$$
20:0:0
     RDKit          3D

 26 28  0  0  1  0  0  0  0  0999 V2000
   -2.7131    3.2453    4.2743 C   0  0  0  0  0  0  0  0  0  0  0  0
   -1.2931    3.6665    4.0166 C   0  0  0  0  0  0  0  0  0  0  0  0
   -1.1925    4.9350    3.6869 N   0  0  0  0  0  0  0  0  0  0  0  0
    0.1090    5.2032    3.5464 N   0  0  0  0  0  0  0  0  0  0  0  0
    0.9098    4.0958    3.7075 C   0  0  0  0  0  0  0  0  0  0  0  0
    2.2588    4.0808    3.5737 N   0  0  0  0  0  0  0  0  0  0  0  0
    2.7359    2.8636    3.7887 C   0  0  0  0  0  0  0  0  0  0  0  0
    2.0676    1.7616    4.1362 N   0  0  0  0  0  0  0  0  0  0  0  0
    0.7111    1.7701    4.2802 C   0  0  0  0  0  0  0  0  0  0  0  0
    0.1463    0.4422    4.6682 C   0  0  0  0  0  0  0  0  0  0  0  0
   -1.2129    0.0655    4.8723 C   0  0  0  0  0  0  0  0  0  0  0  0
   -1.3585   -1.1897    5.2390 N   0  0  0  0  0  0  0  0  0  0  0  0
   -0.1098   -1.6883    5.2408 N   0  0  0  0  0  0  0  0  0  0  0  0
    0.0112   -3.0851    5.5806 C   0  0  0  0  0  0  0  0  0  0  0  0
    0.8401   -0.7289    4.9047 C   0  0  0  0  0  0  0  0  0  0  0  0
    0.0233    3.0222    4.0498 C   0  0  0  0  0  0  0  0  0  0  0  0
    0.4218    6.1131    3.2062 H   0  0  0  0  0  0  0  0  0  0  0  0
   -2.9046    2.2366    4.5420 H   0  0  0  0  0  0  0  0  0  0  0  0
   -3.3339    3.4491    3.3933 H   0  0  0  0  0  0  0  0  0  0  0  0
   -3.1076    3.7925    5.1278 H   0  0  0  0  0  0  0  0  0  0  0  0
    3.8187    2.7781    3.6989 H   0  0  0  0  0  0  0  0  0  0  0  0
   -2.1389    0.5812    4.7895 H   0  0  0  0  0  0  0  0  0  0  0  0
    1.0628   -3.3865    5.5611 H   0  0  0  0  0  0  0  0  0  0  0  0
   -0.5593   -3.6861    4.8649 H   0  0  0  0  0  0  0  0  0  0  0  0
   -0.4105   -3.2559    6.5770 H   0  0  0  0  0  0  0  0  0  0  0  0
    1.9040   -0.9581    4.8645 H   0  0  0  0  0  0  0  0  0  0  0  0
  1  2  1  0
  1 18  1  0
  1 19  1  0
  1 20  1  0
  2 16  1  0
  2  3  2  0
  3  4  1  0
  4 17  1  0
  4  5  1  0
  5 16  2  0
  5  6  1  0
  6  7  2  0
  7  8  1  0
  7 21  1  0
  8  9  2  0
  9 10  1  0
  9 16  1  0
 10 15  2  0
 10 11  1  0
 11 12  2  0
 11 22  1  0
 12 13  1  0
 13 14  1  0
 13 15  1  0
 14 23  1  0
 14 24  1  0
 14 25  1  0
 15 26  1  0
M  END
>  <i_m_ct_stereo_status>  (70) 
1

>  <s_m_source_file>  (70) 
/var/tmp/pbs.5076255.sched01/tmpcyubysk0/0_f5co88n.sdf

>  <i_m_source_file_index>  (70) 
28

>  <i_lp_mmshare_version>  (70) 
48012

>  <i_f3d_flags>  (70) 
0

>  <s_epik_input>  (70) 
W25IXTFuYyhbQ0gzXSljKGMxMiljKG5bY0hdbjIpLWMzW2NIXW5uKFtDSDNdKVtjSF0z

>  <s_epik_cmdline>  (70) 
J2VwaWtfcHl0aG9uJywgJy1waHQnLCAnMi4wJywgJy1waCcsICc3LjAnLCAnLXRuJywgJzgnLCAnLW1hJywgJzIwMCcsICctaW1hZScsICc8aW5maWxlLm1hZT4nLCAnLW9tYWUnLCAnPG91dGZpbGUubWFlPic=

>  <r_lp_tautomer_probability>  (70) 
1

>  <r_epik_Ionization_Penalty>  (70) 
1.81603e-05

>  <r_epik_Ionization_Penalty_Charging>  (70) 
0

>  <r_epik_Ionization_Penalty_Neutral>  (70) 
1.81603e-05

>  <r_epik_State_Penalty>  (70) 
-0

>  <r_epik_Charging_Adjusted_Penalty>  (70) 
0

>  <i_epik_Tot_Q>  (70) 
0

>  <i_epik_Tot_abs_Q>  (70) 
0

>  <s_lp_Force_Field>  (70) 
OPLS3e

>  <r_lp_Energy>  (70) 
24.0748

>  <b_lp_Chiralities_Consistent>  (70) 
1

>  <s_lp_Variant>  (70) 
20:0-1

>  <s_i_glide_gridfile>  (70) 
pfpi4k_grid

>  <i_i_glide_lignum>  (70) 
28

>  <i_i_glide_rotatable_bonds>  (70) 
1

>  <r_i_docking_score>  (70) 
-3.45468

>  <r_i_glide_ligand_efficiency>  (70) 
-0.215918

>  <r_i_glide_ligand_efficiency_sa>  (70) 
-0.544079

>  <r_i_glide_ligand_efficiency_ln>  (70) 
-0.915733

>  <r_i_glide_gscore>  (70) 
-3.45468

>  <r_i_glide_lipo>  (70) 
0

>  <r_i_glide_hbond>  (70) 
-0.151755

>  <r_i_glide_metal>  (70) 
-0

>  <r_i_glide_rewards>  (70) 
-1.94846

>  <r_i_glide_evdw>  (70) 
-15.0038

>  <r_i_glide_ecoul>  (70) 
-5.01205

>  <r_i_glide_erotb>  (70) 
0.363957

>  <r_i_glide_esite>  (70) 
-0.216432

>  <r_i_glide_emodel>  (70) 
-24.1193

>  <r_i_glide_energy>  (70) 
-20.0159

>  <r_i_glide_einternal>  (70) 
0.00142453

>  <r_i_glide_intrahb_reward>  (70) 
-0

>  <i_i_glide_confnum>  (70) 
1

>  <i_i_glide_posenum>  (70) 
15

>  <r_i_glide_eff_state_penalty>  (70) 
0

>  <ligand_id>  (70) 
20

>  <original_smiles>  (70) 
Cc1n[nH]c2ncnc(-c3cnn(C)c3)c12

>  <smiles>  (70) 
[H]c1nc(-c2c([H])nn(C([H])([H])[H])c2[H])c2c(C([H])([H])[H])nn([H])c2n1

$$$$
20:0:1
     RDKit          3D

 26 28  0  0  1  0  0  0  0  0999 V2000
    1.8963    2.2471    2.3944 C   0  0  0  0  0  0  0  0  0  0  0  0
    2.2127    0.7955    2.2812 C   0  0  0  0  0  0  0  0  0  0  0  0
    3.1875    0.4996    1.4498 N   0  0  0  0  0  0  0  0  0  0  0  0
    3.3090   -0.8370    1.4617 N   0  0  0  0  0  0  0  0  0  0  0  0
    2.4316   -1.4472    2.3170 C   0  0  0  0  0  0  0  0  0  0  0  0
    2.3468   -2.7818    2.5362 N   0  0  0  0  0  0  0  0  0  0  0  0
    1.4161   -3.0500    3.4384 C   0  0  0  0  0  0  0  0  0  0  0  0
    0.6151   -2.2041    4.0757 N   0  0  0  0  0  0  0  0  0  0  0  0
    0.6817   -0.8663    3.8505 C   0  0  0  0  0  0  0  0  0  0  0  0
   -0.3232   -0.1261    4.6556 C   0  0  0  0  0  0  0  0  0  0  0  0
   -1.3688   -0.7490    5.4027 C   0  0  0  0  0  0  0  0  0  0  0  0
   -2.1094    0.1181    6.0766 N   0  0  0  0  0  0  0  0  0  0  0  0
   -1.5831    1.3211    5.7643 N   0  0  0  0  0  0  0  0  0  0  0  0
   -2.1768    2.5188    6.3278 C   0  0  0  0  0  0  0  0  0  0  0  0
   -0.4908    1.2061    4.9240 C   0  0  0  0  0  0  0  0  0  0  0  0
    1.6647   -0.4012    2.9112 C   0  0  0  0  0  0  0  0  0  0  0  0
    3.9856   -1.3056    0.8784 H   0  0  0  0  0  0  0  0  0  0  0  0
    1.0832    2.4713    3.0577 H   0  0  0  0  0  0  0  0  0  0  0  0
    1.6070    2.6482    1.4246 H   0  0  0  0  0  0  0  0  0  0  0  0
    2.7718    2.8089    2.7262 H   0  0  0  0  0  0  0  0  0  0  0  0
    1.2725   -4.0964    3.6665 H   0  0  0  0  0  0  0  0  0  0  0  0
   -1.6018   -1.8001    5.5016 H   0  0  0  0  0  0  0  0  0  0  0  0
   -1.6387    3.4045    5.9905 H   0  0  0  0  0  0  0  0  0  0  0  0
   -2.1409    2.4814    7.4173 H   0  0  0  0  0  0  0  0  0  0  0  0
   -3.2195    2.6094    6.0198 H   0  0  0  0  0  0  0  0  0  0  0  0
    0.0417    2.0910    4.6483 H   0  0  0  0  0  0  0  0  0  0  0  0
  1  2  1  0
  1 18  1  0
  1 19  1  0
  1 20  1  0
  2 16  1  0
  2  3  2  0
  3  4  1  0
  4 17  1  0
  4  5  1  0
  5 16  2  0
  5  6  1  0
  6  7  2  0
  7  8  1  0
  7 21  1  0
  8  9  2  0
  9 10  1  0
  9 16  1  0
 10 15  2  0
 10 11  1  0
 11 12  2  0
 11 22  1  0
 12 13  1  0
 13 14  1  0
 13 15  1  0
 14 23  1  0
 14 24  1  0
 14 25  1  0
 15 26  1  0
M  END
>  <i_m_ct_stereo_status>  (71) 
1

>  <s_m_source_file>  (71) 
/var/tmp/pbs.5076255.sched01/tmpcyubysk0/0_f5co88n.sdf

>  <i_m_source_file_index>  (71) 
28

>  <i_lp_mmshare_version>  (71) 
48012

>  <i_f3d_flags>  (71) 
0

>  <s_epik_input>  (71) 
W25IXTFuYyhbQ0gzXSljKGMxMiljKG5bY0hdbjIpLWMzW2NIXW5uKFtDSDNdKVtjSF0z

>  <s_epik_cmdline>  (71) 
J2VwaWtfcHl0aG9uJywgJy1waHQnLCAnMi4wJywgJy1waCcsICc3LjAnLCAnLXRuJywgJzgnLCAnLW1hJywgJzIwMCcsICctaW1hZScsICc8aW5maWxlLm1hZT4nLCAnLW9tYWUnLCAnPG91dGZpbGUubWFlPic=

>  <r_lp_tautomer_probability>  (71) 
1

>  <r_epik_Ionization_Penalty>  (71) 
1.81603e-05

>  <r_epik_Ionization_Penalty_Charging>  (71) 
0

>  <r_epik_Ionization_Penalty_Neutral>  (71) 
1.81603e-05

>  <r_epik_State_Penalty>  (71) 
-0

>  <r_epik_Charging_Adjusted_Penalty>  (71) 
0

>  <i_epik_Tot_Q>  (71) 
0

>  <i_epik_Tot_abs_Q>  (71) 
0

>  <s_lp_Force_Field>  (71) 
OPLS3e

>  <r_lp_Energy>  (71) 
24.0748

>  <b_lp_Chiralities_Consistent>  (71) 
1

>  <s_lp_Variant>  (71) 
20:0-1

>  <s_i_glide_gridfile>  (71) 
pfpi4k_grid

>  <i_i_glide_lignum>  (71) 
28

>  <i_i_glide_rotatable_bonds>  (71) 
1

>  <r_i_docking_score>  (71) 
-3.27591

>  <r_i_glide_ligand_efficiency>  (71) 
-0.204744

>  <r_i_glide_ligand_efficiency_sa>  (71) 
-0.515924

>  <r_i_glide_ligand_efficiency_ln>  (71) 
-0.868346

>  <r_i_glide_gscore>  (71) 
-3.27591

>  <r_i_glide_lipo>  (71) 
-0.088026

>  <r_i_glide_hbond>  (71) 
-0.16

>  <r_i_glide_metal>  (71) 
-0

>  <r_i_glide_rewards>  (71) 
-2.00623

>  <r_i_glide_evdw>  (71) 
-17.2356

>  <r_i_glide_ecoul>  (71) 
-2.98573

>  <r_i_glide_erotb>  (71) 
0.363957

>  <r_i_glide_esite>  (71) 
-0.0759776

>  <r_i_glide_emodel>  (71) 
-23.7793

>  <r_i_glide_energy>  (71) 
-20.2213

>  <r_i_glide_einternal>  (71) 
0.764361

>  <r_i_glide_intrahb_reward>  (71) 
-0

>  <i_i_glide_confnum>  (71) 
4

>  <i_i_glide_posenum>  (71) 
3

>  <r_i_glide_eff_state_penalty>  (71) 
0

>  <ligand_id>  (71) 
20

>  <original_smiles>  (71) 
Cc1n[nH]c2ncnc(-c3cnn(C)c3)c12

>  <smiles>  (71) 
[H]c1nc(-c2c([H])nn(C([H])([H])[H])c2[H])c2c(C([H])([H])[H])nn([H])c2n1

$$$$
20:0:2
     RDKit          3D

 26 28  0  0  1  0  0  0  0  0999 V2000
   -2.1869    3.8358    3.8162 C   0  0  0  0  0  0  0  0  0  0  0  0
   -1.5408    2.4946    3.7242 C   0  0  0  0  0  0  0  0  0  0  0  0
   -1.1709    2.1506    2.5232 N   0  0  0  0  0  0  0  0  0  0  0  0
   -0.5856    0.9432    2.6277 N   0  0  0  0  0  0  0  0  0  0  0  0
   -0.5977    0.4541    3.9045 C   0  0  0  0  0  0  0  0  0  0  0  0
   -0.1105   -0.7471    4.3039 N   0  0  0  0  0  0  0  0  0  0  0  0
   -0.2883   -0.9176    5.6058 C   0  0  0  0  0  0  0  0  0  0  0  0
   -0.8630   -0.0913    6.4848 N   0  0  0  0  0  0  0  0  0  0  0  0
   -1.3221    1.1162    6.0738 C   0  0  0  0  0  0  0  0  0  0  0  0
   -1.9259    1.9313    7.1484 C   0  0  0  0  0  0  0  0  0  0  0  0
   -2.9981    2.8411    7.0572 C   0  0  0  0  0  0  0  0  0  0  0  0
   -3.3378    3.3269    8.2433 N   0  0  0  0  0  0  0  0  0  0  0  0
   -2.4959    2.7479    9.1190 N   0  0  0  0  0  0  0  0  0  0  0  0
   -2.6142    3.0882   10.5280 C   0  0  0  0  0  0  0  0  0  0  0  0
   -1.6221    1.8758    8.4852 C   0  0  0  0  0  0  0  0  0  0  0  0
   -1.2252    1.4542    4.6912 C   0  0  0  0  0  0  0  0  0  0  0  0
   -0.1772    0.5218    1.8057 H   0  0  0  0  0  0  0  0  0  0  0  0
   -2.4692    4.1258    4.8098 H   0  0  0  0  0  0  0  0  0  0  0  0
   -3.0596    3.8679    3.1560 H   0  0  0  0  0  0  0  0  0  0  0  0
   -1.5086    4.5969    3.4302 H   0  0  0  0  0  0  0  0  0  0  0  0
    0.0798   -1.8608    5.9900 H   0  0  0  0  0  0  0  0  0  0  0  0
   -3.6103    3.1228    6.2066 H   0  0  0  0  0  0  0  0  0  0  0  0
   -1.8939    2.5337   11.1395 H   0  0  0  0  0  0  0  0  0  0  0  0
   -3.6162    2.8696   10.9037 H   0  0  0  0  0  0  0  0  0  0  0  0
   -2.4350    4.1550   10.6813 H   0  0  0  0  0  0  0  0  0  0  0  0
   -0.8962    1.2710    9.0060 H   0  0  0  0  0  0  0  0  0  0  0  0
  1  2  1  0
  1 18  1  0
  1 19  1  0
  1 20  1  0
  2 16  1  0
  2  3  2  0
  3  4  1  0
  4 17  1  0
  4  5  1  0
  5 16  2  0
  5  6  1  0
  6  7  2  0
  7  8  1  0
  7 21  1  0
  8  9  2  0
  9 10  1  0
  9 16  1  0
 10 15  2  0
 10 11  1  0
 11 12  2  0
 11 22  1  0
 12 13  1  0
 13 14  1  0
 13 15  1  0
 14 23  1  0
 14 24  1  0
 14 25  1  0
 15 26  1  0
M  END
>  <i_m_ct_stereo_status>  (72) 
1

>  <s_m_source_file>  (72) 
/var/tmp/pbs.5076255.sched01/tmpcyubysk0/0_f5co88n.sdf

>  <i_m_source_file_index>  (72) 
28

>  <i_lp_mmshare_version>  (72) 
48012

>  <i_f3d_flags>  (72) 
0

>  <s_epik_input>  (72) 
W25IXTFuYyhbQ0gzXSljKGMxMiljKG5bY0hdbjIpLWMzW2NIXW5uKFtDSDNdKVtjSF0z

>  <s_epik_cmdline>  (72) 
J2VwaWtfcHl0aG9uJywgJy1waHQnLCAnMi4wJywgJy1waCcsICc3LjAnLCAnLXRuJywgJzgnLCAnLW1hJywgJzIwMCcsICctaW1hZScsICc8aW5maWxlLm1hZT4nLCAnLW9tYWUnLCAnPG91dGZpbGUubWFlPic=

>  <r_lp_tautomer_probability>  (72) 
1

>  <r_epik_Ionization_Penalty>  (72) 
1.81603e-05

>  <r_epik_Ionization_Penalty_Charging>  (72) 
0

>  <r_epik_Ionization_Penalty_Neutral>  (72) 
1.81603e-05

>  <r_epik_State_Penalty>  (72) 
-0

>  <r_epik_Charging_Adjusted_Penalty>  (72) 
0

>  <i_epik_Tot_Q>  (72) 
0

>  <i_epik_Tot_abs_Q>  (72) 
0

>  <s_lp_Force_Field>  (72) 
OPLS3e

>  <r_lp_Energy>  (72) 
24.0748

>  <b_lp_Chiralities_Consistent>  (72) 
1

>  <s_lp_Variant>  (72) 
20:0-1

>  <s_i_glide_gridfile>  (72) 
pfpi4k_grid

>  <i_i_glide_lignum>  (72) 
28

>  <i_i_glide_rotatable_bonds>  (72) 
1

>  <r_i_docking_score>  (72) 
-3.09591

>  <r_i_glide_ligand_efficiency>  (72) 
-0.193494

>  <r_i_glide_ligand_efficiency_sa>  (72) 
-0.487575

>  <r_i_glide_ligand_efficiency_ln>  (72) 
-0.820633

>  <r_i_glide_gscore>  (72) 
-3.09591

>  <r_i_glide_lipo>  (72) 
-0.178921

>  <r_i_glide_hbond>  (72) 
-0.0574783

>  <r_i_glide_metal>  (72) 
-0

>  <r_i_glide_rewards>  (72) 
-1.94846

>  <r_i_glide_evdw>  (72) 
-20.8266

>  <r_i_glide_ecoul>  (72) 
-0.68639

>  <r_i_glide_erotb>  (72) 
0.363957

>  <r_i_glide_esite>  (72) 
-0.130724

>  <r_i_glide_emodel>  (72) 
-25.0299

>  <r_i_glide_energy>  (72) 
-21.513

>  <r_i_glide_einternal>  (72) 
0.836254

>  <r_i_glide_intrahb_reward>  (72) 
-0

>  <i_i_glide_confnum>  (72) 
3

>  <i_i_glide_posenum>  (72) 
2

>  <r_i_glide_eff_state_penalty>  (72) 
0

>  <ligand_id>  (72) 
20

>  <original_smiles>  (72) 
Cc1n[nH]c2ncnc(-c3cnn(C)c3)c12

>  <smiles>  (72) 
[H]c1nc(-c2c([H])nn(C([H])([H])[H])c2[H])c2c(C([H])([H])[H])nn([H])c2n1

$$$$
23:0:0
     RDKit          3D

 61 67  0  0  1  0  0  0  0  0999 V2000
    7.7345   -3.9619    0.8299 C   0  0  0  0  0  0  0  0  0  0  0  0
    6.6263   -4.7088    0.7190 C   0  0  0  0  0  0  0  0  0  0  0  0
    5.3205   -4.3228    0.0326 C   0  0  2  0  0  0  0  0  0  0  0  0
    5.3388   -3.0326   -0.8298 C   0  0  0  0  0  0  0  0  0  0  0  0
    5.2005   -1.6132   -0.2235 C   0  0  2  0  0  0  0  0  0  0  0  0
    5.7359   -0.7017   -1.1535 O   0  0  0  0  0  0  0  0  0  0  0  0
    5.4262   -1.1472    1.1899 C   0  0  2  0  0  0  0  0  0  0  0  0
    5.7467   -2.2386    2.0103 O   0  0  0  0  0  0  0  0  0  0  0  0
    5.0316   -2.3360    3.1583 C   0  0  0  0  0  0  0  0  0  0  0  0
    5.0017   -1.3550    4.1825 C   0  0  0  0  0  0  0  0  0  0  0  0
    5.7664   -0.2327    4.0688 O   0  0  0  0  0  0  0  0  0  0  0  0
    4.2051   -1.5248    5.3312 C   0  0  0  0  0  0  0  0  0  0  0  0
    3.4206   -2.6812    5.5124 C   0  0  0  0  0  0  0  0  0  0  0  0
    3.4593   -3.6712    4.5058 C   0  0  0  0  0  0  0  0  0  0  0  0
    4.2458   -3.4670    3.3567 C   0  0  0  0  0  0  0  0  0  0  0  0
    4.2002   -4.6560    2.4405 C   0  0  1  0  0  0  0  0  0  0  0  0
    4.8102   -5.7839    3.0583 O   0  0  0  0  0  0  0  0  0  0  0  0
    3.3740   -5.6560    3.1337 C   0  0  1  0  0  0  0  0  0  0  0  0
    2.7659   -5.0382    4.4005 C   0  0  2  0  0  0  0  0  0  0  0  0
    1.2487   -4.8732    4.3392 C   0  0  0  0  0  0  0  0  0  0  0  0
    0.7376   -6.2781    4.6999 C   0  0  1  0  0  0  0  0  0  0  0  0
    0.5992   -7.2452    3.4964 C   0  0  0  0  0  0  0  0  0  0  0  0
    1.6925   -6.7310    5.6637 O   0  0  0  0  0  0  0  0  0  0  0  0
    2.8790   -5.9770    5.6250 C   0  0  1  0  0  0  0  0  0  0  0  0
    4.0048   -6.8177    5.5567 O   0  0  0  0  0  0  0  0  0  0  0  0
    4.0725   -4.6444    0.8956 C   0  0  1  0  0  0  0  0  0  0  0  0
    2.6781   -4.2989    0.3278 C   0  0  0  0  0  0  0  0  0  0  0  0
    2.4246   -2.8020    0.0562 C   0  0  0  0  0  0  0  0  0  0  0  0
    3.0107   -1.9351    1.0953 N   0  0  2  0  0  0  0  0  0  0  0  0
    2.0023   -1.1817    1.8979 C   0  0  0  0  0  0  0  0  0  0  0  0
    4.0424   -1.0209    0.5550 C   0  0  2  0  0  0  0  0  0  0  0  0
    7.7959   -2.9587    0.4343 H   0  0  0  0  0  0  0  0  0  0  0  0
    8.6062   -4.3493    1.3344 H   0  0  0  0  0  0  0  0  0  0  0  0
    6.6444   -5.7007    1.1493 H   0  0  0  0  0  0  0  0  0  0  0  0
    5.2817   -5.0906   -0.7457 H   0  0  0  0  0  0  0  0  0  0  0  0
    6.2627   -3.0722   -1.4073 H   0  0  0  0  0  0  0  0  0  0  0  0
    4.5796   -3.1283   -1.6055 H   0  0  0  0  0  0  0  0  0  0  0  0
    5.3854    0.1760   -1.0104 H   0  0  0  0  0  0  0  0  0  0  0  0
    6.0172   -0.2512    1.3827 H   0  0  0  0  0  0  0  0  0  0  0  0
    6.3974   -0.2644    3.3573 H   0  0  0  0  0  0  0  0  0  0  0  0
    4.2047   -0.7599    6.0885 H   0  0  0  0  0  0  0  0  0  0  0  0
    2.8138   -2.8041    6.4116 H   0  0  0  0  0  0  0  0  0  0  0  0
    2.8103   -6.2696    2.4781 H   0  0  0  0  0  0  0  0  0  0  0  0
    0.8976   -4.1624    5.1111 H   0  0  0  0  0  0  0  0  0  0  0  0
    0.8806   -4.5026    3.3907 H   0  0  0  0  0  0  0  0  0  0  0  0
   -0.2346   -6.2092    5.2030 H   0  0  0  0  0  0  0  0  0  0  0  0
   -0.0243   -6.7826    2.7295 H   0  0  0  0  0  0  0  0  0  0  0  0
    0.1759   -8.1954    3.8067 H   0  0  0  0  0  0  0  0  0  0  0  0
    1.5188   -7.5600    3.0565 H   0  0  0  0  0  0  0  0  0  0  0  0
    2.9423   -5.4365    6.5749 H   0  0  0  0  0  0  0  0  0  0  0  0
    3.9618   -7.2797    4.7324 H   0  0  0  0  0  0  0  0  0  0  0  0
    4.0094   -5.7109    0.7176 H   0  0  0  0  0  0  0  0  0  0  0  0
    2.5040   -4.8007   -0.6227 H   0  0  0  0  0  0  0  0  0  0  0  0
    1.8831   -4.6902    0.9581 H   0  0  0  0  0  0  0  0  0  0  0  0
    2.6533   -2.4848   -0.9558 H   0  0  0  0  0  0  0  0  0  0  0  0
    1.4036   -2.6399    0.0666 H   0  0  0  0  0  0  0  0  0  0  0  0
    1.4380   -0.4716    1.2908 H   0  0  0  0  0  0  0  0  0  0  0  0
    2.5061   -0.6176    2.6841 H   0  0  0  0  0  0  0  0  0  0  0  0
    1.2962   -1.8519    2.3829 H   0  0  0  0  0  0  0  0  0  0  0  0
    3.6840   -0.0216    0.2916 H   0  0  0  0  0  0  0  0  0  0  0  0
    3.4640   -2.5693    1.7348 H   0  0  0  0  0  0  0  0  0  0  0  0
  1  2  2  0
  1 32  1  0
  1 33  1  0
  2  3  1  0
  2 34  1  0
  3 26  1  0
  3  4  1  0
  3 35  1  6
  4  5  1  0
  4 36  1  0
  4 37  1  0
  5 31  1  0
  5  6  1  6
  5  7  1  0
  6 38  1  0
  7 31  1  0
  7  8  1  0
  7 39  1  6
  8  9  1  0
  9 15  2  0
  9 10  1  0
 10 11  1  0
 10 12  2  0
 11 40  1  0
 12 13  1  0
 12 41  1  0
 13 14  2  0
 13 42  1  0
 14 19  1  0
 14 15  1  0
 15 16  1  0
 16 18  1  0
 16 17  1  6
 16 26  1  0
 17 18  1  0
 18 19  1  0
 18 43  1  6
 19 24  1  0
 19 20  1  6
 20 21  1  0
 20 44  1  0
 20 45  1  0
 21 22  1  0
 21 23  1  0
 21 46  1  1
 22 47  1  0
 22 48  1  0
 22 49  1  0
 23 24  1  0
 24 25  1  0
 24 50  1  1
 25 51  1  0
 26 27  1  0
 26 52  1  6
 27 28  1  0
 27 53  1  0
 27 54  1  0
 28 29  1  0
 28 55  1  0
 28 56  1  0
 29 30  1  0
 29 31  1  0
 29 61  1  1
 30 57  1  0
 30 58  1  0
 30 59  1  0
 31 60  1  6
M  CHG  1  29   1
M  END
>  <i_m_ct_stereo_status>  (73) 
1

>  <s_m_source_file>  (73) 
/var/tmp/pbs.5076255.sched01/tmpcyubysk0/0_f5co88n.sdf

>  <i_m_source_file_index>  (73) 
32

>  <i_lp_mmshare_version>  (73) 
48012

>  <i_f3d_flags>  (73) 
0

>  <s_epik_input>  (73) 
W0NIMl09W0NIXVtDQEhdKFtDSDJdMSlbQ0BASF0yW0NIMl1bQ0gyXU4oW0NIM10pW0NAQEhdM1tDQEBdMShbT0hdKVtDQEBIXTNPYyhjNFtDQEBdMjU2KWMoW09IXSlbY0hdW2NIXWM0W0NAXTcoW0NAQEhdNk81KVtDSDJdW0NAQEhdKFtDSDNdKU9bQ0BIXTdbT0hd

>  <s_epik_cmdline>  (73) 
J2VwaWtfcHl0aG9uJywgJy1waHQnLCAnMi4wJywgJy1waCcsICc3LjAnLCAnLXRuJywgJzgnLCAnLW1hJywgJzIwMCcsICctaW1hZScsICc8aW5maWxlLm1hZT4nLCAnLW9tYWUnLCAnPG91dGZpbGUubWFlPic=

>  <r_lp_tautomer_probability>  (73) 
1

>  <r_epik_Ionization_Penalty>  (73) 
0.0124269

>  <r_epik_Ionization_Penalty_Charging>  (73) 
0.01217

>  <r_epik_Ionization_Penalty_Neutral>  (73) 
0.000256959

>  <r_epik_State_Penalty>  (73) 
0.00940622

>  <r_epik_Charging_Adjusted_Penalty>  (73) 
0.0215762

>  <i_epik_Tot_Q>  (73) 
1

>  <i_epik_Tot_abs_Q>  (73) 
1

>  <s_epik_Chemistry_Notes>  (73) 
This compound contains an acetal/aminal-like group ( X-CH(R)-Y where X, Y are N, S, or O) that may be acid/base labile, releasing an aldehyde.

>  <s_lp_Force_Field>  (73) 
OPLS3e

>  <r_lp_Energy>  (73) 
68.9253

>  <b_lp_Chiralities_Consistent>  (73) 
1

>  <s_lp_Variant>  (73) 
23:0-1

>  <s_i_glide_gridfile>  (73) 
pfpi4k_grid

>  <i_i_glide_lignum>  (73) 
32

>  <i_i_glide_rotatable_bonds>  (73) 
4

>  <r_i_docking_score>  (73) 
-3.36979

>  <r_i_glide_ligand_efficiency>  (73) 
-0.108703

>  <r_i_glide_ligand_efficiency_sa>  (73) 
-0.341477

>  <r_i_glide_ligand_efficiency_ln>  (73) 
-0.759991

>  <r_i_glide_gscore>  (73) 
-3.36979

>  <r_i_glide_lipo>  (73) 
-0.610962

>  <r_i_glide_hbond>  (73) 
-0.354728

>  <r_i_glide_metal>  (73) 
-0

>  <r_i_glide_rewards>  (73) 
-0.487513

>  <r_i_glide_evdw>  (73) 
-12.4947

>  <r_i_glide_ecoul>  (73) 
-9.06403

>  <r_i_glide_erotb>  (73) 
0.108187

>  <r_i_glide_esite>  (73) 
-0.0404318

>  <r_i_glide_emodel>  (73) 
-23.577

>  <r_i_glide_energy>  (73) 
-21.5588

>  <r_i_glide_einternal>  (73) 
0.54043

>  <r_i_glide_intrahb_reward>  (73) 
-0

>  <i_i_glide_confnum>  (73) 
2

>  <i_i_glide_posenum>  (73) 
1

>  <r_i_glide_eff_state_penalty>  (73) 
0

>  <ligand_id>  (73) 
23

>  <original_smiles>  (73) 
C=CC1CC2(O)C3Oc4c(O)ccc5c4C4(OC4C54CC(C)OC4O)C1CCN(C)C32

>  <smiles>  (73) 
[H]Oc1c([H])c([H])c2c3c1OC1([H])C4(O[H])C([H])([H])C([H])(C([H])=C([H])[H])C([H])(C([H])([H])C([H])([H])[N+]([H])(C([H])([H])[H])C14[H])C31OC1([H])C21C([H])(O[H])OC([H])(C([H])([H])[H])C1([H])[H]

$$$$
23:0:1
     RDKit          3D

 61 67  0  0  1  0  0  0  0  0999 V2000
    8.0565   -4.7494    1.7126 C   0  0  0  0  0  0  0  0  0  0  0  0
    6.8006   -5.2054    1.8285 C   0  0  0  0  0  0  0  0  0  0  0  0
    5.6245   -4.9109    0.9031 C   0  0  2  0  0  0  0  0  0  0  0  0
    5.9095   -3.9507   -0.2879 C   0  0  0  0  0  0  0  0  0  0  0  0
    5.9269   -2.4307   -0.1308 C   0  0  2  0  0  0  0  0  0  0  0  0
    6.6571   -1.8655   -1.1899 O   0  0  0  0  0  0  0  0  0  0  0  0
    6.0693   -1.5609    1.1015 C   0  0  2  0  0  0  0  0  0  0  0  0
    6.1309   -2.4015    2.2190 O   0  0  0  0  0  0  0  0  0  0  0  0
    5.3257   -2.0707    3.2445 C   0  0  0  0  0  0  0  0  0  0  0  0
    5.3261   -0.8263    3.9569 C   0  0  0  0  0  0  0  0  0  0  0  0
    6.2199    0.1323    3.6540 O   0  0  0  0  0  0  0  0  0  0  0  0
    4.4169   -0.5607    5.0012 C   0  0  0  0  0  0  0  0  0  0  0  0
    3.4680   -1.5185    5.3995 C   0  0  0  0  0  0  0  0  0  0  0  0
    3.4644   -2.7564    4.7280 C   0  0  0  0  0  0  0  0  0  0  0  0
    4.3755   -2.9880    3.6746 C   0  0  0  0  0  0  0  0  0  0  0  0
    4.2653   -4.3849    3.1292 C   0  0  1  0  0  0  0  0  0  0  0  0
    4.6423   -5.3287    4.1210 O   0  0  0  0  0  0  0  0  0  0  0  0
    3.2415   -5.0326    3.9674 C   0  0  1  0  0  0  0  0  0  0  0  0
    2.6040   -4.0172    4.9079 C   0  0  2  0  0  0  0  0  0  0  0  0
    1.1355   -3.7105    4.6152 C   0  0  0  0  0  0  0  0  0  0  0  0
    0.4086   -4.8882    5.2841 C   0  0  1  0  0  0  0  0  0  0  0  0
    0.2380   -6.1524    4.3971 C   0  0  0  0  0  0  0  0  0  0  0  0
    1.1918   -5.1313    6.4560 O   0  0  0  0  0  0  0  0  0  0  0  0
    2.4661   -4.5541    6.3609 C   0  0  1  0  0  0  0  0  0  0  0  0
    3.4696   -5.4888    6.6753 O   0  0  0  0  0  0  0  0  0  0  0  0
    4.2691   -4.8046    1.6405 C   0  0  1  0  0  0  0  0  0  0  0  0
    2.9859   -4.4957    0.8087 C   0  0  0  0  0  0  0  0  0  0  0  0
    2.9047   -3.1304    0.1115 C   0  0  0  0  0  0  0  0  0  0  0  0
    3.5654   -2.0776    0.9057 N   0  0  2  0  0  0  0  0  0  0  0  0
    2.6311   -1.0097    1.3513 C   0  0  0  0  0  0  0  0  0  0  0  0
    4.7832   -1.4944    0.2600 C   0  0  2  0  0  0  0  0  0  0  0  0
    8.3714   -4.0835    0.9259 H   0  0  0  0  0  0  0  0  0  0  0  0
    8.8033   -5.0484    2.4340 H   0  0  0  0  0  0  0  0  0  0  0  0
    6.5851   -5.8650    2.6568 H   0  0  0  0  0  0  0  0  0  0  0  0
    5.5607   -5.8633    0.3787 H   0  0  0  0  0  0  0  0  0  0  0  0
    6.8723   -4.2469   -0.7062 H   0  0  0  0  0  0  0  0  0  0  0  0
    5.2142   -4.1838   -1.0967 H   0  0  0  0  0  0  0  0  0  0  0  0
    7.0093   -2.5706   -1.7201 H   0  0  0  0  0  0  0  0  0  0  0  0
    6.7558   -0.7211    1.1182 H   0  0  0  0  0  0  0  0  0  0  0  0
    6.8497   -0.0920    2.9807 H   0  0  0  0  0  0  0  0  0  0  0  0
    4.4568    0.3907    5.4994 H   0  0  0  0  0  0  0  0  0  0  0  0
    2.7647   -1.3018    6.2060 H   0  0  0  0  0  0  0  0  0  0  0  0
    2.6611   -5.7613    3.4289 H   0  0  0  0  0  0  0  0  0  0  0  0
    0.8131   -2.7733    5.0975 H   0  0  0  0  0  0  0  0  0  0  0  0
    0.9123   -3.6068    3.5554 H   0  0  0  0  0  0  0  0  0  0  0  0
   -0.5876   -4.5653    5.6251 H   0  0  0  0  0  0  0  0  0  0  0  0
   -0.2310   -5.8749    3.4488 H   0  0  0  0  0  0  0  0  0  0  0  0
   -0.3400   -6.9224    4.9126 H   0  0  0  0  0  0  0  0  0  0  0  0
    1.1335   -6.6938    4.1957 H   0  0  0  0  0  0  0  0  0  0  0  0
    2.5104   -3.7698    7.1199 H   0  0  0  0  0  0  0  0  0  0  0  0
    3.5253   -6.0900    5.9493 H   0  0  0  0  0  0  0  0  0  0  0  0
    4.0819   -5.8699    1.7707 H   0  0  0  0  0  0  0  0  0  0  0  0
    2.8496   -5.2537    0.0409 H   0  0  0  0  0  0  0  0  0  0  0  0
    2.1009   -4.6191    1.4294 H   0  0  0  0  0  0  0  0  0  0  0  0
    3.3076   -3.1608   -0.9033 H   0  0  0  0  0  0  0  0  0  0  0  0
    1.8549   -2.8844   -0.0488 H   0  0  0  0  0  0  0  0  0  0  0  0
    2.2432   -0.4462    0.5158 H   0  0  0  0  0  0  0  0  0  0  0  0
    3.1301   -0.3082    2.0060 H   0  0  0  0  0  0  0  0  0  0  0  0
    1.7934   -1.4261    1.8977 H   0  0  0  0  0  0  0  0  0  0  0  0
    4.6070   -0.5787   -0.2963 H   0  0  0  0  0  0  0  0  0  0  0  0
    3.8751   -2.5421    1.7605 H   0  0  0  0  0  0  0  0  0  0  0  0
  1  2  2  0
  1 32  1  0
  1 33  1  0
  2  3  1  0
  2 34  1  0
  3 26  1  0
  3  4  1  0
  3 35  1  6
  4  5  1  0
  4 36  1  0
  4 37  1  0
  5 31  1  0
  5  6  1  6
  5  7  1  0
  6 38  1  0
  7 31  1  0
  7  8  1  0
  7 39  1  6
  8  9  1  0
  9 15  2  0
  9 10  1  0
 10 11  1  0
 10 12  2  0
 11 40  1  0
 12 13  1  0
 12 41  1  0
 13 14  2  0
 13 42  1  0
 14 19  1  0
 14 15  1  0
 15 16  1  0
 16 18  1  0
 16 17  1  1
 16 26  1  0
 17 18  1  0
 18 19  1  0
 18 43  1  6
 19 24  1  0
 19 20  1  6
 20 21  1  0
 20 44  1  0
 20 45  1  0
 21 22  1  0
 21 23  1  0
 21 46  1  1
 22 47  1  0
 22 48  1  0
 22 49  1  0
 23 24  1  0
 24 25  1  0
 24 50  1  1
 25 51  1  0
 26 27  1  0
 26 52  1  1
 27 28  1  0
 27 53  1  0
 27 54  1  0
 28 29  1  0
 28 55  1  0
 28 56  1  0
 29 30  1  0
 29 31  1  0
 29 61  1  1
 30 57  1  0
 30 58  1  0
 30 59  1  0
 31 60  1  6
M  CHG  1  29   1
M  END
>  <i_m_ct_stereo_status>  (74) 
1

>  <s_m_source_file>  (74) 
/var/tmp/pbs.5076255.sched01/tmpcyubysk0/0_f5co88n.sdf

>  <i_m_source_file_index>  (74) 
32

>  <i_lp_mmshare_version>  (74) 
48012

>  <i_f3d_flags>  (74) 
0

>  <s_epik_input>  (74) 
W0NIMl09W0NIXVtDQEhdKFtDSDJdMSlbQ0BASF0yW0NIMl1bQ0gyXU4oW0NIM10pW0NAQEhdM1tDQEBdMShbT0hdKVtDQEBIXTNPYyhjNFtDQEBdMjU2KWMoW09IXSlbY0hdW2NIXWM0W0NAXTcoW0NAQEhdNk81KVtDSDJdW0NAQEhdKFtDSDNdKU9bQ0BIXTdbT0hd

>  <s_epik_cmdline>  (74) 
J2VwaWtfcHl0aG9uJywgJy1waHQnLCAnMi4wJywgJy1waCcsICc3LjAnLCAnLXRuJywgJzgnLCAnLW1hJywgJzIwMCcsICctaW1hZScsICc8aW5maWxlLm1hZT4nLCAnLW9tYWUnLCAnPG91dGZpbGUubWFlPic=

>  <r_lp_tautomer_probability>  (74) 
1

>  <r_epik_Ionization_Penalty>  (74) 
0.0124269

>  <r_epik_Ionization_Penalty_Charging>  (74) 
0.01217

>  <r_epik_Ionization_Penalty_Neutral>  (74) 
0.000256959

>  <r_epik_State_Penalty>  (74) 
0.00940622

>  <r_epik_Charging_Adjusted_Penalty>  (74) 
0.0215762

>  <i_epik_Tot_Q>  (74) 
1

>  <i_epik_Tot_abs_Q>  (74) 
1

>  <s_epik_Chemistry_Notes>  (74) 
This compound contains an acetal/aminal-like group ( X-CH(R)-Y where X, Y are N, S, or O) that may be acid/base labile, releasing an aldehyde.

>  <s_lp_Force_Field>  (74) 
OPLS3e

>  <r_lp_Energy>  (74) 
68.9253

>  <b_lp_Chiralities_Consistent>  (74) 
1

>  <s_lp_Variant>  (74) 
23:0-1

>  <s_i_glide_gridfile>  (74) 
pfpi4k_grid

>  <i_i_glide_lignum>  (74) 
32

>  <i_i_glide_rotatable_bonds>  (74) 
4

>  <r_i_docking_score>  (74) 
-3.17362

>  <r_i_glide_ligand_efficiency>  (74) 
-0.102375

>  <r_i_glide_ligand_efficiency_sa>  (74) 
-0.321598

>  <r_i_glide_ligand_efficiency_ln>  (74) 
-0.715748

>  <r_i_glide_gscore>  (74) 
-3.17362

>  <r_i_glide_lipo>  (74) 
-0.658257

>  <r_i_glide_hbond>  (74) 
0

>  <r_i_glide_metal>  (74) 
-0

>  <r_i_glide_rewards>  (74) 
-0.487513

>  <r_i_glide_evdw>  (74) 
-13.886

>  <r_i_glide_ecoul>  (74) 
-9.43889

>  <r_i_glide_erotb>  (74) 
0.108187

>  <r_i_glide_esite>  (74) 
-0.0258997

>  <r_i_glide_emodel>  (74) 
-25.1252

>  <r_i_glide_energy>  (74) 
-23.3249

>  <r_i_glide_einternal>  (74) 
1.37307

>  <r_i_glide_intrahb_reward>  (74) 
-0

>  <i_i_glide_confnum>  (74) 
2

>  <i_i_glide_posenum>  (74) 
18

>  <r_i_glide_eff_state_penalty>  (74) 
0

>  <ligand_id>  (74) 
23

>  <original_smiles>  (74) 
C=CC1CC2(O)C3Oc4c(O)ccc5c4C4(OC4C54CC(C)OC4O)C1CCN(C)C32

>  <smiles>  (74) 
[H]Oc1c([H])c([H])c2c3c1OC1([H])C4(O[H])C([H])([H])C([H])(C([H])=C([H])[H])C([H])(C([H])([H])C([H])([H])[N+]([H])(C([H])([H])[H])C14[H])C31OC1([H])C21C([H])(O[H])OC([H])(C([H])([H])[H])C1([H])[H]

$$$$
23:0:2
     RDKit          3D

 61 67  0  0  1  0  0  0  0  0999 V2000
    3.5045   -4.1929   -4.2285 C   0  0  0  0  0  0  0  0  0  0  0  0
    3.8508   -4.0262   -2.9556 C   0  0  0  0  0  0  0  0  0  0  0  0
    3.1093   -3.1820   -1.9578 C   0  0  2  0  0  0  0  0  0  0  0  0
    3.2787   -1.7097   -2.2735 C   0  0  0  0  0  0  0  0  0  0  0  0
    4.5206   -0.9817   -1.8655 C   0  0  2  0  0  0  0  0  0  0  0  0
    4.6051    0.0950   -2.7606 O   0  0  0  0  0  0  0  0  0  0  0  0
    5.8514   -1.5454   -1.5499 C   0  0  2  0  0  0  0  0  0  0  0  0
    5.9232   -2.9292   -1.6122 O   0  0  0  0  0  0  0  0  0  0  0  0
    6.5005   -3.5095   -0.5350 C   0  0  0  0  0  0  0  0  0  0  0  0
    7.8439   -3.3443   -0.1387 C   0  0  0  0  0  0  0  0  0  0  0  0
    8.6316   -2.4915   -0.8231 O   0  0  0  0  0  0  0  0  0  0  0  0
    8.3593   -4.0429    0.9808 C   0  0  0  0  0  0  0  0  0  0  0  0
    7.5287   -4.8969    1.7262 C   0  0  0  0  0  0  0  0  0  0  0  0
    6.1896   -5.0341    1.3635 C   0  0  0  0  0  0  0  0  0  0  0  0
    5.7102   -4.3279    0.2386 C   0  0  0  0  0  0  0  0  0  0  0  0
    4.2982   -4.6873   -0.0604 C   0  0  1  0  0  0  0  0  0  0  0  0
    4.2292   -6.0740   -0.3668 O   0  0  0  0  0  0  0  0  0  0  0  0
    3.9304   -5.6681    0.9555 C   0  0  1  0  0  0  0  0  0  0  0  0
    5.0456   -5.8656    1.9593 C   0  0  2  0  0  0  0  0  0  0  0  0
    4.6704   -5.4030    3.3526 C   0  0  0  0  0  0  0  0  0  0  0  0
    3.8907   -6.6098    3.8975 C   0  0  1  0  0  0  0  0  0  0  0  0
    2.3752   -6.6041    3.5835 C   0  0  0  0  0  0  0  0  0  0  0  0
    4.5639   -7.7322    3.3234 O   0  0  0  0  0  0  0  0  0  0  0  0
    5.3624   -7.3576    2.2290 C   0  0  1  0  0  0  0  0  0  0  0  0
    5.1049   -8.1909    1.1220 O   0  0  0  0  0  0  0  0  0  0  0  0
    3.1619   -3.7148   -0.4963 C   0  0  1  0  0  0  0  0  0  0  0  0
    2.5737   -2.8260    0.6328 C   0  0  0  0  0  0  0  0  0  0  0  0
    3.2061   -1.4595    0.8979 C   0  0  0  0  0  0  0  0  0  0  0  0
    4.6602   -1.5546    0.6852 N   0  0  2  0  0  0  0  0  0  0  0  0
    5.4693   -1.2359    1.8988 C   0  0  0  0  0  0  0  0  0  0  0  0
    5.1082   -0.7668   -0.4757 C   0  0  2  0  0  0  0  0  0  0  0  0
    2.7144   -3.6218   -4.7000 H   0  0  0  0  0  0  0  0  0  0  0  0
    4.0565   -4.9379   -4.7513 H   0  0  0  0  0  0  0  0  0  0  0  0
    4.6940   -4.6093   -2.6234 H   0  0  0  0  0  0  0  0  0  0  0  0
    2.0729   -3.3253   -2.2490 H   0  0  0  0  0  0  0  0  0  0  0  0
    3.1284   -1.5800   -3.3482 H   0  0  0  0  0  0  0  0  0  0  0  0
    2.4982   -1.1185   -1.8602 H   0  0  0  0  0  0  0  0  0  0  0  0
    3.8966    0.6632   -2.6007 H   0  0  0  0  0  0  0  0  0  0  0  0
    6.6390   -1.1264   -2.1236 H   0  0  0  0  0  0  0  0  0  0  0  0
    9.5704   -2.5917   -0.6563 H   0  0  0  0  0  0  0  0  0  0  0  0
    9.3693   -3.8748    1.3064 H   0  0  0  0  0  0  0  0  0  0  0  0
    7.9170   -5.3817    2.6300 H   0  0  0  0  0  0  0  0  0  0  0  0
    2.8872   -5.6844    1.2000 H   0  0  0  0  0  0  0  0  0  0  0  0
    5.5753   -5.2475    3.9615 H   0  0  0  0  0  0  0  0  0  0  0  0
    4.1111   -4.4752    3.3612 H   0  0  0  0  0  0  0  0  0  0  0  0
    4.0094   -6.6652    4.9818 H   0  0  0  0  0  0  0  0  0  0  0  0
    1.9347   -5.6597    3.9043 H   0  0  0  0  0  0  0  0  0  0  0  0
    1.8712   -7.4438    4.0454 H   0  0  0  0  0  0  0  0  0  0  0  0
    2.1166   -6.7715    2.5481 H   0  0  0  0  0  0  0  0  0  0  0  0
    6.4023   -7.5263    2.5130 H   0  0  0  0  0  0  0  0  0  0  0  0
    4.2193   -8.0205    0.8388 H   0  0  0  0  0  0  0  0  0  0  0  0
    2.3420   -4.4275   -0.5567 H   0  0  0  0  0  0  0  0  0  0  0  0
    1.5253   -2.6483    0.4398 H   0  0  0  0  0  0  0  0  0  0  0  0
    2.5372   -3.3657    1.5772 H   0  0  0  0  0  0  0  0  0  0  0  0
    2.7731   -0.6583    0.2919 H   0  0  0  0  0  0  0  0  0  0  0  0
    3.0024   -1.1447    1.9185 H   0  0  0  0  0  0  0  0  0  0  0  0
    5.3128   -0.2098    2.2289 H   0  0  0  0  0  0  0  0  0  0  0  0
    6.5331   -1.3696    1.7020 H   0  0  0  0  0  0  0  0  0  0  0  0
    5.1915   -1.9045    2.7045 H   0  0  0  0  0  0  0  0  0  0  0  0
    5.5969    0.1553   -0.1618 H   0  0  0  0  0  0  0  0  0  0  0  0
    4.8628   -2.5101    0.4382 H   0  0  0  0  0  0  0  0  0  0  0  0
  1  2  2  0
  1 32  1  0
  1 33  1  0
  2  3  1  0
  2 34  1  0
  3 26  1  0
  3  4  1  0
  3 35  1  6
  4  5  1  0
  4 36  1  0
  4 37  1  0
  5 31  1  0
  5  6  1  6
  5  7  1  0
  6 38  1  0
  7 31  1  0
  7  8  1  0
  7 39  1  6
  8  9  1  0
  9 15  2  0
  9 10  1  0
 10 11  1  0
 10 12  2  0
 11 40  1  0
 12 13  1  0
 12 41  1  0
 13 14  2  0
 13 42  1  0
 14 19  1  0
 14 15  1  0
 15 16  1  0
 16 18  1  0
 16 17  1  6
 16 26  1  0
 17 18  1  0
 18 19  1  0
 18 43  1  1
 19 24  1  0
 19 20  1  1
 20 21  1  0
 20 44  1  0
 20 45  1  0
 21 22  1  0
 21 23  1  0
 21 46  1  1
 22 47  1  0
 22 48  1  0
 22 49  1  0
 23 24  1  0
 24 25  1  0
 24 50  1  1
 25 51  1  0
 26 27  1  0
 26 52  1  6
 27 28  1  0
 27 53  1  0
 27 54  1  0
 28 29  1  0
 28 55  1  0
 28 56  1  0
 29 30  1  0
 29 31  1  0
 29 61  1  6
 30 57  1  0
 30 58  1  0
 30 59  1  0
 31 60  1  1
M  CHG  1  29   1
M  END
>  <i_m_ct_stereo_status>  (75) 
1

>  <s_m_source_file>  (75) 
/var/tmp/pbs.5076255.sched01/tmpcyubysk0/0_f5co88n.sdf

>  <i_m_source_file_index>  (75) 
32

>  <i_lp_mmshare_version>  (75) 
48012

>  <i_f3d_flags>  (75) 
0

>  <s_epik_input>  (75) 
W0NIMl09W0NIXVtDQEhdKFtDSDJdMSlbQ0BASF0yW0NIMl1bQ0gyXU4oW0NIM10pW0NAQEhdM1tDQEBdMShbT0hdKVtDQEBIXTNPYyhjNFtDQEBdMjU2KWMoW09IXSlbY0hdW2NIXWM0W0NAXTcoW0NAQEhdNk81KVtDSDJdW0NAQEhdKFtDSDNdKU9bQ0BIXTdbT0hd

>  <s_epik_cmdline>  (75) 
J2VwaWtfcHl0aG9uJywgJy1waHQnLCAnMi4wJywgJy1waCcsICc3LjAnLCAnLXRuJywgJzgnLCAnLW1hJywgJzIwMCcsICctaW1hZScsICc8aW5maWxlLm1hZT4nLCAnLW9tYWUnLCAnPG91dGZpbGUubWFlPic=

>  <r_lp_tautomer_probability>  (75) 
1

>  <r_epik_Ionization_Penalty>  (75) 
0.0124269

>  <r_epik_Ionization_Penalty_Charging>  (75) 
0.01217

>  <r_epik_Ionization_Penalty_Neutral>  (75) 
0.000256959

>  <r_epik_State_Penalty>  (75) 
0.00940622

>  <r_epik_Charging_Adjusted_Penalty>  (75) 
0.0215762

>  <i_epik_Tot_Q>  (75) 
1

>  <i_epik_Tot_abs_Q>  (75) 
1

>  <s_epik_Chemistry_Notes>  (75) 
This compound contains an acetal/aminal-like group ( X-CH(R)-Y where X, Y are N, S, or O) that may be acid/base labile, releasing an aldehyde.

>  <s_lp_Force_Field>  (75) 
OPLS3e

>  <r_lp_Energy>  (75) 
68.9253

>  <b_lp_Chiralities_Consistent>  (75) 
1

>  <s_lp_Variant>  (75) 
23:0-1

>  <s_i_glide_gridfile>  (75) 
pfpi4k_grid

>  <i_i_glide_lignum>  (75) 
32

>  <i_i_glide_rotatable_bonds>  (75) 
4

>  <r_i_docking_score>  (75) 
-1.63131

>  <r_i_glide_ligand_efficiency>  (75) 
-0.0526229

>  <r_i_glide_ligand_efficiency_sa>  (75) 
-0.165309

>  <r_i_glide_ligand_efficiency_ln>  (75) 
-0.367911

>  <r_i_glide_gscore>  (75) 
-1.63131

>  <r_i_glide_lipo>  (75) 
-0.823186

>  <r_i_glide_hbond>  (75) 
0

>  <r_i_glide_metal>  (75) 
-0

>  <r_i_glide_rewards>  (75) 
-0.515398

>  <r_i_glide_evdw>  (75) 
-3.50063

>  <r_i_glide_ecoul>  (75) 
-3.99776

>  <r_i_glide_erotb>  (75) 
0.0757307

>  <r_i_glide_esite>  (75) 
0

>  <r_i_glide_emodel>  (75) 
-3.59725

>  <r_i_glide_energy>  (75) 
-7.49839

>  <r_i_glide_einternal>  (75) 
2.28327

>  <r_i_glide_intrahb_reward>  (75) 
-0

>  <i_i_glide_confnum>  (75) 
3

>  <i_i_glide_posenum>  (75) 
7

>  <r_i_glide_eff_state_penalty>  (75) 
0

>  <ligand_id>  (75) 
23

>  <original_smiles>  (75) 
C=CC1CC2(O)C3Oc4c(O)ccc5c4C4(OC4C54CC(C)OC4O)C1CCN(C)C32

>  <smiles>  (75) 
[H]Oc1c([H])c([H])c2c3c1OC1([H])C4(O[H])C([H])([H])C([H])(C([H])=C([H])[H])C([H])(C([H])([H])C([H])([H])[N+]([H])(C([H])([H])[H])C14[H])C31OC1([H])C21C([H])(O[H])OC([H])(C([H])([H])[H])C1([H])[H]

$$$$
23:1:0
     RDKit          3D

 60 66  0  0  1  0  0  0  0  0999 V2000
    6.5906   -3.3426    6.0798 C   0  0  0  0  0  0  0  0  0  0  0  0
    5.7746   -3.0189    5.0669 C   0  0  0  0  0  0  0  0  0  0  0  0
    4.9839   -1.7175    4.9572 C   0  0  2  0  0  0  0  0  0  0  0  0
    3.7670   -1.6522    5.9348 C   0  0  0  0  0  0  0  0  0  0  0  0
    2.4074   -2.3080    5.6170 C   0  0  2  0  0  0  0  0  0  0  0  0
    1.6145   -2.4373    6.7733 O   0  0  0  0  0  0  0  0  0  0  0  0
    2.0637   -3.4268    4.6630 C   0  0  2  0  0  0  0  0  0  0  0  0
    3.2539   -3.8482    4.0239 O   0  0  0  0  0  0  0  0  0  0  0  0
    3.1675   -3.9144    2.6561 C   0  0  0  0  0  0  0  0  0  0  0  0
    2.2952   -4.8146    1.9824 C   0  0  0  0  0  0  0  0  0  0  0  0
    1.4670   -5.6388    2.6736 O   0  0  0  0  0  0  0  0  0  0  0  0
    2.2353   -4.8844    0.5801 C   0  0  0  0  0  0  0  0  0  0  0  0
    3.0427   -4.0624   -0.2103 C   0  0  0  0  0  0  0  0  0  0  0  0
    3.8868   -3.1315    0.4150 C   0  0  0  0  0  0  0  0  0  0  0  0
    3.9365   -3.0805    1.8240 C   0  0  0  0  0  0  0  0  0  0  0  0
    4.9841   -2.0875    2.2616 C   0  0  1  0  0  0  0  0  0  0  0  0
    6.2845   -2.5459    1.8873 O   0  0  0  0  0  0  0  0  0  0  0  0
    5.6397   -1.6152    1.0088 C   0  0  1  0  0  0  0  0  0  0  0  0
    4.8954   -2.1653   -0.1883 C   0  0  2  0  0  0  0  0  0  0  0  0
    4.1921   -1.0855   -0.9860 C   0  0  0  0  0  0  0  0  0  0  0  0
    3.9280   -1.7790   -2.3170 C   0  0  1  0  0  0  0  0  0  0  0  0
    3.8617   -0.8471   -3.5141 C   0  0  0  0  0  0  0  0  0  0  0  0
    4.9669   -2.7573   -2.4605 O   0  0  0  0  0  0  0  0  0  0  0  0
    5.7265   -2.8559   -1.2852 C   0  0  1  0  0  0  0  0  0  0  0  0
    6.9893   -2.2542   -1.4597 O   0  0  0  0  0  0  0  0  0  0  0  0
    4.8698   -1.1462    3.4995 C   0  0  1  0  0  0  0  0  0  0  0  0
    4.0080    0.1333    3.2773 C   0  0  0  0  0  0  0  0  0  0  0  0
    2.5082    0.0442    3.5854 C   0  0  0  0  0  0  0  0  0  0  0  0
    1.9928   -1.2645    3.2673 N   0  0  0  0  0  0  0  0  0  0  0  0
    1.0269   -1.2179    2.1925 C   0  0  0  0  0  0  0  0  0  0  0  0
    1.5224   -2.0221    4.4188 C   0  0  2  0  0  0  0  0  0  0  0  0
    6.7286   -2.6997    6.9378 H   0  0  0  0  0  0  0  0  0  0  0  0
    7.1370   -4.2800    6.0567 H   0  0  0  0  0  0  0  0  0  0  0  0
    5.6838   -3.7284    4.2552 H   0  0  0  0  0  0  0  0  0  0  0  0
    5.6566   -1.0062    5.4453 H   0  0  0  0  0  0  0  0  0  0  0  0
    4.1031   -2.0296    6.9022 H   0  0  0  0  0  0  0  0  0  0  0  0
    3.5604   -0.6042    6.1327 H   0  0  0  0  0  0  0  0  0  0  0  0
    2.1253   -2.9125    7.4055 H   0  0  0  0  0  0  0  0  0  0  0  0
    1.3963   -4.2252    4.9943 H   0  0  0  0  0  0  0  0  0  0  0  0
    1.7018   -5.6875    3.5872 H   0  0  0  0  0  0  0  0  0  0  0  0
    1.5811   -5.5806    0.0829 H   0  0  0  0  0  0  0  0  0  0  0  0
    2.9991   -4.1745   -1.2847 H   0  0  0  0  0  0  0  0  0  0  0  0
    6.1154   -0.6371    0.9371 H   0  0  0  0  0  0  0  0  0  0  0  0
    3.2889   -0.7026   -0.5018 H   0  0  0  0  0  0  0  0  0  0  0  0
    4.8752   -0.2515   -1.1452 H   0  0  0  0  0  0  0  0  0  0  0  0
    2.9679   -2.2799   -2.2720 H   0  0  0  0  0  0  0  0  0  0  0  0
    3.0382   -0.1440   -3.3986 H   0  0  0  0  0  0  0  0  0  0  0  0
    3.7128   -1.4116   -4.4359 H   0  0  0  0  0  0  0  0  0  0  0  0
    4.7838   -0.2872   -3.5791 H   0  0  0  0  0  0  0  0  0  0  0  0
    5.9344   -3.8980   -1.0442 H   0  0  0  0  0  0  0  0  0  0  0  0
    7.5028   -2.8220   -2.0197 H   0  0  0  0  0  0  0  0  0  0  0  0
    5.8516   -0.6795    3.4262 H   0  0  0  0  0  0  0  0  0  0  0  0
    4.4215    0.9677    3.8513 H   0  0  0  0  0  0  0  0  0  0  0  0
    4.1068    0.4278    2.2317 H   0  0  0  0  0  0  0  0  0  0  0  0
    2.3123    0.2806    4.6259 H   0  0  0  0  0  0  0  0  0  0  0  0
    1.9839    0.8221    3.0215 H   0  0  0  0  0  0  0  0  0  0  0  0
    0.7557   -2.2365    1.9450 H   0  0  0  0  0  0  0  0  0  0  0  0
    1.4622   -0.7599    1.3017 H   0  0  0  0  0  0  0  0  0  0  0  0
    0.1368   -0.6501    2.4687 H   0  0  0  0  0  0  0  0  0  0  0  0
    0.4651   -1.8678    4.6052 H   0  0  0  0  0  0  0  0  0  0  0  0
  1  2  2  0
  1 32  1  0
  1 33  1  0
  2  3  1  0
  2 34  1  0
  3 26  1  0
  3  4  1  0
  3 35  1  1
  4  5  1  0
  4 36  1  0
  4 37  1  0
  5 31  1  0
  5  6  1  1
  5  7  1  0
  6 38  1  0
  7 31  1  0
  7  8  1  0
  7 39  1  1
  8  9  1  0
  9 15  2  0
  9 10  1  0
 10 11  1  0
 10 12  2  0
 11 40  1  0
 12 13  1  0
 12 41  1  0
 13 14  2  0
 13 42  1  0
 14 19  1  0
 14 15  1  0
 15 16  1  0
 16 18  1  0
 16 17  1  1
 16 26  1  0
 17 18  1  0
 18 19  1  0
 18 43  1  6
 19 24  1  0
 19 20  1  6
 20 21  1  0
 20 44  1  0
 20 45  1  0
 21 22  1  0
 21 23  1  0
 21 46  1  1
 22 47  1  0
 22 48  1  0
 22 49  1  0
 23 24  1  0
 24 25  1  0
 24 50  1  1
 25 51  1  0
 26 27  1  0
 26 52  1  6
 27 28  1  0
 27 53  1  0
 27 54  1  0
 28 29  1  0
 28 55  1  0
 28 56  1  0
 29 30  1  0
 29 31  1  0
 30 57  1  0
 30 58  1  0
 30 59  1  0
 31 60  1  1
M  END
>  <i_m_ct_stereo_status>  (76) 
1

>  <s_m_source_file>  (76) 
/var/tmp/pbs.5076255.sched01/tmpcyubysk0/0_f5co88n.sdf

>  <i_m_source_file_index>  (76) 
33

>  <i_lp_mmshare_version>  (76) 
48012

>  <i_f3d_flags>  (76) 
0

>  <s_epik_input>  (76) 
W0NIMl09W0NIXVtDQEhdKFtDSDJdMSlbQ0BASF0yW0NIMl1bQ0gyXU4oW0NIM10pW0NAQEhdM1tDQEBdMShbT0hdKVtDQEBIXTNPYyhjNFtDQEBdMjU2KWMoW09IXSlbY0hdW2NIXWM0W0NAXTcoW0NAQEhdNk81KVtDSDJdW0NAQEhdKFtDSDNdKU9bQ0BIXTdbT0hd

>  <s_epik_cmdline>  (76) 
J2VwaWtfcHl0aG9uJywgJy1waHQnLCAnMi4wJywgJy1waCcsICc3LjAnLCAnLXRuJywgJzgnLCAnLW1hJywgJzIwMCcsICctaW1hZScsICc8aW5maWxlLm1hZT4nLCAnLW9tYWUnLCAnPG91dGZpbGUubWFlPic=

>  <r_lp_tautomer_probability>  (76) 
1

>  <r_epik_Ionization_Penalty>  (76) 
2.30829

>  <r_epik_Ionization_Penalty_Charging>  (76) 
0

>  <r_epik_Ionization_Penalty_Neutral>  (76) 
2.30829

>  <r_epik_State_Penalty>  (76) 
2.45934

>  <r_epik_Charging_Adjusted_Penalty>  (76) 
2.45934

>  <i_epik_Tot_Q>  (76) 
0

>  <i_epik_Tot_abs_Q>  (76) 
0

>  <s_epik_Chemistry_Notes>  (76) 
This compound contains an acetal/aminal-like group ( X-CH(R)-Y where X, Y are N, S, or O) that may be acid/base labile, releasing an aldehyde.

>  <s_lp_Force_Field>  (76) 
OPLS3e

>  <r_lp_Energy>  (76) 
62.7046

>  <b_lp_Chiralities_Consistent>  (76) 
1

>  <s_lp_Variant>  (76) 
23:0-2

>  <s_i_glide_gridfile>  (76) 
pfpi4k_grid

>  <i_i_glide_lignum>  (76) 
33

>  <i_i_glide_rotatable_bonds>  (76) 
4

>  <r_i_docking_score>  (76) 
-2.74991

>  <r_i_glide_ligand_efficiency>  (76) 
-0.0887067

>  <r_i_glide_ligand_efficiency_sa>  (76) 
-0.278662

>  <r_i_glide_ligand_efficiency_ln>  (76) 
-0.620189

>  <r_i_glide_gscore>  (76) 
-2.74991

>  <r_i_glide_lipo>  (76) 
-0.536252

>  <r_i_glide_hbond>  (76) 
0

>  <r_i_glide_metal>  (76) 
-0

>  <r_i_glide_rewards>  (76) 
-0.507782

>  <r_i_glide_evdw>  (76) 
-19.5821

>  <r_i_glide_ecoul>  (76) 
-5.56945

>  <r_i_glide_erotb>  (76) 
0.108649

>  <r_i_glide_esite>  (76) 
0

>  <r_i_glide_emodel>  (76) 
-28.0823

>  <r_i_glide_energy>  (76) 
-25.1516

>  <r_i_glide_einternal>  (76) 
1.97871

>  <r_i_glide_intrahb_reward>  (76) 
-0

>  <i_i_glide_confnum>  (76) 
1

>  <i_i_glide_posenum>  (76) 
38

>  <r_i_glide_eff_state_penalty>  (76) 
0

>  <ligand_id>  (76) 
23

>  <original_smiles>  (76) 
C=CC1CC2(O)C3Oc4c(O)ccc5c4C4(OC4C54CC(C)OC4O)C1CCN(C)C32

>  <smiles>  (76) 
[H]Oc1c([H])c([H])c2c3c1OC1([H])C4([H])N(C([H])([H])[H])C([H])([H])C([H])([H])C([H])(C([H])(C([H])=C([H])[H])C([H])([H])C14O[H])C31OC1([H])C21C([H])(O[H])OC([H])(C([H])([H])[H])C1([H])[H]

$$$$
23:1:1
     RDKit          3D

 60 66  0  0  1  0  0  0  0  0999 V2000
    8.5251   -3.4739    0.7779 C   0  0  0  0  0  0  0  0  0  0  0  0
    7.6570   -4.4817    0.9714 C   0  0  0  0  0  0  0  0  0  0  0  0
    6.3025   -4.6763    0.2874 C   0  0  2  0  0  0  0  0  0  0  0  0
    5.9700   -3.6717   -0.8626 C   0  0  0  0  0  0  0  0  0  0  0  0
    5.3832   -2.2743   -0.5886 C   0  0  2  0  0  0  0  0  0  0  0  0
    5.5540   -1.4367   -1.7068 O   0  0  0  0  0  0  0  0  0  0  0  0
    5.3948   -1.4500    0.6777 C   0  0  2  0  0  0  0  0  0  0  0  0
    6.0487   -2.1768    1.6981 O   0  0  0  0  0  0  0  0  0  0  0  0
    5.3689   -2.2636    2.8767 C   0  0  0  0  0  0  0  0  0  0  0  0
    5.0248   -1.1351    3.6718 C   0  0  0  0  0  0  0  0  0  0  0  0
    5.3987    0.1189    3.2851 O   0  0  0  0  0  0  0  0  0  0  0  0
    4.3224   -1.2724    4.8906 C   0  0  0  0  0  0  0  0  0  0  0  0
    3.9337   -2.5394    5.3570 C   0  0  0  0  0  0  0  0  0  0  0  0
    4.2666   -3.6681    4.5971 C   0  0  0  0  0  0  0  0  0  0  0  0
    4.9621   -3.5153    3.3841 C   0  0  0  0  0  0  0  0  0  0  0  0
    5.2486   -4.8667    2.7666 C   0  0  1  0  0  0  0  0  0  0  0  0
    6.1618   -5.6339    3.5674 O   0  0  0  0  0  0  0  0  0  0  0  0
    4.7535   -5.8663    3.7532 C   0  0  1  0  0  0  0  0  0  0  0  0
    4.0111   -5.1409    4.8657 C   0  0  2  0  0  0  0  0  0  0  0  0
    2.5082   -5.4478    4.8212 C   0  0  0  0  0  0  0  0  0  0  0  0
    2.1801   -6.0037    6.2064 C   0  0  1  0  0  0  0  0  0  0  0  0
    1.1461   -7.1337    6.1815 C   0  0  0  0  0  0  0  0  0  0  0  0
    3.4280   -6.4766    6.6908 O   0  0  0  0  0  0  0  0  0  0  0  0
    4.3891   -5.5505    6.3096 C   0  0  1  0  0  0  0  0  0  0  0  0
    5.7027   -6.0448    6.4288 O   0  0  0  0  0  0  0  0  0  0  0  0
    5.1742   -5.1887    1.2456 C   0  0  1  0  0  0  0  0  0  0  0  0
    3.7436   -5.3961    0.6596 C   0  0  0  0  0  0  0  0  0  0  0  0
    3.0177   -4.1656    0.0990 C   0  0  0  0  0  0  0  0  0  0  0  0
    3.3370   -2.9777    0.8676 N   0  0  0  0  0  0  0  0  0  0  0  0
    2.1945   -2.4319    1.5761 C   0  0  0  0  0  0  0  0  0  0  0  0
    4.0728   -1.9657    0.1197 C   0  0  2  0  0  0  0  0  0  0  0  0
    8.3288   -2.6626    0.0937 H   0  0  0  0  0  0  0  0  0  0  0  0
    9.4586   -3.4497    1.3205 H   0  0  0  0  0  0  0  0  0  0  0  0
    7.9359   -5.2507    1.6801 H   0  0  0  0  0  0  0  0  0  0  0  0
    6.5246   -5.5726   -0.2900 H   0  0  0  0  0  0  0  0  0  0  0  0
    6.8752   -3.5349   -1.4521 H   0  0  0  0  0  0  0  0  0  0  0  0
    5.3026   -4.1759   -1.5586 H   0  0  0  0  0  0  0  0  0  0  0  0
    4.8372   -1.6140   -2.2977 H   0  0  0  0  0  0  0  0  0  0  0  0
    5.6306   -0.3881    0.6395 H   0  0  0  0  0  0  0  0  0  0  0  0
    5.0317    0.7950    3.8361 H   0  0  0  0  0  0  0  0  0  0  0  0
    4.0923   -0.4012    5.4850 H   0  0  0  0  0  0  0  0  0  0  0  0
    3.4130   -2.6359    6.2963 H   0  0  0  0  0  0  0  0  0  0  0  0
    4.4153   -6.8582    3.4522 H   0  0  0  0  0  0  0  0  0  0  0  0
    1.8896   -4.5788    4.5897 H   0  0  0  0  0  0  0  0  0  0  0  0
    2.2903   -6.1906    4.0554 H   0  0  0  0  0  0  0  0  0  0  0  0
    1.8391   -5.1915    6.8538 H   0  0  0  0  0  0  0  0  0  0  0  0
    0.1923   -6.7719    5.7994 H   0  0  0  0  0  0  0  0  0  0  0  0
    0.9755   -7.5381    7.1797 H   0  0  0  0  0  0  0  0  0  0  0  0
    1.4670   -7.9587    5.5424 H   0  0  0  0  0  0  0  0  0  0  0  0
    4.3065   -4.7075    7.0002 H   0  0  0  0  0  0  0  0  0  0  0  0
    5.8261   -6.7126    5.7706 H   0  0  0  0  0  0  0  0  0  0  0  0
    5.4633   -6.2403    1.3017 H   0  0  0  0  0  0  0  0  0  0  0  0
    3.7749   -6.1577   -0.1240 H   0  0  0  0  0  0  0  0  0  0  0  0
    3.1132   -5.8244    1.4402 H   0  0  0  0  0  0  0  0  0  0  0  0
    3.2615   -4.0235   -0.9525 H   0  0  0  0  0  0  0  0  0  0  0  0
    1.9444   -4.3601    0.0979 H   0  0  0  0  0  0  0  0  0  0  0  0
    2.4965   -1.6038    2.2182 H   0  0  0  0  0  0  0  0  0  0  0  0
    1.7453   -3.1965    2.2101 H   0  0  0  0  0  0  0  0  0  0  0  0
    1.4361   -2.0690    0.8843 H   0  0  0  0  0  0  0  0  0  0  0  0
    3.4058   -1.2358   -0.3369 H   0  0  0  0  0  0  0  0  0  0  0  0
  1  2  2  0
  1 32  1  0
  1 33  1  0
  2  3  1  0
  2 34  1  0
  3 26  1  0
  3  4  1  0
  3 35  1  6
  4  5  1  0
  4 36  1  0
  4 37  1  0
  5 31  1  0
  5  6  1  6
  5  7  1  0
  6 38  1  0
  7 31  1  0
  7  8  1  0
  7 39  1  6
  8  9  1  0
  9 15  2  0
  9 10  1  0
 10 11  1  0
 10 12  2  0
 11 40  1  0
 12 13  1  0
 12 41  1  0
 13 14  2  0
 13 42  1  0
 14 19  1  0
 14 15  1  0
 15 16  1  0
 16 18  1  0
 16 17  1  1
 16 26  1  0
 17 18  1  0
 18 19  1  0
 18 43  1  6
 19 24  1  0
 19 20  1  6
 20 21  1  0
 20 44  1  0
 20 45  1  0
 21 22  1  0
 21 23  1  0
 21 46  1  1
 22 47  1  0
 22 48  1  0
 22 49  1  0
 23 24  1  0
 24 25  1  0
 24 50  1  1
 25 51  1  0
 26 27  1  0
 26 52  1  1
 27 28  1  0
 27 53  1  0
 27 54  1  0
 28 29  1  0
 28 55  1  0
 28 56  1  0
 29 30  1  0
 29 31  1  0
 30 57  1  0
 30 58  1  0
 30 59  1  0
 31 60  1  6
M  END
>  <i_m_ct_stereo_status>  (77) 
1

>  <s_m_source_file>  (77) 
/var/tmp/pbs.5076255.sched01/tmpcyubysk0/0_f5co88n.sdf

>  <i_m_source_file_index>  (77) 
33

>  <i_lp_mmshare_version>  (77) 
48012

>  <i_f3d_flags>  (77) 
0

>  <s_epik_input>  (77) 
W0NIMl09W0NIXVtDQEhdKFtDSDJdMSlbQ0BASF0yW0NIMl1bQ0gyXU4oW0NIM10pW0NAQEhdM1tDQEBdMShbT0hdKVtDQEBIXTNPYyhjNFtDQEBdMjU2KWMoW09IXSlbY0hdW2NIXWM0W0NAXTcoW0NAQEhdNk81KVtDSDJdW0NAQEhdKFtDSDNdKU9bQ0BIXTdbT0hd

>  <s_epik_cmdline>  (77) 
J2VwaWtfcHl0aG9uJywgJy1waHQnLCAnMi4wJywgJy1waCcsICc3LjAnLCAnLXRuJywgJzgnLCAnLW1hJywgJzIwMCcsICctaW1hZScsICc8aW5maWxlLm1hZT4nLCAnLW9tYWUnLCAnPG91dGZpbGUubWFlPic=

>  <r_lp_tautomer_probability>  (77) 
1

>  <r_epik_Ionization_Penalty>  (77) 
2.30829

>  <r_epik_Ionization_Penalty_Charging>  (77) 
0

>  <r_epik_Ionization_Penalty_Neutral>  (77) 
2.30829

>  <r_epik_State_Penalty>  (77) 
2.45934

>  <r_epik_Charging_Adjusted_Penalty>  (77) 
2.45934

>  <i_epik_Tot_Q>  (77) 
0

>  <i_epik_Tot_abs_Q>  (77) 
0

>  <s_epik_Chemistry_Notes>  (77) 
This compound contains an acetal/aminal-like group ( X-CH(R)-Y where X, Y are N, S, or O) that may be acid/base labile, releasing an aldehyde.

>  <s_lp_Force_Field>  (77) 
OPLS3e

>  <r_lp_Energy>  (77) 
62.7046

>  <b_lp_Chiralities_Consistent>  (77) 
1

>  <s_lp_Variant>  (77) 
23:0-2

>  <s_i_glide_gridfile>  (77) 
pfpi4k_grid

>  <i_i_glide_lignum>  (77) 
33

>  <i_i_glide_rotatable_bonds>  (77) 
4

>  <r_i_docking_score>  (77) 
-2.5841

>  <r_i_glide_ligand_efficiency>  (77) 
-0.0833581

>  <r_i_glide_ligand_efficiency_sa>  (77) 
-0.26186

>  <r_i_glide_ligand_efficiency_ln>  (77) 
-0.582794

>  <r_i_glide_gscore>  (77) 
-2.5841

>  <r_i_glide_lipo>  (77) 
-0.783073

>  <r_i_glide_hbond>  (77) 
-0.0194716

>  <r_i_glide_metal>  (77) 
-0

>  <r_i_glide_rewards>  (77) 
-0.494385

>  <r_i_glide_evdw>  (77) 
-17.8645

>  <r_i_glide_ecoul>  (77) 
-3.35063

>  <r_i_glide_erotb>  (77) 
0.108649

>  <r_i_glide_esite>  (77) 
0

>  <r_i_glide_emodel>  (77) 
-24.991

>  <r_i_glide_energy>  (77) 
-21.2151

>  <r_i_glide_einternal>  (77) 
0.438518

>  <r_i_glide_intrahb_reward>  (77) 
-0

>  <i_i_glide_confnum>  (77) 
4

>  <i_i_glide_posenum>  (77) 
19

>  <r_i_glide_eff_state_penalty>  (77) 
0

>  <ligand_id>  (77) 
23

>  <original_smiles>  (77) 
C=CC1CC2(O)C3Oc4c(O)ccc5c4C4(OC4C54CC(C)OC4O)C1CCN(C)C32

>  <smiles>  (77) 
[H]Oc1c([H])c([H])c2c3c1OC1([H])C4([H])N(C([H])([H])[H])C([H])([H])C([H])([H])C([H])(C([H])(C([H])=C([H])[H])C([H])([H])C14O[H])C31OC1([H])C21C([H])(O[H])OC([H])(C([H])([H])[H])C1([H])[H]

$$$$
23:1:2
     RDKit          3D

 60 66  0  0  1  0  0  0  0  0999 V2000
    5.8059   -6.3458    5.2931 C   0  0  0  0  0  0  0  0  0  0  0  0
    6.1307   -5.1283    4.8229 C   0  0  0  0  0  0  0  0  0  0  0  0
    5.4094   -3.8073    5.0944 C   0  0  2  0  0  0  0  0  0  0  0  0
    4.3950   -3.8341    6.2858 C   0  0  0  0  0  0  0  0  0  0  0  0
    2.9415   -4.3207    6.1228 C   0  0  2  0  0  0  0  0  0  0  0  0
    2.3560   -4.5983    7.3667 O   0  0  0  0  0  0  0  0  0  0  0  0
    2.3287   -5.2161    5.0805 C   0  0  2  0  0  0  0  0  0  0  0  0
    3.3347   -5.5818    4.1541 O   0  0  0  0  0  0  0  0  0  0  0  0
    3.0113   -5.4014    2.8455 C   0  0  0  0  0  0  0  0  0  0  0  0
    1.9482   -6.0873    2.2118 C   0  0  0  0  0  0  0  0  0  0  0  0
    1.1900   -6.9939    2.8915 O   0  0  0  0  0  0  0  0  0  0  0  0
    1.6390   -5.8935    0.8509 C   0  0  0  0  0  0  0  0  0  0  0  0
    2.3777   -4.9914    0.0845 C   0  0  0  0  0  0  0  0  0  0  0  0
    3.4193   -4.2730    0.6724 C   0  0  0  0  0  0  0  0  0  0  0  0
    3.7238   -4.4943    2.0277 C   0  0  0  0  0  0  0  0  0  0  0  0
    4.9299   -3.6848    2.4354 C   0  0  1  0  0  0  0  0  0  0  0  0
    6.1218   -4.1237    1.7617 O   0  0  0  0  0  0  0  0  0  0  0  0
    5.4031   -3.0205    1.1813 C   0  0  1  0  0  0  0  0  0  0  0  0
    4.4020   -3.2813    0.0714 C   0  0  2  0  0  0  0  0  0  0  0  0
    3.6851   -2.0129   -0.3900 C   0  0  0  0  0  0  0  0  0  0  0  0
    3.1354   -2.4232   -1.7523 C   0  0  1  0  0  0  0  0  0  0  0  0
    2.9797   -1.2867   -2.7510 C   0  0  0  0  0  0  0  0  0  0  0  0
    4.0313   -3.4261   -2.2469 O   0  0  0  0  0  0  0  0  0  0  0  0
    4.9581   -3.8057   -1.2663 C   0  0  1  0  0  0  0  0  0  0  0  0
    6.2196   -3.2421   -1.5335 O   0  0  0  0  0  0  0  0  0  0  0  0
    5.0866   -2.9750    3.8042 C   0  0  1  0  0  0  0  0  0  0  0  0
    4.3430   -1.6163    3.9649 C   0  0  0  0  0  0  0  0  0  0  0  0
    2.9189   -1.6540    4.5313 C   0  0  0  0  0  0  0  0  0  0  0  0
    2.2211   -2.8438    4.0989 N   0  0  0  0  0  0  0  0  0  0  0  0
    1.0823   -2.5488    3.2544 C   0  0  0  0  0  0  0  0  0  0  0  0
    1.8899   -3.7617    5.1777 C   0  0  2  0  0  0  0  0  0  0  0  0
    4.9528   -6.5056    5.9340 H   0  0  0  0  0  0  0  0  0  0  0  0
    6.4001   -7.2110    5.0340 H   0  0  0  0  0  0  0  0  0  0  0  0
    6.9987   -5.0610    4.1815 H   0  0  0  0  0  0  0  0  0  0  0  0
    6.2259   -3.2454    5.5467 H   0  0  0  0  0  0  0  0  0  0  0  0
    4.8569   -4.4024    7.0952 H   0  0  0  0  0  0  0  0  0  0  0  0
    4.3523   -2.8246    6.6895 H   0  0  0  0  0  0  0  0  0  0  0  0
    2.5085   -3.8492    7.9128 H   0  0  0  0  0  0  0  0  0  0  0  0
    1.6656   -6.0186    5.3971 H   0  0  0  0  0  0  0  0  0  0  0  0
    1.6043   -7.2729    3.6903 H   0  0  0  0  0  0  0  0  0  0  0  0
    0.8413   -6.4543    0.3950 H   0  0  0  0  0  0  0  0  0  0  0  0
    2.1383   -4.8948   -0.9649 H   0  0  0  0  0  0  0  0  0  0  0  0
    5.9330   -2.0681    1.1911 H   0  0  0  0  0  0  0  0  0  0  0  0
    2.9116   -1.6714    0.3031 H   0  0  0  0  0  0  0  0  0  0  0  0
    4.3945   -1.1956   -0.5174 H   0  0  0  0  0  0  0  0  0  0  0  0
    2.1511   -2.8645   -1.6273 H   0  0  0  0  0  0  0  0  0  0  0  0
    2.2616   -0.5649   -2.3662 H   0  0  0  0  0  0  0  0  0  0  0  0
    2.5957   -1.6628   -3.7005 H   0  0  0  0  0  0  0  0  0  0  0  0
    3.9265   -0.7802   -2.9216 H   0  0  0  0  0  0  0  0  0  0  0  0
    5.0882   -4.8889   -1.2720 H   0  0  0  0  0  0  0  0  0  0  0  0
    6.1066   -2.3085   -1.5751 H   0  0  0  0  0  0  0  0  0  0  0  0
    6.0640   -2.5539    3.6116 H   0  0  0  0  0  0  0  0  0  0  0  0
    4.9391   -0.9388    4.5864 H   0  0  0  0  0  0  0  0  0  0  0  0
    4.3003   -1.1342    2.9870 H   0  0  0  0  0  0  0  0  0  0  0  0
    2.9431   -1.6062    5.6160 H   0  0  0  0  0  0  0  0  0  0  0  0
    2.3898   -0.7481    4.2210 H   0  0  0  0  0  0  0  0  0  0  0  0
    0.6490   -3.4825    2.8976 H   0  0  0  0  0  0  0  0  0  0  0  0
    1.4039   -1.9661    2.3887 H   0  0  0  0  0  0  0  0  0  0  0  0
    0.3116   -1.9877    3.7863 H   0  0  0  0  0  0  0  0  0  0  0  0
    0.9045   -3.5718    5.5850 H   0  0  0  0  0  0  0  0  0  0  0  0
  1  2  2  0
  1 32  1  0
  1 33  1  0
  2  3  1  0
  2 34  1  0
  3 26  1  0
  3  4  1  0
  3 35  1  1
  4  5  1  0
  4 36  1  0
  4 37  1  0
  5 31  1  0
  5  6  1  1
  5  7  1  0
  6 38  1  0
  7 31  1  0
  7  8  1  0
  7 39  1  1
  8  9  1  0
  9 15  2  0
  9 10  1  0
 10 11  1  0
 10 12  2  0
 11 40  1  0
 12 13  1  0
 12 41  1  0
 13 14  2  0
 13 42  1  0
 14 19  1  0
 14 15  1  0
 15 16  1  0
 16 18  1  0
 16 17  1  1
 16 26  1  0
 17 18  1  0
 18 19  1  0
 18 43  1  1
 19 24  1  0
 19 20  1  6
 20 21  1  0
 20 44  1  0
 20 45  1  0
 21 22  1  0
 21 23  1  0
 21 46  1  1
 22 47  1  0
 22 48  1  0
 22 49  1  0
 23 24  1  0
 24 25  1  0
 24 50  1  1
 25 51  1  0
 26 27  1  0
 26 52  1  6
 27 28  1  0
 27 53  1  0
 27 54  1  0
 28 29  1  0
 28 55  1  0
 28 56  1  0
 29 30  1  0
 29 31  1  0
 30 57  1  0
 30 58  1  0
 30 59  1  0
 31 60  1  1
M  END
>  <i_m_ct_stereo_status>  (78) 
1

>  <s_m_source_file>  (78) 
/var/tmp/pbs.5076255.sched01/tmpcyubysk0/0_f5co88n.sdf

>  <i_m_source_file_index>  (78) 
33

>  <i_lp_mmshare_version>  (78) 
48012

>  <i_f3d_flags>  (78) 
0

>  <s_epik_input>  (78) 
W0NIMl09W0NIXVtDQEhdKFtDSDJdMSlbQ0BASF0yW0NIMl1bQ0gyXU4oW0NIM10pW0NAQEhdM1tDQEBdMShbT0hdKVtDQEBIXTNPYyhjNFtDQEBdMjU2KWMoW09IXSlbY0hdW2NIXWM0W0NAXTcoW0NAQEhdNk81KVtDSDJdW0NAQEhdKFtDSDNdKU9bQ0BIXTdbT0hd

>  <s_epik_cmdline>  (78) 
J2VwaWtfcHl0aG9uJywgJy1waHQnLCAnMi4wJywgJy1waCcsICc3LjAnLCAnLXRuJywgJzgnLCAnLW1hJywgJzIwMCcsICctaW1hZScsICc8aW5maWxlLm1hZT4nLCAnLW9tYWUnLCAnPG91dGZpbGUubWFlPic=

>  <r_lp_tautomer_probability>  (78) 
1

>  <r_epik_Ionization_Penalty>  (78) 
2.30829

>  <r_epik_Ionization_Penalty_Charging>  (78) 
0

>  <r_epik_Ionization_Penalty_Neutral>  (78) 
2.30829

>  <r_epik_State_Penalty>  (78) 
2.45934

>  <r_epik_Charging_Adjusted_Penalty>  (78) 
2.45934

>  <i_epik_Tot_Q>  (78) 
0

>  <i_epik_Tot_abs_Q>  (78) 
0

>  <s_epik_Chemistry_Notes>  (78) 
This compound contains an acetal/aminal-like group ( X-CH(R)-Y where X, Y are N, S, or O) that may be acid/base labile, releasing an aldehyde.

>  <s_lp_Force_Field>  (78) 
OPLS3e

>  <r_lp_Energy>  (78) 
62.7046

>  <b_lp_Chiralities_Consistent>  (78) 
1

>  <s_lp_Variant>  (78) 
23:0-2

>  <s_i_glide_gridfile>  (78) 
pfpi4k_grid

>  <i_i_glide_lignum>  (78) 
33

>  <i_i_glide_rotatable_bonds>  (78) 
4

>  <r_i_docking_score>  (78) 
-1.75151

>  <r_i_glide_ligand_efficiency>  (78) 
-0.0565004

>  <r_i_glide_ligand_efficiency_sa>  (78) 
-0.177489

>  <r_i_glide_ligand_efficiency_ln>  (78) 
-0.39502

>  <r_i_glide_gscore>  (78) 
-1.75151

>  <r_i_glide_lipo>  (78) 
-0.250742

>  <r_i_glide_hbond>  (78) 
0

>  <r_i_glide_metal>  (78) 
-0

>  <r_i_glide_rewards>  (78) 
-0.494385

>  <r_i_glide_evdw>  (78) 
-18.4341

>  <r_i_glide_ecoul>  (78) 
-1.28865

>  <r_i_glide_erotb>  (78) 
0.108649

>  <r_i_glide_esite>  (78) 
-3.44807e-05

>  <r_i_glide_emodel>  (78) 
-21.9041

>  <r_i_glide_energy>  (78) 
-19.7227

>  <r_i_glide_einternal>  (78) 
0.26423

>  <r_i_glide_intrahb_reward>  (78) 
-0

>  <i_i_glide_confnum>  (78) 
1

>  <i_i_glide_posenum>  (78) 
1

>  <r_i_glide_eff_state_penalty>  (78) 
0

>  <ligand_id>  (78) 
23

>  <original_smiles>  (78) 
C=CC1CC2(O)C3Oc4c(O)ccc5c4C4(OC4C54CC(C)OC4O)C1CCN(C)C32

>  <smiles>  (78) 
[H]Oc1c([H])c([H])c2c3c1OC1([H])C4([H])N(C([H])([H])[H])C([H])([H])C([H])([H])C([H])(C([H])(C([H])=C([H])[H])C([H])([H])C14O[H])C31OC1([H])C21C([H])(O[H])OC([H])(C([H])([H])[H])C1([H])[H]

$$$$
24:0:0
     RDKit          3D

 38 43  0  0  1  0  0  0  0  0999 V2000
    2.8868   -0.9605   -4.0308 C   0  0  0  0  0  0  0  0  0  0  0  0
    4.2642   -0.6936   -3.4781 C   0  0  0  0  0  0  0  0  0  0  0  0
    4.3072   -1.4294   -2.1571 C   0  0  0  0  0  0  0  0  0  0  0  0
    3.4867   -2.6997   -2.3994 C   0  0  0  0  0  0  0  0  0  0  0  0
    2.8211   -3.1717   -1.1560 N   0  0  0  0  0  0  0  0  0  0  0  0
    3.7091   -3.4297    0.0032 C   0  0  2  0  0  0  0  0  0  0  0  0
    4.5620   -4.7104   -0.2287 C   0  0  0  0  0  0  0  0  0  0  0  0
    3.9186   -5.7958    0.6369 C   0  0  2  0  0  0  0  0  0  0  0  0
    2.6266   -5.2267    1.2099 C   0  0  2  0  0  0  0  0  0  0  0  0
    2.8525   -3.6978    1.2556 C   0  0  1  0  0  0  0  0  0  0  0  0
    3.6607   -3.5164    2.5708 C   0  0  2  0  0  0  0  0  0  0  0  0
    4.6988   -4.6103    2.8410 C   0  0  1  0  0  0  0  0  0  0  0  0
    4.4287   -5.8961    2.0771 C   0  0  1  0  0  0  0  0  0  0  0  0
    2.9933   -5.8297    2.5595 C   0  0  1  0  0  0  0  0  0  0  0  0
    3.3298   -4.6815    3.4483 C   0  0  2  0  0  0  0  0  0  0  0  0
    2.4776   -2.3559   -3.4929 C   0  0  0  0  0  0  0  0  0  0  0  0
    2.8914   -0.9117   -5.1147 H   0  0  0  0  0  0  0  0  0  0  0  0
    2.2328   -0.1823   -3.6580 H   0  0  0  0  0  0  0  0  0  0  0  0
    5.0078   -1.1109   -4.1667 H   0  0  0  0  0  0  0  0  0  0  0  0
    4.4399    0.3741   -3.3622 H   0  0  0  0  0  0  0  0  0  0  0  0
    5.3323   -1.6582   -1.8741 H   0  0  0  0  0  0  0  0  0  0  0  0
    3.8643   -0.8056   -1.3740 H   0  0  0  0  0  0  0  0  0  0  0  0
    4.1353   -3.4831   -2.8013 H   0  0  0  0  0  0  0  0  0  0  0  0
    2.1574   -2.4429   -0.8802 H   0  0  0  0  0  0  0  0  0  0  0  0
    4.3324   -2.5648    0.2322 H   0  0  0  0  0  0  0  0  0  0  0  0
    4.6733   -5.0265   -1.2699 H   0  0  0  0  0  0  0  0  0  0  0  0
    5.5699   -4.5074    0.1200 H   0  0  0  0  0  0  0  0  0  0  0  0
    3.7925   -6.7831    0.1958 H   0  0  0  0  0  0  0  0  0  0  0  0
    1.7321   -5.6404    0.7404 H   0  0  0  0  0  0  0  0  0  0  0  0
    1.9411   -3.0940    1.3205 H   0  0  0  0  0  0  0  0  0  0  0  0
    3.8289   -2.5242    2.9868 H   0  0  0  0  0  0  0  0  0  0  0  0
    5.5272   -4.5529    3.5478 H   0  0  0  0  0  0  0  0  0  0  0  0
    4.9301   -6.8167    2.3789 H   0  0  0  0  0  0  0  0  0  0  0  0
    2.5762   -6.7672    2.9314 H   0  0  0  0  0  0  0  0  0  0  0  0
    3.2577   -4.7130    4.5301 H   0  0  0  0  0  0  0  0  0  0  0  0
    1.4539   -2.3195   -3.1184 H   0  0  0  0  0  0  0  0  0  0  0  0
    2.4999   -3.1210   -4.2756 H   0  0  0  0  0  0  0  0  0  0  0  0
    2.3078   -4.0189   -1.3303 H   0  0  0  0  0  0  0  0  0  0  0  0
  1 16  1  0
  1  2  1  0
  1 17  1  0
  1 18  1  0
  2  3  1  0
  2 19  1  0
  2 20  1  0
  3  4  1  0
  3 21  1  0
  3 22  1  0
  4  5  1  0
  4 16  1  0
  4 23  1  0
  5  6  1  0
  5 24  1  0
  5 38  1  0
  6 10  1  0
  6  7  1  0
  6 25  1  1
  7  8  1  0
  7 26  1  0
  7 27  1  0
  8 13  1  0
  8  9  1  0
  8 28  1  6
  9 14  1  0
  9 10  1  0
  9 29  1  6
 10 11  1  0
 10 30  1  1
 11 15  1  0
 11 12  1  0
 11 31  1  1
 12 15  1  0
 12 13  1  0
 12 32  1  1
 13 14  1  0
 13 33  1  6
 14 15  1  0
 14 34  1  1
 15 35  1  1
 16 36  1  0
 16 37  1  0
M  CHG  1   5   1
M  END
>  <i_m_ct_stereo_status>  (79) 
1

>  <s_m_source_file>  (79) 
/var/tmp/pbs.5076255.sched01/tmpcyubysk0/0_f5co88n.sdf

>  <i_m_source_file_index>  (79) 
34

>  <i_lp_mmshare_version>  (79) 
48012

>  <i_f3d_flags>  (79) 
2

>  <s_epik_input>  (79) 
W0NIMl0xW0NIMl1bQ0gyXVtDSDJdW0NIXTFbTkhdW0NASF0oW0NIMl0yKVtDQEhdKFtDQEBIXTNbQ0BIXTI0KVtDSF01W0NASF02W0NASF00W0NASF0zW0NAQEhdNTY=

>  <s_epik_cmdline>  (79) 
J2VwaWtfcHl0aG9uJywgJy1waHQnLCAnMi4wJywgJy1waCcsICc3LjAnLCAnLXRuJywgJzgnLCAnLW1hJywgJzIwMCcsICctaW1hZScsICc8aW5maWxlLm1hZT4nLCAnLW9tYWUnLCAnPG91dGZpbGUubWFlPic=

>  <r_lp_tautomer_probability>  (79) 
1

>  <r_epik_Ionization_Penalty>  (79) 
4.37362e-05

>  <r_epik_Ionization_Penalty_Charging>  (79) 
4.37362e-05

>  <r_epik_Ionization_Penalty_Neutral>  (79) 
0

>  <r_epik_State_Penalty>  (79) 
-0

>  <r_epik_Charging_Adjusted_Penalty>  (79) 
4.37362e-05

>  <i_epik_Tot_Q>  (79) 
1

>  <i_epik_Tot_abs_Q>  (79) 
1

>  <s_lp_Force_Field>  (79) 
OPLS3e

>  <r_lp_Energy>  (79) 
69.6051

>  <b_lp_Chiralities_Consistent>  (79) 
0

>  <s_lp_Variant>  (79) 
24:0-1

>  <s_i_glide_gridfile>  (79) 
pfpi4k_grid

>  <i_i_glide_lignum>  (79) 
34

>  <i_i_glide_rotatable_bonds>  (79) 
2

>  <r_i_docking_score>  (79) 
-3.60133

>  <r_i_glide_ligand_efficiency>  (79) 
-0.225083

>  <r_i_glide_ligand_efficiency_sa>  (79) 
-0.567174

>  <r_i_glide_ligand_efficiency_ln>  (79) 
-0.954605

>  <r_i_glide_gscore>  (79) 
-3.60133

>  <r_i_glide_lipo>  (79) 
-0.645765

>  <r_i_glide_hbond>  (79) 
-0.2

>  <r_i_glide_metal>  (79) 
-0

>  <r_i_glide_rewards>  (79) 
-1.93403

>  <r_i_glide_evdw>  (79) 
-16.4176

>  <r_i_glide_ecoul>  (79) 
-4.77754

>  <r_i_glide_erotb>  (79) 
0.715977

>  <r_i_glide_esite>  (79) 
0

>  <r_i_glide_emodel>  (79) 
-27.5436

>  <r_i_glide_energy>  (79) 
-21.1952

>  <r_i_glide_einternal>  (79) 
0.68219

>  <r_i_glide_intrahb_reward>  (79) 
-0

>  <i_i_glide_confnum>  (79) 
1

>  <i_i_glide_posenum>  (79) 
5

>  <r_i_glide_eff_state_penalty>  (79) 
0

>  <ligand_id>  (79) 
24

>  <original_smiles>  (79) 
C1CCC(NC2CC3C4C2C2C5C3C4C25)C1

>  <smiles>  (79) 
[H]C1([H])C([H])([H])C([H])([H])C([H])([N+]([H])([H])C2([H])C([H])([H])C3([H])C4([H])C5([H])C6([H])C4([H])C6([H])C2([H])C35[H])C1([H])[H]

$$$$
24:0:1
     RDKit          3D

 38 43  0  0  1  0  0  0  0  0999 V2000
    5.0795   -3.0371   -3.2030 C   0  0  0  0  0  0  0  0  0  0  0  0
    4.1466   -2.0706   -3.9135 C   0  0  0  0  0  0  0  0  0  0  0  0
    3.1320   -1.6497   -2.8520 C   0  0  0  0  0  0  0  0  0  0  0  0
    3.9204   -1.6045   -1.5387 C   0  0  0  0  0  0  0  0  0  0  0  0
    3.0870   -1.9650   -0.3711 N   0  0  0  0  0  0  0  0  0  0  0  0
    3.6231   -1.6503    0.9848 C   0  0  2  0  0  0  0  0  0  0  0  0
    4.8612   -2.5175    1.3821 C   0  0  0  0  0  0  0  0  0  0  0  0
    4.3151   -3.6328    2.2656 C   0  0  2  0  0  0  0  0  0  0  0  0
    2.7919   -3.4841    2.3524 C   0  0  2  0  0  0  0  0  0  0  0  0
    2.5272   -1.9995    2.0408 C   0  0  1  0  0  0  0  0  0  0  0  0
    2.8048   -1.3445    3.4122 C   0  0  2  0  0  0  0  0  0  0  0  0
    3.9812   -1.9332    4.1978 C   0  0  2  0  0  0  0  0  0  0  0  0
    4.3586   -3.3366    3.7794 C   0  0  1  0  0  0  0  0  0  0  0  0
    2.8823   -3.7039    3.8663 C   0  0  1  0  0  0  0  0  0  0  0  0
    2.5870   -2.3649    4.4701 C   0  0  2  0  0  0  0  0  0  0  0  0
    5.0454   -2.6286   -1.7474 C   0  0  0  0  0  0  0  0  0  0  0  0
    6.1144   -3.0502   -3.5531 H   0  0  0  0  0  0  0  0  0  0  0  0
    4.6887   -4.0488   -3.2793 H   0  0  0  0  0  0  0  0  0  0  0  0
    4.7085   -1.1990   -4.2549 H   0  0  0  0  0  0  0  0  0  0  0  0
    3.6541   -2.5522   -4.7527 H   0  0  0  0  0  0  0  0  0  0  0  0
    2.6453   -0.6987   -3.0956 H   0  0  0  0  0  0  0  0  0  0  0  0
    2.3414   -2.4142   -2.8047 H   0  0  0  0  0  0  0  0  0  0  0  0
    4.3225   -0.5954   -1.4239 H   0  0  0  0  0  0  0  0  0  0  0  0
    2.1973   -1.4481   -0.4735 H   0  0  0  0  0  0  0  0  0  0  0  0
    3.8132   -0.5763    1.0402 H   0  0  0  0  0  0  0  0  0  0  0  0
    5.5003   -2.9538    0.6296 H   0  0  0  0  0  0  0  0  0  0  0  0
    5.5142   -1.8674    1.9921 H   0  0  0  0  0  0  0  0  0  0  0  0
    4.6113   -4.6406    2.0494 H   0  0  0  0  0  0  0  0  0  0  0  0
    2.2451   -4.2618    1.8180 H   0  0  0  0  0  0  0  0  0  0  0  0
    1.4939   -1.7953    1.7479 H   0  0  0  0  0  0  0  0  0  0  0  0
    2.5385   -0.2991    3.5886 H   0  0  0  0  0  0  0  0  0  0  0  0
    4.5665   -1.3965    4.9486 H   0  0  0  0  0  0  0  0  0  0  0  0
    5.0312   -3.9303    4.3793 H   0  0  0  0  0  0  0  0  0  0  0  0
    2.6422   -4.6524    4.3580 H   0  0  0  0  0  0  0  0  0  0  0  0
    2.1599   -2.2244    5.4702 H   0  0  0  0  0  0  0  0  0  0  0  0
    4.8427   -3.5627   -1.2272 H   0  0  0  0  0  0  0  0  0  0  0  0
    6.0035   -2.2233   -1.4136 H   0  0  0  0  0  0  0  0  0  0  0  0
    2.8820   -2.9690   -0.4090 H   0  0  0  0  0  0  0  0  0  0  0  0
  1 16  1  0
  1  2  1  0
  1 17  1  0
  1 18  1  0
  2  3  1  0
  2 19  1  0
  2 20  1  0
  3  4  1  0
  3 21  1  0
  3 22  1  0
  4  5  1  0
  4 16  1  0
  4 23  1  0
  5  6  1  0
  5 24  1  0
  5 38  1  0
  6 10  1  0
  6  7  1  0
  6 25  1  6
  7  8  1  0
  7 26  1  0
  7 27  1  0
  8 13  1  0
  8  9  1  0
  8 28  1  1
  9 14  1  0
  9 10  1  0
  9 29  1  6
 10 11  1  0
 10 30  1  6
 11 15  1  0
 11 12  1  0
 11 31  1  1
 12 15  1  0
 12 13  1  0
 12 32  1  1
 13 14  1  0
 13 33  1  1
 14 15  1  0
 14 34  1  1
 15 35  1  1
 16 36  1  0
 16 37  1  0
M  CHG  1   5   1
M  END
>  <i_m_ct_stereo_status>  (80) 
1

>  <s_m_source_file>  (80) 
/var/tmp/pbs.5076255.sched01/tmpcyubysk0/0_f5co88n.sdf

>  <i_m_source_file_index>  (80) 
34

>  <i_lp_mmshare_version>  (80) 
48012

>  <i_f3d_flags>  (80) 
2

>  <s_epik_input>  (80) 
W0NIMl0xW0NIMl1bQ0gyXVtDSDJdW0NIXTFbTkhdW0NASF0oW0NIMl0yKVtDQEhdKFtDQEBIXTNbQ0BIXTI0KVtDSF01W0NASF02W0NASF00W0NASF0zW0NAQEhdNTY=

>  <s_epik_cmdline>  (80) 
J2VwaWtfcHl0aG9uJywgJy1waHQnLCAnMi4wJywgJy1waCcsICc3LjAnLCAnLXRuJywgJzgnLCAnLW1hJywgJzIwMCcsICctaW1hZScsICc8aW5maWxlLm1hZT4nLCAnLW9tYWUnLCAnPG91dGZpbGUubWFlPic=

>  <r_lp_tautomer_probability>  (80) 
1

>  <r_epik_Ionization_Penalty>  (80) 
4.37362e-05

>  <r_epik_Ionization_Penalty_Charging>  (80) 
4.37362e-05

>  <r_epik_Ionization_Penalty_Neutral>  (80) 
0

>  <r_epik_State_Penalty>  (80) 
-0

>  <r_epik_Charging_Adjusted_Penalty>  (80) 
4.37362e-05

>  <i_epik_Tot_Q>  (80) 
1

>  <i_epik_Tot_abs_Q>  (80) 
1

>  <s_lp_Force_Field>  (80) 
OPLS3e

>  <r_lp_Energy>  (80) 
69.6051

>  <b_lp_Chiralities_Consistent>  (80) 
0

>  <s_lp_Variant>  (80) 
24:0-1

>  <s_i_glide_gridfile>  (80) 
pfpi4k_grid

>  <i_i_glide_lignum>  (80) 
34

>  <i_i_glide_rotatable_bonds>  (80) 
2

>  <r_i_docking_score>  (80) 
-3.54211

>  <r_i_glide_ligand_efficiency>  (80) 
-0.221382

>  <r_i_glide_ligand_efficiency_sa>  (80) 
-0.557848

>  <r_i_glide_ligand_efficiency_ln>  (80) 
-0.938908

>  <r_i_glide_gscore>  (80) 
-3.54211

>  <r_i_glide_lipo>  (80) 
-0.281764

>  <r_i_glide_hbond>  (80) 
-0.2

>  <r_i_glide_metal>  (80) 
-0

>  <r_i_glide_rewards>  (80) 
-1.93403

>  <r_i_glide_evdw>  (80) 
-17.2923

>  <r_i_glide_ecoul>  (80) 
-5.85119

>  <r_i_glide_erotb>  (80) 
0.715977

>  <r_i_glide_esite>  (80) 
-0.1

>  <r_i_glide_emodel>  (80) 
-28.7874

>  <r_i_glide_energy>  (80) 
-23.1435

>  <r_i_glide_einternal>  (80) 
0.366339

>  <r_i_glide_intrahb_reward>  (80) 
-0

>  <i_i_glide_confnum>  (80) 
3

>  <i_i_glide_posenum>  (80) 
24

>  <r_i_glide_eff_state_penalty>  (80) 
0

>  <ligand_id>  (80) 
24

>  <original_smiles>  (80) 
C1CCC(NC2CC3C4C2C2C5C3C4C25)C1

>  <smiles>  (80) 
[H]C1([H])C([H])([H])C([H])([H])C([H])([N+]([H])([H])C2([H])C([H])([H])C3([H])C4([H])C5([H])C6([H])C4([H])C6([H])C2([H])C35[H])C1([H])[H]

$$$$
24:0:2
     RDKit          3D

 38 43  0  0  1  0  0  0  0  0999 V2000
    2.8149   -2.5743   -3.9585 C   0  0  0  0  0  0  0  0  0  0  0  0
    3.6242   -1.3243   -4.2948 C   0  0  0  0  0  0  0  0  0  0  0  0
    3.8048   -0.6288   -2.9496 C   0  0  0  0  0  0  0  0  0  0  0  0
    3.9535   -1.7545   -1.9099 C   0  0  0  0  0  0  0  0  0  0  0  0
    3.4343   -1.3445   -0.5734 N   0  0  0  0  0  0  0  0  0  0  0  0
    3.6288   -2.2502    0.5932 C   0  0  2  0  0  0  0  0  0  0  0  0
    5.1343   -2.3306    1.0126 C   0  0  0  0  0  0  0  0  0  0  0  0
    5.6316   -3.7122    0.5894 C   0  0  2  0  0  0  0  0  0  0  0  0
    4.5368   -4.3846   -0.2079 C   0  0  2  0  0  0  0  0  0  0  0  0
    3.2189   -3.7265    0.3228 C   0  0  1  0  0  0  0  0  0  0  0  0
    2.9754   -4.5240    1.5863 C   0  0  2  0  0  0  0  0  0  0  0  0
    4.2011   -4.9803    2.3682 C   0  0  2  0  0  0  0  0  0  0  0  0
    5.4917   -4.8961    1.5644 C   0  0  1  0  0  0  0  0  0  0  0  0
    4.7424   -5.6974    0.4797 C   0  0  1  0  0  0  0  0  0  0  0  0
    3.5669   -5.8829    1.3408 C   0  0  2  0  0  0  0  0  0  0  0  0
    3.1436   -2.8994   -2.5810 C   0  0  0  0  0  0  0  0  0  0  0  0
    3.0545   -3.4316   -4.6111 H   0  0  0  0  0  0  0  0  0  0  0  0
    1.7363   -2.4073   -4.0122 H   0  0  0  0  0  0  0  0  0  0  0  0
    4.6022   -1.6238   -4.6877 H   0  0  0  0  0  0  0  0  0  0  0  0
    3.0786   -0.7274   -5.0400 H   0  0  0  0  0  0  0  0  0  0  0  0
    4.6221    0.1030   -2.9507 H   0  0  0  0  0  0  0  0  0  0  0  0
    2.8716   -0.0943   -2.7480 H   0  0  0  0  0  0  0  0  0  0  0  0
    5.0344   -1.9751   -1.8210 H   0  0  0  0  0  0  0  0  0  0  0  0
    3.7970   -0.4290   -0.3251 H   0  0  0  0  0  0  0  0  0  0  0  0
    3.0199   -1.8317    1.4155 H   0  0  0  0  0  0  0  0  0  0  0  0
    5.7353   -1.4934    0.6254 H   0  0  0  0  0  0  0  0  0  0  0  0
    5.1841   -2.2743    2.1161 H   0  0  0  0  0  0  0  0  0  0  0  0
    6.5512   -3.7246    0.0114 H   0  0  0  0  0  0  0  0  0  0  0  0
    4.8642   -4.4276   -1.2470 H   0  0  0  0  0  0  0  0  0  0  0  0
    2.2902   -3.9015   -0.2276 H   0  0  0  0  0  0  0  0  0  0  0  0
    2.0023   -4.4733    2.0996 H   0  0  0  0  0  0  0  0  0  0  0  0
    4.1900   -5.1525    3.4411 H   0  0  0  0  0  0  0  0  0  0  0  0
    6.4019   -5.3910    1.9095 H   0  0  0  0  0  0  0  0  0  0  0  0
    5.1990   -6.4955   -0.1097 H   0  0  0  0  0  0  0  0  0  0  0  0
    3.0954   -6.8472    1.5805 H   0  0  0  0  0  0  0  0  0  0  0  0
    2.1823   -3.0479   -2.1141 H   0  0  0  0  0  0  0  0  0  0  0  0
    3.7036   -3.8492   -2.7032 H   0  0  0  0  0  0  0  0  0  0  0  0
    2.4246   -1.2221   -0.6829 H   0  0  0  0  0  0  0  0  0  0  0  0
  1 16  1  0
  1  2  1  0
  1 17  1  0
  1 18  1  0
  2  3  1  0
  2 19  1  0
  2 20  1  0
  3  4  1  0
  3 21  1  0
  3 22  1  0
  4  5  1  0
  4 16  1  0
  4 23  1  0
  5  6  1  0
  5 24  1  0
  5 38  1  0
  6 10  1  0
  6  7  1  0
  6 25  1  1
  7  8  1  0
  7 26  1  0
  7 27  1  0
  8 13  1  0
  8  9  1  0
  8 28  1  6
  9 14  1  0
  9 10  1  0
  9 29  1  6
 10 11  1  0
 10 30  1  6
 11 15  1  0
 11 12  1  0
 11 31  1  1
 12 15  1  0
 12 13  1  0
 12 32  1  1
 13 14  1  0
 13 33  1  1
 14 15  1  0
 14 34  1  6
 15 35  1  1
 16 36  1  0
 16 37  1  0
M  CHG  1   5   1
M  END
>  <i_m_ct_stereo_status>  (81) 
1

>  <s_m_source_file>  (81) 
/var/tmp/pbs.5076255.sched01/tmpcyubysk0/0_f5co88n.sdf

>  <i_m_source_file_index>  (81) 
34

>  <i_lp_mmshare_version>  (81) 
48012

>  <i_f3d_flags>  (81) 
2

>  <s_epik_input>  (81) 
W0NIMl0xW0NIMl1bQ0gyXVtDSDJdW0NIXTFbTkhdW0NASF0oW0NIMl0yKVtDQEhdKFtDQEBIXTNbQ0BIXTI0KVtDSF01W0NASF02W0NASF00W0NASF0zW0NAQEhdNTY=

>  <s_epik_cmdline>  (81) 
J2VwaWtfcHl0aG9uJywgJy1waHQnLCAnMi4wJywgJy1waCcsICc3LjAnLCAnLXRuJywgJzgnLCAnLW1hJywgJzIwMCcsICctaW1hZScsICc8aW5maWxlLm1hZT4nLCAnLW9tYWUnLCAnPG91dGZpbGUubWFlPic=

>  <r_lp_tautomer_probability>  (81) 
1

>  <r_epik_Ionization_Penalty>  (81) 
4.37362e-05

>  <r_epik_Ionization_Penalty_Charging>  (81) 
4.37362e-05

>  <r_epik_Ionization_Penalty_Neutral>  (81) 
0

>  <r_epik_State_Penalty>  (81) 
-0

>  <r_epik_Charging_Adjusted_Penalty>  (81) 
4.37362e-05

>  <i_epik_Tot_Q>  (81) 
1

>  <i_epik_Tot_abs_Q>  (81) 
1

>  <s_lp_Force_Field>  (81) 
OPLS3e

>  <r_lp_Energy>  (81) 
69.6051

>  <b_lp_Chiralities_Consistent>  (81) 
0

>  <s_lp_Variant>  (81) 
24:0-1

>  <s_i_glide_gridfile>  (81) 
pfpi4k_grid

>  <i_i_glide_lignum>  (81) 
34

>  <i_i_glide_rotatable_bonds>  (81) 
2

>  <r_i_docking_score>  (81) 
-3.3557

>  <r_i_glide_ligand_efficiency>  (81) 
-0.209732

>  <r_i_glide_ligand_efficiency_sa>  (81) 
-0.52849

>  <r_i_glide_ligand_efficiency_ln>  (81) 
-0.889497

>  <r_i_glide_gscore>  (81) 
-3.3557

>  <r_i_glide_lipo>  (81) 
-0.502427

>  <r_i_glide_hbond>  (81) 
-0.2

>  <r_i_glide_metal>  (81) 
-0

>  <r_i_glide_rewards>  (81) 
-1.93403

>  <r_i_glide_evdw>  (81) 
-21.5982

>  <r_i_glide_ecoul>  (81) 
-5.50428

>  <r_i_glide_erotb>  (81) 
0.715977

>  <r_i_glide_esite>  (81) 
-0.1

>  <r_i_glide_emodel>  (81) 
-27.1275

>  <r_i_glide_energy>  (81) 
-27.1025

>  <r_i_glide_einternal>  (81) 
3.2473

>  <r_i_glide_intrahb_reward>  (81) 
-0

>  <i_i_glide_confnum>  (81) 
1

>  <i_i_glide_posenum>  (81) 
20

>  <r_i_glide_eff_state_penalty>  (81) 
0

>  <ligand_id>  (81) 
24

>  <original_smiles>  (81) 
C1CCC(NC2CC3C4C2C2C5C3C4C25)C1

>  <smiles>  (81) 
[H]C1([H])C([H])([H])C([H])([H])C([H])([N+]([H])([H])C2([H])C([H])([H])C3([H])C4([H])C5([H])C6([H])C4([H])C6([H])C2([H])C35[H])C1([H])[H]

$$$$
25:0:0
     RDKit          3D

 53 56  0  0  1  0  0  0  0  0999 V2000
    3.0337   -1.9497   -2.7233 C   0  0  0  0  0  0  0  0  0  0  0  0
    3.4473   -2.7063   -1.6990 C   0  0  0  0  0  0  0  0  0  0  0  0
    2.5755   -3.5847   -0.8391 C   0  0  0  0  0  0  0  0  0  0  0  0
    3.5270   -4.2651    0.1867 C   0  0  1  0  0  0  0  0  0  0  0  0
    4.8215   -4.3065   -0.6598 C   0  0  0  0  0  0  0  0  0  0  0  0
    4.8709   -2.9145   -1.2746 C   0  0  2  0  0  0  0  0  0  0  0  0
    5.2733   -1.9225   -0.1788 C   0  0  0  0  0  0  0  0  0  0  0  0
    4.3377   -1.9385    1.0569 C   0  0  1  0  0  0  0  0  0  0  0  0
    3.3322   -0.9490    0.9207 O   0  0  0  0  0  0  0  0  0  0  0  0
    3.6890   -3.3198    1.4583 C   0  0  2  0  0  0  0  0  0  0  0  0
    4.2710   -3.9941    2.7780 C   0  0  1  0  0  0  0  0  0  0  0  0
    5.7894   -4.2672    2.6339 C   0  0  0  0  0  0  0  0  0  0  0  0
    4.1512   -3.1564    4.1182 C   0  0  1  0  0  0  0  0  0  0  0  0
    4.7549   -1.8814    4.1234 O   0  0  0  0  0  0  0  0  0  0  0  0
    2.7431   -3.0259    4.7030 C   0  0  0  0  0  0  0  0  0  0  0  0
    2.1908   -4.4207    4.9994 C   0  0  0  0  0  0  0  0  0  0  0  0
    2.1153   -5.2732    3.7278 C   0  0  1  0  0  0  0  0  0  0  0  0
    1.4985   -6.6448    4.0519 C   0  0  0  0  0  0  0  0  0  0  0  0
    1.1351   -4.6481    2.9393 O   0  0  0  0  0  0  0  0  0  0  0  0
    3.5331   -5.3603    3.0428 C   0  0  1  0  0  0  0  0  0  0  0  0
    3.6101   -6.2979    1.8167 C   0  0  0  0  0  0  0  0  0  0  0  0
    3.0464   -5.7143    0.5144 C   0  0  1  0  0  0  0  0  0  0  0  0
    1.6389   -5.8730    0.4768 O   0  0  0  0  0  0  0  0  0  0  0  0
    3.7342   -1.3659   -3.3030 H   0  0  0  0  0  0  0  0  0  0  0  0
    1.9850   -1.8933   -2.9619 H   0  0  0  0  0  0  0  0  0  0  0  0
    1.7756   -3.0365   -0.3592 H   0  0  0  0  0  0  0  0  0  0  0  0
    2.1056   -4.2944   -1.5160 H   0  0  0  0  0  0  0  0  0  0  0  0
    5.7312   -4.5633   -0.1284 H   0  0  0  0  0  0  0  0  0  0  0  0
    4.7312   -5.0341   -1.4669 H   0  0  0  0  0  0  0  0  0  0  0  0
    5.5497   -2.8672   -2.1337 H   0  0  0  0  0  0  0  0  0  0  0  0
    6.2877   -2.1741    0.1368 H   0  0  0  0  0  0  0  0  0  0  0  0
    5.3339   -0.9140   -0.5869 H   0  0  0  0  0  0  0  0  0  0  0  0
    4.9783   -1.5610    1.8406 H   0  0  0  0  0  0  0  0  0  0  0  0
    2.7446   -1.1857    0.2128 H   0  0  0  0  0  0  0  0  0  0  0  0
    2.6722   -3.0672    1.7533 H   0  0  0  0  0  0  0  0  0  0  0  0
    6.2043   -4.6841    3.5502 H   0  0  0  0  0  0  0  0  0  0  0  0
    6.3319   -3.3480    2.4350 H   0  0  0  0  0  0  0  0  0  0  0  0
    6.0576   -4.9739    1.8600 H   0  0  0  0  0  0  0  0  0  0  0  0
    4.7137   -3.6998    4.8777 H   0  0  0  0  0  0  0  0  0  0  0  0
    4.2756   -1.3162    3.5342 H   0  0  0  0  0  0  0  0  0  0  0  0
    2.7830   -2.4613    5.6367 H   0  0  0  0  0  0  0  0  0  0  0  0
    2.0890   -2.4650    4.0332 H   0  0  0  0  0  0  0  0  0  0  0  0
    2.8319   -4.9165    5.7329 H   0  0  0  0  0  0  0  0  0  0  0  0
    1.2100   -4.3309    5.4683 H   0  0  0  0  0  0  0  0  0  0  0  0
    2.1633   -7.2540    4.6655 H   0  0  0  0  0  0  0  0  0  0  0  0
    1.2652   -7.1983    3.1424 H   0  0  0  0  0  0  0  0  0  0  0  0
    0.5561   -6.5235    4.5899 H   0  0  0  0  0  0  0  0  0  0  0  0
    1.4606   -3.7912    2.6986 H   0  0  0  0  0  0  0  0  0  0  0  0
    4.1361   -5.8684    3.7989 H   0  0  0  0  0  0  0  0  0  0  0  0
    4.6524   -6.5495    1.6358 H   0  0  0  0  0  0  0  0  0  0  0  0
    3.1616   -7.2709    2.0283 H   0  0  0  0  0  0  0  0  0  0  0  0
    3.4069   -6.3606   -0.2851 H   0  0  0  0  0  0  0  0  0  0  0  0
    1.4495   -6.7850    0.6565 H   0  0  0  0  0  0  0  0  0  0  0  0
  1  2  2  0
  1 24  1  0
  1 25  1  0
  2  6  1  0
  2  3  1  0
  4  3  1  6
  3 26  1  0
  3 27  1  0
  4 10  1  0
  4 22  1  0
  4  5  1  0
  5  6  1  0
  5 28  1  0
  5 29  1  0
  6  7  1  0
  6 30  1  6
  7  8  1  0
  7 31  1  0
  7 32  1  0
  8  9  1  0
  8 10  1  0
  8 33  1  1
  9 34  1  0
 10 11  1  0
 10 35  1  1
 11 20  1  0
 11 12  1  6
 11 13  1  0
 12 36  1  0
 12 37  1  0
 12 38  1  0
 13 14  1  0
 13 15  1  0
 13 39  1  1
 14 40  1  0
 15 16  1  0
 15 41  1  0
 15 42  1  0
 16 17  1  0
 16 43  1  0
 16 44  1  0
 17 18  1  0
 17 19  1  6
 17 20  1  0
 18 45  1  0
 18 46  1  0
 18 47  1  0
 19 48  1  0
 20 21  1  0
 20 49  1  1
 21 22  1  0
 21 50  1  0
 21 51  1  0
 22 23  1  0
 22 52  1  6
 23 53  1  0
M  END
>  <i_m_ct_stereo_status>  (82) 
1

>  <s_m_source_file>  (82) 
/var/tmp/pbs.5076255.sched01/tmpcyubysk0/0_f5co88n.sdf

>  <i_m_source_file_index>  (82) 
35

>  <i_lp_mmshare_version>  (82) 
48012

>  <i_f3d_flags>  (82) 
0

>  <s_epik_input>  (82) 
W0NIMl09QyhbQ0gyXTEpW0NASF0oW0NIMl0yKVtDSDJdW0NAQEhdKFtPSF0pW0NAQEhdKFtDQEBdMTIzKVtDQF00KFtDSDNdKVtDQEhdKFtDSDJdW0NASF0zW09IXSlbQ0BdKFtDSDNdKShbT0hdKVtDSDJdW0NIMl1bQ0BASF00W09IXQ==

>  <s_epik_cmdline>  (82) 
J2VwaWtfcHl0aG9uJywgJy1waHQnLCAnMi4wJywgJy1waCcsICc3LjAnLCAnLXRuJywgJzgnLCAnLW1hJywgJzIwMCcsICctaW1hZScsICc8aW5maWxlLm1hZT4nLCAnLW9tYWUnLCAnPG91dGZpbGUubWFlPic=

>  <r_lp_tautomer_probability>  (82) 
1

>  <r_epik_Ionization_Penalty>  (82) 
3.82367e-06

>  <r_epik_Ionization_Penalty_Charging>  (82) 
0

>  <r_epik_Ionization_Penalty_Neutral>  (82) 
3.82367e-06

>  <r_epik_State_Penalty>  (82) 
-0

>  <r_epik_Charging_Adjusted_Penalty>  (82) 
0

>  <i_epik_Tot_Q>  (82) 
0

>  <i_epik_Tot_abs_Q>  (82) 
0

>  <s_lp_Force_Field>  (82) 
OPLS3e

>  <r_lp_Energy>  (82) 
53.8029

>  <b_lp_Chiralities_Consistent>  (82) 
1

>  <s_lp_Variant>  (82) 
25:0-1

>  <s_i_glide_gridfile>  (82) 
pfpi4k_grid

>  <i_i_glide_lignum>  (82) 
35

>  <i_i_glide_rotatable_bonds>  (82) 
4

>  <r_i_docking_score>  (82) 
-2.94744

>  <r_i_glide_ligand_efficiency>  (82) 
-0.12815

>  <r_i_glide_ligand_efficiency_sa>  (82) 
-0.364441

>  <r_i_glide_ligand_efficiency_ln>  (82) 
-0.712718

>  <r_i_glide_gscore>  (82) 
-2.94744

>  <r_i_glide_lipo>  (82) 
-0.0796192

>  <r_i_glide_hbond>  (82) 
-0.0648461

>  <r_i_glide_metal>  (82) 
-0

>  <r_i_glide_rewards>  (82) 
-1.21064

>  <r_i_glide_evdw>  (82) 
-19.7448

>  <r_i_glide_ecoul>  (82) 
-4.03396

>  <r_i_glide_erotb>  (82) 
0

>  <r_i_glide_esite>  (82) 
0

>  <r_i_glide_emodel>  (82) 
-28.4472

>  <r_i_glide_energy>  (82) 
-23.7788

>  <r_i_glide_einternal>  (82) 
0.338122

>  <r_i_glide_intrahb_reward>  (82) 
-0

>  <i_i_glide_confnum>  (82) 
2

>  <i_i_glide_posenum>  (82) 
37

>  <r_i_glide_eff_state_penalty>  (82) 
0

>  <ligand_id>  (82) 
25

>  <original_smiles>  (82) 
C=C1CC23CC1CC(O)C2C1(C)C(O)CCC(C)(O)C1CC3O

>  <smiles>  (82) 
[H]OC1([H])C([H])([H])C2([H])C(=C([H])[H])C([H])([H])C3(C2([H])[H])C([H])(O[H])C([H])([H])C2([H])C(O[H])(C([H])([H])[H])C([H])([H])C([H])([H])C([H])(O[H])C2(C([H])([H])[H])C13[H]

$$$$
29:0:0
     RDKit          3D

 66 71  0  0  1  0  0  0  0  0999 V2000
    3.2992   -8.3920    3.3478 C   0  0  0  0  0  0  0  0  0  0  0  0
    3.9648   -7.1542    3.5871 O   0  0  0  0  0  0  0  0  0  0  0  0
    3.1462   -6.1051    4.0864 C   0  0  2  0  0  0  0  0  0  0  0  0
    2.1095   -5.6464    3.0397 C   0  0  0  0  0  0  0  0  0  0  0  0
    1.9760   -4.1219    2.9101 C   0  0  2  0  0  0  0  0  0  0  0  0
    2.9024   -3.3767    1.8463 C   0  0  1  0  0  0  0  0  0  0  0  0
    3.4621   -1.9845    2.2217 C   0  0  0  0  0  0  0  0  0  0  0  0
    4.4451   -1.8980    3.3768 C   0  0  0  0  0  0  0  0  0  0  0  0
    5.5808   -1.4993    3.1595 O   0  0  0  0  0  0  0  0  0  0  0  0
    4.0040   -2.2419    4.8040 C   0  0  0  0  0  0  0  0  0  0  0  0
    3.2030   -3.5559    4.9801 C   0  0  1  0  0  0  0  0  0  0  0  0
    1.7944   -3.4944    4.3286 C   0  0  0  0  0  0  0  0  0  0  0  0
    1.1030   -2.0911    4.3050 C   0  0  0  0  0  0  0  0  0  0  0  0
    0.7704   -4.2800    5.2157 C   0  0  0  0  0  0  0  0  0  0  0  0
    3.9939   -4.9377    4.7264 C   0  0  1  0  0  0  0  0  0  0  0  0
    4.0768   -5.3858    6.0729 O   0  0  0  0  0  0  0  0  0  0  0  0
    5.5064   -4.8291    4.2044 C   0  0  1  0  0  0  0  0  0  0  0  0
    6.5397   -5.4953    5.1682 C   0  0  0  0  0  0  0  0  0  0  0  0
    5.9520   -5.1326    2.7142 C   0  0  1  0  0  0  0  0  0  0  0  0
    6.3553   -6.4855    2.5221 O   0  0  0  0  0  0  0  0  0  0  0  0
    5.3315   -4.5371    1.3864 C   0  0  2  0  0  0  0  0  0  0  0  0
    6.4297   -4.0627    0.4173 C   0  0  0  0  0  0  0  0  0  0  0  0
    7.5839   -3.8206    0.7762 O   0  0  0  0  0  0  0  0  0  0  0  0
    6.1021   -3.8395   -0.8825 O   0  0  0  0  0  0  0  0  0  0  0  0
    4.8526   -4.1620   -1.4940 C   0  0  2  0  0  0  0  0  0  0  0  0
    4.7454   -3.3387   -2.8031 C   0  0  1  0  0  0  0  0  0  0  0  0
    4.3297   -4.0891   -3.9261 O   0  0  0  0  0  0  0  0  0  0  0  0
    3.7513   -2.2566   -2.4485 C   0  0  0  0  0  0  0  0  0  0  0  0
    3.1899   -1.5128   -3.2548 O   0  0  0  0  0  0  0  0  0  0  0  0
    3.5585   -2.2150   -0.9446 C   0  0  0  0  0  0  0  0  0  0  0  0
    3.6898   -3.7096   -0.5793 C   0  0  2  0  0  0  0  0  0  0  0  0
    3.9124   -4.1036    0.9051 C   0  0  2  0  0  0  0  0  0  0  0  0
    4.2989   -5.5434    0.9158 C   0  0  0  0  0  0  0  0  0  0  0  0
    4.0287   -6.7122    0.6440 O   0  0  0  0  0  0  0  0  0  0  0  0
    4.0321   -9.1438    3.0468 H   0  0  0  0  0  0  0  0  0  0  0  0
    2.5707   -8.3089    2.5404 H   0  0  0  0  0  0  0  0  0  0  0  0
    2.7891   -8.7634    4.2391 H   0  0  0  0  0  0  0  0  0  0  0  0
    2.5667   -6.5780    4.8843 H   0  0  0  0  0  0  0  0  0  0  0  0
    2.1889   -6.1265    2.0762 H   0  0  0  0  0  0  0  0  0  0  0  0
    1.1476   -6.0377    3.3737 H   0  0  0  0  0  0  0  0  0  0  0  0
    0.9896   -4.0225    2.4886 H   0  0  0  0  0  0  0  0  0  0  0  0
    2.1298   -3.0743    1.1378 H   0  0  0  0  0  0  0  0  0  0  0  0
    4.0533   -1.6154    1.3915 H   0  0  0  0  0  0  0  0  0  0  0  0
    2.6836   -1.2383    2.3118 H   0  0  0  0  0  0  0  0  0  0  0  0
    4.8851   -2.2716    5.4457 H   0  0  0  0  0  0  0  0  0  0  0  0
    3.4394   -1.3953    5.1861 H   0  0  0  0  0  0  0  0  0  0  0  0
    2.9703   -3.4910    6.0451 H   0  0  0  0  0  0  0  0  0  0  0  0
    0.7712   -1.7858    5.2984 H   0  0  0  0  0  0  0  0  0  0  0  0
    0.2148   -2.1008    3.6718 H   0  0  0  0  0  0  0  0  0  0  0  0
    1.7038   -1.2556    3.9802 H   0  0  0  0  0  0  0  0  0  0  0  0
    0.5451   -3.7454    6.1399 H   0  0  0  0  0  0  0  0  0  0  0  0
    1.1173   -5.2469    5.5627 H   0  0  0  0  0  0  0  0  0  0  0  0
   -0.1780   -4.4308    4.6957 H   0  0  0  0  0  0  0  0  0  0  0  0
    4.4807   -6.2422    6.0681 H   0  0  0  0  0  0  0  0  0  0  0  0
    5.8165   -3.8107    4.3566 H   0  0  0  0  0  0  0  0  0  0  0  0
    6.3710   -6.5666    5.2824 H   0  0  0  0  0  0  0  0  0  0  0  0
    6.5151   -5.0401    6.1598 H   0  0  0  0  0  0  0  0  0  0  0  0
    7.5643   -5.3636    4.8184 H   0  0  0  0  0  0  0  0  0  0  0  0
    6.9388   -4.6900    2.7779 H   0  0  0  0  0  0  0  0  0  0  0  0
    5.5900   -7.0346    2.6501 H   0  0  0  0  0  0  0  0  0  0  0  0
    4.8066   -5.2308   -1.7077 H   0  0  0  0  0  0  0  0  0  0  0  0
    5.6935   -2.8635   -3.0627 H   0  0  0  0  0  0  0  0  0  0  0  0
    3.6529   -4.7004   -3.6453 H   0  0  0  0  0  0  0  0  0  0  0  0
    4.3715   -1.6077   -0.5489 H   0  0  0  0  0  0  0  0  0  0  0  0
    2.6161   -1.7652   -0.6574 H   0  0  0  0  0  0  0  0  0  0  0  0
    2.7678   -4.2108   -0.8988 H   0  0  0  0  0  0  0  0  0  0  0  0
  1  2  1  0
  1 35  1  0
  1 36  1  0
  1 37  1  0
  2  3  1  0
  3 15  1  0
  3  4  1  0
  3 38  1  1
  4  5  1  0
  4 39  1  0
  4 40  1  0
  5 12  1  0
  5  6  1  0
  5 41  1  6
  6 32  1  0
  6  7  1  0
  6 42  1  6
  7  8  1  0
  7 43  1  0
  7 44  1  0
  8  9  2  0
  8 10  1  0
 10 11  1  0
 10 45  1  0
 10 46  1  0
 11 12  1  0
 11 15  1  0
 11 47  1  1
 12 13  1  0
 12 14  1  0
 13 48  1  0
 13 49  1  0
 13 50  1  0
 14 51  1  0
 14 52  1  0
 14 53  1  0
 15 16  1  1
 15 17  1  0
 16 54  1  0
 17 18  1  0
 17 19  1  0
 17 55  1  6
 18 56  1  0
 18 57  1  0
 18 58  1  0
 19 20  1  0
 19 21  1  0
 19 59  1  1
 20 60  1  0
 21 32  1  0
 21 33  1  6
 21 22  1  0
 22 23  2  0
 22 24  1  0
 24 25  1  0
 25 31  1  0
 25 26  1  0
 25 61  1  6
 26 27  1  0
 26 28  1  0
 26 62  1  6
 27 63  1  0
 28 29  2  0
 28 30  1  0
 30 31  1  0
 30 64  1  0
 30 65  1  0
 31 32  1  0
 31 66  1  6
 32 33  1  6
 33 34  2  0
M  END
>  <i_m_ct_stereo_status>  (83) 
1

>  <s_m_source_file>  (83) 
/var/tmp/pbs.5076255.sched01/tmpcyubysk0/0_f5co88n.sdf

>  <i_m_source_file_index>  (83) 
39

>  <i_lp_mmshare_version>  (83) 
48012

>  <i_f3d_flags>  (83) 
0

>  <s_epik_input>  (83) 
W0NIMl0xQyg9TylbQ0gyXVtDQEBIXShDMihbQ0gzXSlbQ0gzXSlbQ0BdKFtPSF0pKFtDQEBIXShbQ0gzXSlbQ0BIXTNbT0hdKVtDQEhdKE9bQ0gzXSlbQ0gyXVtDQEBIXTJbQ0BASF0xQyhDMzQ1KShDNT1PKVtDQEBIXTZbQ0BIXShPQzQ9TylbQ0BASF0oW09IXSlDKD1PKVtDSDJdNg==

>  <s_epik_cmdline>  (83) 
J2VwaWtfcHl0aG9uJywgJy1waHQnLCAnMi4wJywgJy1waCcsICc3LjAnLCAnLXRuJywgJzgnLCAnLW1hJywgJzIwMCcsICctaW1hZScsICc8aW5maWxlLm1hZT4nLCAnLW9tYWUnLCAnPG91dGZpbGUubWFlPic=

>  <r_lp_tautomer_probability>  (83) 
1

>  <r_epik_Ionization_Penalty>  (83) 
5.14981e-05

>  <r_epik_Ionization_Penalty_Charging>  (83) 
0

>  <r_epik_Ionization_Penalty_Neutral>  (83) 
5.14981e-05

>  <r_epik_State_Penalty>  (83) 
-0

>  <r_epik_Charging_Adjusted_Penalty>  (83) 
0

>  <i_epik_Tot_Q>  (83) 
0

>  <i_epik_Tot_abs_Q>  (83) 
0

>  <s_epik_Chemistry_Notes>  (83) 
This compound has an ester and may undergo hydrolysis at high or low pH.

>  <s_lp_Force_Field>  (83) 
OPLS3e

>  <r_lp_Energy>  (83) 
122.411

>  <b_lp_Chiralities_Consistent>  (83) 
1

>  <s_lp_Variant>  (83) 
29:0-1

>  <s_i_glide_gridfile>  (83) 
pfpi4k_grid

>  <i_i_glide_lignum>  (83) 
39

>  <i_i_glide_rotatable_bonds>  (83) 
4

>  <r_i_docking_score>  (83) 
-3.54342

>  <r_i_glide_ligand_efficiency>  (83) 
-0.104218

>  <r_i_glide_ligand_efficiency_sa>  (83) 
-0.337627

>  <r_i_glide_ligand_efficiency_ln>  (83) 
-0.782842

>  <r_i_glide_gscore>  (83) 
-3.54342

>  <r_i_glide_lipo>  (83) 
-0.2165

>  <r_i_glide_hbond>  (83) 
0

>  <r_i_glide_metal>  (83) 
-0

>  <r_i_glide_rewards>  (83) 
-0.914622

>  <r_i_glide_evdw>  (83) 
-24.1416

>  <r_i_glide_ecoul>  (83) 
-7.99422

>  <r_i_glide_erotb>  (83) 
0

>  <r_i_glide_esite>  (83) 
-0.00608682

>  <r_i_glide_emodel>  (83) 
-43.3356

>  <r_i_glide_energy>  (83) 
-32.1359

>  <r_i_glide_einternal>  (83) 
1.69242

>  <r_i_glide_intrahb_reward>  (83) 
-0.5

>  <i_i_glide_confnum>  (83) 
2

>  <i_i_glide_posenum>  (83) 
3

>  <r_i_glide_eff_state_penalty>  (83) 
0

>  <ligand_id>  (83) 
29

>  <original_smiles>  (83) 
COC1CC2C3CC(=O)CC(C2(C)C)C1(O)C(C)C(O)C12C(=O)OC4C(O)C(=O)CC4C31C2=O

>  <smiles>  (83) 
[H]OC1([H])C(=O)C([H])([H])C2([H])C1([H])OC(=O)C13C(=O)C12C1([H])C([H])([H])C(=O)C([H])([H])C2([H])C(O[H])(C([H])(OC([H])([H])[H])C([H])([H])C1([H])C2(C([H])([H])[H])C([H])([H])[H])C([H])(C([H])([H])[H])C3([H])O[H]

$$$$
29:0:1
     RDKit          3D

 66 71  0  0  1  0  0  0  0  0999 V2000
    2.6334   -6.1503    5.2052 C   0  0  0  0  0  0  0  0  0  0  0  0
    2.5200   -5.3308    4.0351 O   0  0  0  0  0  0  0  0  0  0  0  0
    2.1286   -3.9851    4.2716 C   0  0  2  0  0  0  0  0  0  0  0  0
    1.3463   -3.4600    3.0443 C   0  0  0  0  0  0  0  0  0  0  0  0
    1.6511   -2.0044    2.6197 C   0  0  2  0  0  0  0  0  0  0  0  0
    2.8177   -1.7718    1.5572 C   0  0  1  0  0  0  0  0  0  0  0  0
    3.7541   -0.5595    1.7583 C   0  0  0  0  0  0  0  0  0  0  0  0
    4.6527   -0.5603    2.9804 C   0  0  0  0  0  0  0  0  0  0  0  0
    5.8696   -0.6066    2.8287 O   0  0  0  0  0  0  0  0  0  0  0  0
    4.0644   -0.4763    4.3845 C   0  0  0  0  0  0  0  0  0  0  0  0
    2.8987   -1.4468    4.6875 C   0  0  1  0  0  0  0  0  0  0  0  0
    1.6026   -1.1048    3.8933 C   0  0  0  0  0  0  0  0  0  0  0  0
    1.3699    0.4113    3.5833 C   0  0  0  0  0  0  0  0  0  0  0  0
    0.3483   -1.3800    4.7957 C   0  0  0  0  0  0  0  0  0  0  0  0
    3.2699   -3.0219    4.7545 C   0  0  1  0  0  0  0  0  0  0  0  0
    3.1843   -3.1830    6.1532 O   0  0  0  0  0  0  0  0  0  0  0  0
    4.7725   -3.4488    4.3688 C   0  0  1  0  0  0  0  0  0  0  0  0
    5.5947   -4.1674    5.5105 C   0  0  0  0  0  0  0  0  0  0  0  0
    5.1440   -4.1391    2.9887 C   0  0  1  0  0  0  0  0  0  0  0  0
    5.1457   -5.5542    3.0750 O   0  0  0  0  0  0  0  0  0  0  0  0
    4.7810   -3.6645    1.5197 C   0  0  2  0  0  0  0  0  0  0  0  0
    6.0108   -3.7327    0.5843 C   0  0  0  0  0  0  0  0  0  0  0  0
    7.1580   -3.7396    1.0184 O   0  0  0  0  0  0  0  0  0  0  0  0
    5.8195   -3.7110   -0.7617 O   0  0  0  0  0  0  0  0  0  0  0  0
    4.5611   -3.7023   -1.4308 C   0  0  2  0  0  0  0  0  0  0  0  0
    4.7752   -3.1141   -2.8492 C   0  0  1  0  0  0  0  0  0  0  0  0
    4.1902   -3.8642   -3.8931 O   0  0  0  0  0  0  0  0  0  0  0  0
    4.1472   -1.7357   -2.7617 C   0  0  0  0  0  0  0  0  0  0  0  0
    3.8840   -1.0175   -3.7211 O   0  0  0  0  0  0  0  0  0  0  0  0
    3.8921   -1.3791   -1.3190 C   0  0  0  0  0  0  0  0  0  0  0  0
    3.5634   -2.7546   -0.7032 C   0  0  2  0  0  0  0  0  0  0  0  0
    3.5931   -2.9243    0.8394 C   0  0  2  0  0  0  0  0  0  0  0  0
    3.5071   -4.3873    1.1108 C   0  0  0  0  0  0  0  0  0  0  0  0
    2.9017   -5.4494    1.0037 O   0  0  0  0  0  0  0  0  0  0  0  0
    3.0420   -7.1249    4.9146 H   0  0  0  0  0  0  0  0  0  0  0  0
    1.6558   -6.3028    5.6511 H   0  0  0  0  0  0  0  0  0  0  0  0
    3.2944   -5.7249    5.9394 H   0  0  0  0  0  0  0  0  0  0  0  0
    1.3600   -4.0769    5.0328 H   0  0  0  0  0  0  0  0  0  0  0  0
    1.3710   -4.1569    2.2283 H   0  0  0  0  0  0  0  0  0  0  0  0
    0.2903   -3.4847    3.3230 H   0  0  0  0  0  0  0  0  0  0  0  0
    0.7581   -1.7130    2.0682 H   0  0  0  0  0  0  0  0  0  0  0  0
    2.2168   -1.3868    0.7473 H   0  0  0  0  0  0  0  0  0  0  0  0
    4.4615   -0.5327    0.9378 H   0  0  0  0  0  0  0  0  0  0  0  0
    3.2306    0.3837    1.6498 H   0  0  0  0  0  0  0  0  0  0  0  0
    4.8621   -0.6466    5.1044 H   0  0  0  0  0  0  0  0  0  0  0  0
    3.7676    0.5545    4.5621 H   0  0  0  0  0  0  0  0  0  0  0  0
    2.6431   -1.1161    5.6957 H   0  0  0  0  0  0  0  0  0  0  0  0
    1.1034    0.9744    4.4760 H   0  0  0  0  0  0  0  0  0  0  0  0
    0.5542    0.5474    2.8736 H   0  0  0  0  0  0  0  0  0  0  0  0
    2.2105    0.9591    3.1887 H   0  0  0  0  0  0  0  0  0  0  0  0
    0.2572   -0.6471    5.5962 H   0  0  0  0  0  0  0  0  0  0  0  0
    0.3668   -2.3224    5.3278 H   0  0  0  0  0  0  0  0  0  0  0  0
   -0.5770   -1.3436    4.2200 H   0  0  0  0  0  0  0  0  0  0  0  0
    3.3576   -4.0830    6.3549 H   0  0  0  0  0  0  0  0  0  0  0  0
    5.3565   -2.5579    4.3484 H   0  0  0  0  0  0  0  0  0  0  0  0
    5.2494   -5.1618    5.7839 H   0  0  0  0  0  0  0  0  0  0  0  0
    5.6184   -3.5366    6.4075 H   0  0  0  0  0  0  0  0  0  0  0  0
    6.6448   -4.2560    5.2167 H   0  0  0  0  0  0  0  0  0  0  0  0
    6.1889   -3.9719    3.0525 H   0  0  0  0  0  0  0  0  0  0  0  0
    5.5775   -5.7790    3.8799 H   0  0  0  0  0  0  0  0  0  0  0  0
    4.1704   -4.7144   -1.4900 H   0  0  0  0  0  0  0  0  0  0  0  0
    5.8312   -2.9988   -3.0817 H   0  0  0  0  0  0  0  0  0  0  0  0
    3.8758   -4.6851   -3.5397 H   0  0  0  0  0  0  0  0  0  0  0  0
    4.8270   -0.9547   -0.9424 H   0  0  0  0  0  0  0  0  0  0  0  0
    3.0774   -0.6715   -1.2166 H   0  0  0  0  0  0  0  0  0  0  0  0
    2.5440   -3.0057   -1.0207 H   0  0  0  0  0  0  0  0  0  0  0  0
  1  2  1  0
  1 35  1  0
  1 36  1  0
  1 37  1  0
  2  3  1  0
  3 15  1  0
  3  4  1  0
  3 38  1  1
  4  5  1  0
  4 39  1  0
  4 40  1  0
  5 12  1  0
  5  6  1  0
  5 41  1  6
  6 32  1  0
  6  7  1  0
  6 42  1  6
  7  8  1  0
  7 43  1  0
  7 44  1  0
  8  9  2  0
  8 10  1  0
 10 11  1  0
 10 45  1  0
 10 46  1  0
 11 12  1  0
 11 15  1  0
 11 47  1  1
 12 13  1  0
 12 14  1  0
 13 48  1  0
 13 49  1  0
 13 50  1  0
 14 51  1  0
 14 52  1  0
 14 53  1  0
 15 16  1  1
 15 17  1  0
 16 54  1  0
 17 18  1  0
 17 19  1  0
 17 55  1  6
 18 56  1  0
 18 57  1  0
 18 58  1  0
 19 20  1  0
 19 21  1  0
 19 59  1  6
 20 60  1  0
 21 32  1  0
 21 33  1  6
 21 22  1  0
 22 23  2  0
 22 24  1  0
 24 25  1  0
 25 31  1  0
 25 26  1  0
 25 61  1  6
 26 27  1  0
 26 28  1  0
 26 62  1  6
 27 63  1  0
 28 29  2  0
 28 30  1  0
 30 31  1  0
 30 64  1  0
 30 65  1  0
 31 32  1  0
 31 66  1  6
 32 33  1  6
 33 34  2  0
M  END
>  <i_m_ct_stereo_status>  (84) 
1

>  <s_m_source_file>  (84) 
/var/tmp/pbs.5076255.sched01/tmpcyubysk0/0_f5co88n.sdf

>  <i_m_source_file_index>  (84) 
39

>  <i_lp_mmshare_version>  (84) 
48012

>  <i_f3d_flags>  (84) 
0

>  <s_epik_input>  (84) 
W0NIMl0xQyg9TylbQ0gyXVtDQEBIXShDMihbQ0gzXSlbQ0gzXSlbQ0BdKFtPSF0pKFtDQEBIXShbQ0gzXSlbQ0BIXTNbT0hdKVtDQEhdKE9bQ0gzXSlbQ0gyXVtDQEBIXTJbQ0BASF0xQyhDMzQ1KShDNT1PKVtDQEBIXTZbQ0BIXShPQzQ9TylbQ0BASF0oW09IXSlDKD1PKVtDSDJdNg==

>  <s_epik_cmdline>  (84) 
J2VwaWtfcHl0aG9uJywgJy1waHQnLCAnMi4wJywgJy1waCcsICc3LjAnLCAnLXRuJywgJzgnLCAnLW1hJywgJzIwMCcsICctaW1hZScsICc8aW5maWxlLm1hZT4nLCAnLW9tYWUnLCAnPG91dGZpbGUubWFlPic=

>  <r_lp_tautomer_probability>  (84) 
1

>  <r_epik_Ionization_Penalty>  (84) 
5.14981e-05

>  <r_epik_Ionization_Penalty_Charging>  (84) 
0

>  <r_epik_Ionization_Penalty_Neutral>  (84) 
5.14981e-05

>  <r_epik_State_Penalty>  (84) 
-0

>  <r_epik_Charging_Adjusted_Penalty>  (84) 
0

>  <i_epik_Tot_Q>  (84) 
0

>  <i_epik_Tot_abs_Q>  (84) 
0

>  <s_epik_Chemistry_Notes>  (84) 
This compound has an ester and may undergo hydrolysis at high or low pH.

>  <s_lp_Force_Field>  (84) 
OPLS3e

>  <r_lp_Energy>  (84) 
122.411

>  <b_lp_Chiralities_Consistent>  (84) 
1

>  <s_lp_Variant>  (84) 
29:0-1

>  <s_i_glide_gridfile>  (84) 
pfpi4k_grid

>  <i_i_glide_lignum>  (84) 
39

>  <i_i_glide_rotatable_bonds>  (84) 
4

>  <r_i_docking_score>  (84) 
-3.26403

>  <r_i_glide_ligand_efficiency>  (84) 
-0.0960009

>  <r_i_glide_ligand_efficiency_sa>  (84) 
-0.311006

>  <r_i_glide_ligand_efficiency_ln>  (84) 
-0.721116

>  <r_i_glide_gscore>  (84) 
-3.26403

>  <r_i_glide_lipo>  (84) 
-0.248768

>  <r_i_glide_hbond>  (84) 
0

>  <r_i_glide_metal>  (84) 
-0

>  <r_i_glide_rewards>  (84) 
-0.39157

>  <r_i_glide_evdw>  (84) 
-27.9254

>  <r_i_glide_ecoul>  (84) 
-8.17364

>  <r_i_glide_erotb>  (84) 
0

>  <r_i_glide_esite>  (84) 
-0.00137697

>  <r_i_glide_emodel>  (84) 
-38.9788

>  <r_i_glide_energy>  (84) 
-36.099

>  <r_i_glide_einternal>  (84) 
3.75157

>  <r_i_glide_intrahb_reward>  (84) 
-0

>  <i_i_glide_confnum>  (84) 
2

>  <i_i_glide_posenum>  (84) 
24

>  <r_i_glide_eff_state_penalty>  (84) 
0

>  <ligand_id>  (84) 
29

>  <original_smiles>  (84) 
COC1CC2C3CC(=O)CC(C2(C)C)C1(O)C(C)C(O)C12C(=O)OC4C(O)C(=O)CC4C31C2=O

>  <smiles>  (84) 
[H]OC1([H])C(=O)C([H])([H])C2([H])C1([H])OC(=O)C13C(=O)C12C1([H])C([H])([H])C(=O)C([H])([H])C2([H])C(O[H])(C([H])(OC([H])([H])[H])C([H])([H])C1([H])C2(C([H])([H])[H])C([H])([H])[H])C([H])(C([H])([H])[H])C3([H])O[H]

$$$$
29:0:2
     RDKit          3D

 66 71  0  0  1  0  0  0  0  0999 V2000
    0.4278   -9.7990    2.9742 C   0  0  0  0  0  0  0  0  0  0  0  0
    0.7216   -8.3967    2.8080 O   0  0  0  0  0  0  0  0  0  0  0  0
    0.8740   -7.6781    4.0270 C   0  0  2  0  0  0  0  0  0  0  0  0
    0.3829   -6.2141    3.8518 C   0  0  0  0  0  0  0  0  0  0  0  0
    1.2679   -5.1352    4.5200 C   0  0  2  0  0  0  0  0  0  0  0  0
    2.4497   -4.5043    3.6596 C   0  0  1  0  0  0  0  0  0  0  0  0
    3.8014   -4.2221    4.3664 C   0  0  0  0  0  0  0  0  0  0  0  0
    4.6031   -5.4038    4.8868 C   0  0  0  0  0  0  0  0  0  0  0  0
    5.7157   -5.6372    4.4086 O   0  0  0  0  0  0  0  0  0  0  0  0
    4.0621   -6.2702    6.0217 C   0  0  0  0  0  0  0  0  0  0  0  0
    2.5956   -6.7433    5.8702 C   0  0  1  0  0  0  0  0  0  0  0  0
    1.5659   -5.5785    5.9898 C   0  0  0  0  0  0  0  0  0  0  0  0
    1.9732   -4.3987    6.9333 C   0  0  0  0  0  0  0  0  0  0  0  0
    0.2891   -6.0831    6.7509 C   0  0  0  0  0  0  0  0  0  0  0  0
    2.2959   -7.8097    4.6906 C   0  0  1  0  0  0  0  0  0  0  0  0
    2.1088   -8.9381    5.5126 O   0  0  0  0  0  0  0  0  0  0  0  0
    3.5109   -8.1767    3.7054 C   0  0  1  0  0  0  0  0  0  0  0  0
    3.9543   -9.7021    3.6898 C   0  0  0  0  0  0  0  0  0  0  0  0
    3.6084   -7.6341    2.2224 C   0  0  1  0  0  0  0  0  0  0  0  0
    3.0097   -8.5248    1.2880 O   0  0  0  0  0  0  0  0  0  0  0  0
    3.4961   -6.1291    1.7287 C   0  0  2  0  0  0  0  0  0  0  0  0
    4.6108   -5.7916    0.7235 C   0  0  0  0  0  0  0  0  0  0  0  0
    5.6614   -6.4184    0.6990 O   0  0  0  0  0  0  0  0  0  0  0  0
    4.4635   -4.7092   -0.0870 O   0  0  0  0  0  0  0  0  0  0  0  0
    3.3310   -3.8336   -0.1358 C   0  0  2  0  0  0  0  0  0  0  0  0
    3.8115   -2.4547   -0.6821 C   0  0  1  0  0  0  0  0  0  0  0  0
    3.0292   -1.9209   -1.7505 O   0  0  0  0  0  0  0  0  0  0  0  0
    3.8126   -1.5667    0.5437 C   0  0  0  0  0  0  0  0  0  0  0  0
    3.8991   -0.3415    0.5235 O   0  0  0  0  0  0  0  0  0  0  0  0
    3.6835   -2.3884    1.7966 C   0  0  0  0  0  0  0  0  0  0  0  0
    2.8190   -3.5678    1.3030 C   0  0  2  0  0  0  0  0  0  0  0  0
    2.7179   -4.8559    2.1603 C   0  0  2  0  0  0  0  0  0  0  0  0
    2.0527   -5.8912    1.3324 C   0  0  0  0  0  0  0  0  0  0  0  0
    1.0581   -6.2732    0.6906 O   0  0  0  0  0  0  0  0  0  0  0  0
    0.4178  -10.2787    1.9827 H   0  0  0  0  0  0  0  0  0  0  0  0
   -0.5569   -9.9369    3.4345 H   0  0  0  0  0  0  0  0  0  0  0  0
    1.1506  -10.3081    3.5629 H   0  0  0  0  0  0  0  0  0  0  0  0
    0.1159   -8.1049    4.6820 H   0  0  0  0  0  0  0  0  0  0  0  0
    0.1142   -5.9585    2.8381 H   0  0  0  0  0  0  0  0  0  0  0  0
   -0.5960   -6.1619    4.3388 H   0  0  0  0  0  0  0  0  0  0  0  0
    0.5797   -4.2991    4.6356 H   0  0  0  0  0  0  0  0  0  0  0  0
    2.0588   -3.4868    3.5810 H   0  0  0  0  0  0  0  0  0  0  0  0
    4.4821   -3.7767    3.6512 H   0  0  0  0  0  0  0  0  0  0  0  0
    3.7114   -3.4494    5.1233 H   0  0  0  0  0  0  0  0  0  0  0  0
    4.7051   -7.1414    6.1324 H   0  0  0  0  0  0  0  0  0  0  0  0
    4.2023   -5.7274    6.9529 H   0  0  0  0  0  0  0  0  0  0  0  0
    2.4714   -7.2503    6.8305 H   0  0  0  0  0  0  0  0  0  0  0  0
    1.9361   -4.6853    7.9854 H   0  0  0  0  0  0  0  0  0  0  0  0
    1.2953   -3.5528    6.8189 H   0  0  0  0  0  0  0  0  0  0  0  0
    2.9701   -4.0115    6.8199 H   0  0  0  0  0  0  0  0  0  0  0  0
    0.4849   -6.2454    7.8100 H   0  0  0  0  0  0  0  0  0  0  0  0
   -0.0852   -7.0430    6.4234 H   0  0  0  0  0  0  0  0  0  0  0  0
   -0.5308   -5.3663    6.6845 H   0  0  0  0  0  0  0  0  0  0  0  0
    1.7966   -9.6568    4.9925 H   0  0  0  0  0  0  0  0  0  0  0  0
    4.4008   -7.8049    4.1511 H   0  0  0  0  0  0  0  0  0  0  0  0
    3.2645  -10.3970    3.2526 H   0  0  0  0  0  0  0  0  0  0  0  0
    4.2036  -10.0246    4.7171 H   0  0  0  0  0  0  0  0  0  0  0  0
    4.8958   -9.7955    3.1283 H   0  0  0  0  0  0  0  0  0  0  0  0
    4.6499   -7.8979    2.0625 H   0  0  0  0  0  0  0  0  0  0  0  0
    2.1404   -8.7265    1.6055 H   0  0  0  0  0  0  0  0  0  0  0  0
    2.5526   -4.2508   -0.7853 H   0  0  0  0  0  0  0  0  0  0  0  0
    4.8318   -2.5224   -1.0686 H   0  0  0  0  0  0  0  0  0  0  0  0
    2.1688   -1.6502   -1.4175 H   0  0  0  0  0  0  0  0  0  0  0  0
    4.6975   -2.6905    2.0420 H   0  0  0  0  0  0  0  0  0  0  0  0
    3.2512   -1.8031    2.6118 H   0  0  0  0  0  0  0  0  0  0  0  0
    1.8115   -3.1654    1.2217 H   0  0  0  0  0  0  0  0  0  0  0  0
  1  2  1  0
  1 35  1  0
  1 36  1  0
  1 37  1  0
  2  3  1  0
  3 15  1  0
  3  4  1  0
  3 38  1  1
  4  5  1  0
  4 39  1  0
  4 40  1  0
  5 12  1  0
  5  6  1  0
  5 41  1  1
  6 32  1  0
  6  7  1  0
  6 42  1  6
  7  8  1  0
  7 43  1  0
  7 44  1  0
  8  9  2  0
  8 10  1  0
 10 11  1  0
 10 45  1  0
 10 46  1  0
 11 12  1  0
 11 15  1  0
 11 47  1  1
 12 13  1  0
 12 14  1  0
 13 48  1  0
 13 49  1  0
 13 50  1  0
 14 51  1  0
 14 52  1  0
 14 53  1  0
 15 16  1  1
 15 17  1  0
 16 54  1  0
 17 18  1  0
 17 19  1  0
 17 55  1  1
 18 56  1  0
 18 57  1  0
 18 58  1  0
 19 20  1  0
 19 21  1  0
 19 59  1  6
 20 60  1  0
 21 32  1  0
 21 33  1  6
 21 22  1  0
 22 23  2  0
 22 24  1  0
 24 25  1  0
 25 31  1  0
 25 26  1  0
 25 61  1  6
 26 27  1  0
 26 28  1  0
 26 62  1  6
 27 63  1  0
 28 29  2  0
 28 30  1  0
 30 31  1  0
 30 64  1  0
 30 65  1  0
 31 32  1  0
 31 66  1  6
 32 33  1  6
 33 34  2  0
M  END
>  <i_m_ct_stereo_status>  (85) 
1

>  <s_m_source_file>  (85) 
/var/tmp/pbs.5076255.sched01/tmpcyubysk0/0_f5co88n.sdf

>  <i_m_source_file_index>  (85) 
39

>  <i_lp_mmshare_version>  (85) 
48012

>  <i_f3d_flags>  (85) 
0

>  <s_epik_input>  (85) 
W0NIMl0xQyg9TylbQ0gyXVtDQEBIXShDMihbQ0gzXSlbQ0gzXSlbQ0BdKFtPSF0pKFtDQEBIXShbQ0gzXSlbQ0BIXTNbT0hdKVtDQEhdKE9bQ0gzXSlbQ0gyXVtDQEBIXTJbQ0BASF0xQyhDMzQ1KShDNT1PKVtDQEBIXTZbQ0BIXShPQzQ9TylbQ0BASF0oW09IXSlDKD1PKVtDSDJdNg==

>  <s_epik_cmdline>  (85) 
J2VwaWtfcHl0aG9uJywgJy1waHQnLCAnMi4wJywgJy1waCcsICc3LjAnLCAnLXRuJywgJzgnLCAnLW1hJywgJzIwMCcsICctaW1hZScsICc8aW5maWxlLm1hZT4nLCAnLW9tYWUnLCAnPG91dGZpbGUubWFlPic=

>  <r_lp_tautomer_probability>  (85) 
1

>  <r_epik_Ionization_Penalty>  (85) 
5.14981e-05

>  <r_epik_Ionization_Penalty_Charging>  (85) 
0

>  <r_epik_Ionization_Penalty_Neutral>  (85) 
5.14981e-05

>  <r_epik_State_Penalty>  (85) 
-0

>  <r_epik_Charging_Adjusted_Penalty>  (85) 
0

>  <i_epik_Tot_Q>  (85) 
0

>  <i_epik_Tot_abs_Q>  (85) 
0

>  <s_epik_Chemistry_Notes>  (85) 
This compound has an ester and may undergo hydrolysis at high or low pH.

>  <s_lp_Force_Field>  (85) 
OPLS3e

>  <r_lp_Energy>  (85) 
122.411

>  <b_lp_Chiralities_Consistent>  (85) 
1

>  <s_lp_Variant>  (85) 
29:0-1

>  <s_i_glide_gridfile>  (85) 
pfpi4k_grid

>  <i_i_glide_lignum>  (85) 
39

>  <i_i_glide_rotatable_bonds>  (85) 
4

>  <r_i_docking_score>  (85) 
-3.2439

>  <r_i_glide_ligand_efficiency>  (85) 
-0.0954089

>  <r_i_glide_ligand_efficiency_sa>  (85) 
-0.309088

>  <r_i_glide_ligand_efficiency_ln>  (85) 
-0.716669

>  <r_i_glide_gscore>  (85) 
-3.2439

>  <r_i_glide_lipo>  (85) 
-0.032355

>  <r_i_glide_hbond>  (85) 
-0.16

>  <r_i_glide_metal>  (85) 
-0

>  <r_i_glide_rewards>  (85) 
-0.782433

>  <r_i_glide_evdw>  (85) 
-23.4224

>  <r_i_glide_ecoul>  (85) 
-6.81625

>  <r_i_glide_erotb>  (85) 
0

>  <r_i_glide_esite>  (85) 
-0.0755583

>  <r_i_glide_emodel>  (85) 
-39.5559

>  <r_i_glide_energy>  (85) 
-30.2387

>  <r_i_glide_einternal>  (85) 
3.05139

>  <r_i_glide_intrahb_reward>  (85) 
-0.5

>  <i_i_glide_confnum>  (85) 
2

>  <i_i_glide_posenum>  (85) 
16

>  <r_i_glide_eff_state_penalty>  (85) 
0

>  <ligand_id>  (85) 
29

>  <original_smiles>  (85) 
COC1CC2C3CC(=O)CC(C2(C)C)C1(O)C(C)C(O)C12C(=O)OC4C(O)C(=O)CC4C31C2=O

>  <smiles>  (85) 
[H]OC1([H])C(=O)C([H])([H])C2([H])C1([H])OC(=O)C13C(=O)C12C1([H])C([H])([H])C(=O)C([H])([H])C2([H])C(O[H])(C([H])(OC([H])([H])[H])C([H])([H])C1([H])C2(C([H])([H])[H])C([H])([H])[H])C([H])(C([H])([H])[H])C3([H])O[H]

$$$$
30:0:0
     RDKit          3D

 10 11  0  0  1  0  0  0  0  0999 V2000
    3.6864   -2.1213   -3.0082 S   0  0  0  0  0  0  0  0  0  0  0  0
    4.6852   -1.7965   -1.5927 C   0  0  0  0  0  0  0  0  0  0  0  0
    6.0164   -1.8792   -1.5556 N   0  0  0  0  0  0  0  0  0  0  0  0
    6.4363   -1.5284   -0.2464 N   0  0  0  0  0  0  0  0  0  0  0  0
    5.3492   -1.2584    0.4298 C   0  0  0  0  0  0  0  0  0  0  0  0
    4.6362   -0.7633    1.9430 S   0  0  0  0  0  0  0  0  0  0  0  0
    3.0236   -0.8418    1.3568 N   0  0  0  0  0  0  0  0  0  0  0  0
    3.0679   -1.2251    0.0952 N   0  0  0  0  0  0  0  0  0  0  0  0
    4.2740   -1.4296   -0.3854 N   0  0  0  0  0  0  0  0  0  0  0  0
    2.1751   -1.3107   -0.4401 H   0  0  0  0  0  0  0  0  0  0  0  0
  1  2  1  0
  2  9  1  0
  2  3  2  0
  3  4  1  0
  4  5  2  0
  5  9  1  0
  5  6  1  0
  6  7  1  0
  7  8  2  0
  8  9  1  0
  8 10  1  0
M  CHG  2   1  -1   8   1
M  END
>  <i_m_ct_stereo_status>  (86) 
1

>  <s_m_source_file>  (86) 
/var/tmp/pbs.5076255.sched01/tmpwzsktf0x/40k9schvjs.sdf

>  <i_m_source_file_index>  (86) 
1

>  <i_lp_mmshare_version>  (86) 
48012

>  <i_f3d_flags>  (86) 
0

>  <s_epik_input>  (86) 
bjFbbkhdYyg9UyluKGMxMilubnMy

>  <s_epik_cmdline>  (86) 
J2VwaWtfcHl0aG9uJywgJy1waHQnLCAnMi4wJywgJy1waCcsICc3LjAnLCAnLXRuJywgJzgnLCAnLW1hJywgJzIwMCcsICctaW1hZScsICc8aW5maWxlLm1hZT4nLCAnLW9tYWUnLCAnPG91dGZpbGUubWFlPic=

>  <r_epik_Ionization_Penalty>  (86) 
0.0558988

>  <r_epik_Ionization_Penalty_Charging>  (86) 
0.0558977

>  <r_epik_Ionization_Penalty_Neutral>  (86) 
1.10009e-06

>  <r_epik_State_Penalty>  (86) 
0.0481806

>  <r_epik_Charging_Adjusted_Penalty>  (86) 
0.104078

>  <i_epik_Tot_Q>  (86) 
0

>  <i_epik_Tot_abs_Q>  (86) 
2

>  <s_lp_Force_Field>  (86) 
OPLS3e

>  <r_lp_Energy>  (86) 
2.31028

>  <b_lp_Chiralities_Consistent>  (86) 
1

>  <s_lp_Variant>  (86) 
30:0-1

>  <s_i_glide_gridfile>  (86) 
pfpi4k_grid

>  <i_i_glide_lignum>  (86) 
1

>  <i_i_glide_rotatable_bonds>  (86) 
0

>  <r_i_docking_score>  (86) 
-4.86501

>  <r_i_glide_ligand_efficiency>  (86) 
-0.540557

>  <r_i_glide_ligand_efficiency_sa>  (86) 
-1.1244

>  <r_i_glide_ligand_efficiency_ln>  (86) 
-1.52164

>  <r_i_glide_gscore>  (86) 
-4.86501

>  <r_i_glide_lipo>  (86) 
-0.0924349

>  <r_i_glide_hbond>  (86) 
-0.198016

>  <r_i_glide_metal>  (86) 
-0

>  <r_i_glide_rewards>  (86) 
-2.66869

>  <r_i_glide_evdw>  (86) 
-11.0579

>  <r_i_glide_ecoul>  (86) 
-7.06086

>  <r_i_glide_erotb>  (86) 
0

>  <r_i_glide_esite>  (86) 
-0.293851

>  <r_i_glide_emodel>  (86) 
-29.2342

>  <r_i_glide_energy>  (86) 
-18.1188

>  <r_i_glide_einternal>  (86) 
0

>  <r_i_glide_intrahb_reward>  (86) 
-0

>  <i_i_glide_confnum>  (86) 
1

>  <i_i_glide_posenum>  (86) 
3

>  <r_i_glide_eff_state_penalty>  (86) 
0

>  <ligand_id>  (86) 
30

>  <original_smiles>  (86) 
S=c1[nH]nc2snnn12

>  <smiles>  (86) 
[H][n+]1nsc2nnc([S-])n21

$$$$
30:0:1
     RDKit          3D

 10 11  0  0  1  0  0  0  0  0999 V2000
    4.5455   -4.4332    0.3075 S   0  0  0  0  0  0  0  0  0  0  0  0
    4.7407   -2.9998   -0.6939 C   0  0  0  0  0  0  0  0  0  0  0  0
    5.6118   -2.0101   -0.4943 N   0  0  0  0  0  0  0  0  0  0  0  0
    5.4168   -1.0574   -1.5252 N   0  0  0  0  0  0  0  0  0  0  0  0
    4.4543   -1.5082   -2.2913 C   0  0  0  0  0  0  0  0  0  0  0  0
    3.4520   -1.3034   -3.7135 S   0  0  0  0  0  0  0  0  0  0  0  0
    2.6167   -2.7907   -3.4824 N   0  0  0  0  0  0  0  0  0  0  0  0
    3.1019   -3.3491   -2.3888 N   0  0  0  0  0  0  0  0  0  0  0  0
    4.0501   -2.6865   -1.7907 N   0  0  0  0  0  0  0  0  0  0  0  0
    2.7893   -4.2647   -2.0702 H   0  0  0  0  0  0  0  0  0  0  0  0
  1  2  1  0
  2  9  1  0
  2  3  2  0
  3  4  1  0
  4  5  2  0
  5  9  1  0
  5  6  1  0
  6  7  1  0
  7  8  2  0
  8  9  1  0
  8 10  1  0
M  CHG  2   1  -1   8   1
M  END
>  <i_m_ct_stereo_status>  (87) 
1

>  <s_m_source_file>  (87) 
/var/tmp/pbs.5076255.sched01/tmpwzsktf0x/40k9schvjs.sdf

>  <i_m_source_file_index>  (87) 
1

>  <i_lp_mmshare_version>  (87) 
48012

>  <i_f3d_flags>  (87) 
0

>  <s_epik_input>  (87) 
bjFbbkhdYyg9UyluKGMxMilubnMy

>  <s_epik_cmdline>  (87) 
J2VwaWtfcHl0aG9uJywgJy1waHQnLCAnMi4wJywgJy1waCcsICc3LjAnLCAnLXRuJywgJzgnLCAnLW1hJywgJzIwMCcsICctaW1hZScsICc8aW5maWxlLm1hZT4nLCAnLW9tYWUnLCAnPG91dGZpbGUubWFlPic=

>  <r_epik_Ionization_Penalty>  (87) 
0.0558988

>  <r_epik_Ionization_Penalty_Charging>  (87) 
0.0558977

>  <r_epik_Ionization_Penalty_Neutral>  (87) 
1.10009e-06

>  <r_epik_State_Penalty>  (87) 
0.0481806

>  <r_epik_Charging_Adjusted_Penalty>  (87) 
0.104078

>  <i_epik_Tot_Q>  (87) 
0

>  <i_epik_Tot_abs_Q>  (87) 
2

>  <s_lp_Force_Field>  (87) 
OPLS3e

>  <r_lp_Energy>  (87) 
2.31028

>  <b_lp_Chiralities_Consistent>  (87) 
1

>  <s_lp_Variant>  (87) 
30:0-1

>  <s_i_glide_gridfile>  (87) 
pfpi4k_grid

>  <i_i_glide_lignum>  (87) 
1

>  <i_i_glide_rotatable_bonds>  (87) 
0

>  <r_i_docking_score>  (87) 
-4.12788

>  <r_i_glide_ligand_efficiency>  (87) 
-0.458653

>  <r_i_glide_ligand_efficiency_sa>  (87) 
-0.954037

>  <r_i_glide_ligand_efficiency_ln>  (87) 
-1.29108

>  <r_i_glide_gscore>  (87) 
-4.12788

>  <r_i_glide_lipo>  (87) 
-0.200395

>  <r_i_glide_hbond>  (87) 
0

>  <r_i_glide_metal>  (87) 
-0

>  <r_i_glide_rewards>  (87) 
-2.26782

>  <r_i_glide_evdw>  (87) 
-16.3744

>  <r_i_glide_ecoul>  (87) 
-4.5503

>  <r_i_glide_erotb>  (87) 
0

>  <r_i_glide_esite>  (87) 
-0.158397

>  <r_i_glide_emodel>  (87) 
-30.3584

>  <r_i_glide_energy>  (87) 
-20.9247

>  <r_i_glide_einternal>  (87) 
0

>  <r_i_glide_intrahb_reward>  (87) 
-0

>  <i_i_glide_confnum>  (87) 
2

>  <i_i_glide_posenum>  (87) 
22

>  <r_i_glide_eff_state_penalty>  (87) 
0

>  <ligand_id>  (87) 
30

>  <original_smiles>  (87) 
S=c1[nH]nc2snnn12

>  <smiles>  (87) 
[H][n+]1nsc2nnc([S-])n21

$$$$
30:0:2
     RDKit          3D

 10 11  0  0  1  0  0  0  0  0999 V2000
    2.9710   -4.6601    0.5564 S   0  0  0  0  0  0  0  0  0  0  0  0
    3.6363   -3.3097   -0.3567 C   0  0  0  0  0  0  0  0  0  0  0  0
    4.6383   -2.5106    0.0335 N   0  0  0  0  0  0  0  0  0  0  0  0
    4.8671   -1.5609   -1.0005 N   0  0  0  0  0  0  0  0  0  0  0  0
    4.0004   -1.8307   -1.9499 C   0  0  0  0  0  0  0  0  0  0  0  0
    3.3842   -1.4448   -3.5394 S   0  0  0  0  0  0  0  0  0  0  0  0
    2.2161   -2.7112   -3.5182 N   0  0  0  0  0  0  0  0  0  0  0  0
    2.3338   -3.3401   -2.3597 N   0  0  0  0  0  0  0  0  0  0  0  0
    3.2606   -2.8872   -1.5605 N   0  0  0  0  0  0  0  0  0  0  0  0
    1.7663   -4.1531   -2.1337 H   0  0  0  0  0  0  0  0  0  0  0  0
  1  2  1  0
  2  9  1  0
  2  3  2  0
  3  4  1  0
  4  5  2  0
  5  9  1  0
  5  6  1  0
  6  7  1  0
  7  8  2  0
  8  9  1  0
  8 10  1  0
M  CHG  2   1  -1   8   1
M  END
>  <i_m_ct_stereo_status>  (88) 
1

>  <s_m_source_file>  (88) 
/var/tmp/pbs.5076255.sched01/tmpwzsktf0x/40k9schvjs.sdf

>  <i_m_source_file_index>  (88) 
1

>  <i_lp_mmshare_version>  (88) 
48012

>  <i_f3d_flags>  (88) 
0

>  <s_epik_input>  (88) 
bjFbbkhdYyg9UyluKGMxMilubnMy

>  <s_epik_cmdline>  (88) 
J2VwaWtfcHl0aG9uJywgJy1waHQnLCAnMi4wJywgJy1waCcsICc3LjAnLCAnLXRuJywgJzgnLCAnLW1hJywgJzIwMCcsICctaW1hZScsICc8aW5maWxlLm1hZT4nLCAnLW9tYWUnLCAnPG91dGZpbGUubWFlPic=

>  <r_epik_Ionization_Penalty>  (88) 
0.0558988

>  <r_epik_Ionization_Penalty_Charging>  (88) 
0.0558977

>  <r_epik_Ionization_Penalty_Neutral>  (88) 
1.10009e-06

>  <r_epik_State_Penalty>  (88) 
0.0481806

>  <r_epik_Charging_Adjusted_Penalty>  (88) 
0.104078

>  <i_epik_Tot_Q>  (88) 
0

>  <i_epik_Tot_abs_Q>  (88) 
2

>  <s_lp_Force_Field>  (88) 
OPLS3e

>  <r_lp_Energy>  (88) 
2.31028

>  <b_lp_Chiralities_Consistent>  (88) 
1

>  <s_lp_Variant>  (88) 
30:0-1

>  <s_i_glide_gridfile>  (88) 
pfpi4k_grid

>  <i_i_glide_lignum>  (88) 
1

>  <i_i_glide_rotatable_bonds>  (88) 
0

>  <r_i_docking_score>  (88) 
-3.96753

>  <r_i_glide_ligand_efficiency>  (88) 
-0.440836

>  <r_i_glide_ligand_efficiency_sa>  (88) 
-0.916977

>  <r_i_glide_ligand_efficiency_ln>  (88) 
-1.24093

>  <r_i_glide_gscore>  (88) 
-3.96753

>  <r_i_glide_lipo>  (88) 
-0.204886

>  <r_i_glide_hbond>  (88) 
0

>  <r_i_glide_metal>  (88) 
-0

>  <r_i_glide_rewards>  (88) 
-2.30131

>  <r_i_glide_evdw>  (88) 
-15.9395

>  <r_i_glide_ecoul>  (88) 
-3.85974

>  <r_i_glide_erotb>  (88) 
0

>  <r_i_glide_esite>  (88) 
-0.0853972

>  <r_i_glide_emodel>  (88) 
-28.8694

>  <r_i_glide_energy>  (88) 
-19.7992

>  <r_i_glide_einternal>  (88) 
0

>  <r_i_glide_intrahb_reward>  (88) 
-0

>  <i_i_glide_confnum>  (88) 
2

>  <i_i_glide_posenum>  (88) 
39

>  <r_i_glide_eff_state_penalty>  (88) 
0

>  <ligand_id>  (88) 
30

>  <original_smiles>  (88) 
S=c1[nH]nc2snnn12

>  <smiles>  (88) 
[H][n+]1nsc2nnc([S-])n21

$$$$
30:1:0
     RDKit          3D

  9 10  0  0  1  0  0  0  0  0999 V2000
    2.4099   -5.9322    1.0785 S   0  0  0  0  0  0  0  0  0  0  0  0
    1.1053   -6.9890    1.6394 C   0  0  0  0  0  0  0  0  0  0  0  0
   -0.1992   -6.6570    1.6729 N   0  0  0  0  0  0  0  0  0  0  0  0
   -0.9160   -7.7269    2.2451 N   0  0  0  0  0  0  0  0  0  0  0  0
   -0.0257   -8.6677    2.5021 C   0  0  0  0  0  0  0  0  0  0  0  0
    0.2945  -10.2550    3.1205 S   0  0  0  0  0  0  0  0  0  0  0  0
    1.9868  -10.1536    2.8382 N   0  0  0  0  0  0  0  0  0  0  0  0
    2.3393   -8.9283    2.2636 N   0  0  0  0  0  0  0  0  0  0  0  0
    1.1796   -8.2161    2.1362 N   0  0  0  0  0  0  0  0  0  0  0  0
  1  2  1  0
  2  9  1  0
  2  3  2  0
  3  4  1  0
  4  5  2  0
  5  9  1  0
  5  6  1  0
  6  7  1  0
  7  8  2  0
  8  9  1  0
M  CHG  1   1  -1
M  END
>  <i_m_ct_stereo_status>  (89) 
1

>  <s_m_source_file>  (89) 
/var/tmp/pbs.5076255.sched01/tmpwzsktf0x/40k9schvjs.sdf

>  <i_m_source_file_index>  (89) 
2

>  <i_lp_mmshare_version>  (89) 
48012

>  <i_f3d_flags>  (89) 
0

>  <s_epik_input>  (89) 
bjFbbkhdYyg9UyluKGMxMilubnMy

>  <s_epik_cmdline>  (89) 
J2VwaWtfcHl0aG9uJywgJy1waHQnLCAnMi4wJywgJy1waCcsICc3LjAnLCAnLXRuJywgJzgnLCAnLW1hJywgJzIwMCcsICctaW1hZScsICc8aW5maWxlLm1hZT4nLCAnLW9tYWUnLCAnPG91dGZpbGUubWFlPic=

>  <r_epik_Ionization_Penalty>  (89) 
1.42647

>  <r_epik_Ionization_Penalty_Charging>  (89) 
1.3115e-12

>  <r_epik_Ionization_Penalty_Neutral>  (89) 
1.42647

>  <r_epik_State_Penalty>  (89) 
1.51069

>  <r_epik_Charging_Adjusted_Penalty>  (89) 
1.51069

>  <i_epik_Tot_Q>  (89) 
-1

>  <i_epik_Tot_abs_Q>  (89) 
1

>  <s_lp_Force_Field>  (89) 
OPLS3e

>  <r_lp_Energy>  (89) 
4.38381

>  <b_lp_Chiralities_Consistent>  (89) 
1

>  <s_lp_Variant>  (89) 
30:0-2

>  <s_i_glide_gridfile>  (89) 
pfpi4k_grid

>  <i_i_glide_lignum>  (89) 
2

>  <i_i_glide_rotatable_bonds>  (89) 
0

>  <r_i_docking_score>  (89) 
-3.41795

>  <r_i_glide_ligand_efficiency>  (89) 
-0.379773

>  <r_i_glide_ligand_efficiency_sa>  (89) 
-0.789959

>  <r_i_glide_ligand_efficiency_ln>  (89) 
-1.06904

>  <r_i_glide_gscore>  (89) 
-3.41795

>  <r_i_glide_lipo>  (89) 
0

>  <r_i_glide_hbond>  (89) 
0

>  <r_i_glide_metal>  (89) 
-0

>  <r_i_glide_rewards>  (89) 
-2.25

>  <r_i_glide_evdw>  (89) 
-14.1653

>  <r_i_glide_ecoul>  (89) 
-1.02568

>  <r_i_glide_erotb>  (89) 
0

>  <r_i_glide_esite>  (89) 
-0.305837

>  <r_i_glide_emodel>  (89) 
-21.3231

>  <r_i_glide_energy>  (89) 
-15.191

>  <r_i_glide_einternal>  (89) 
0

>  <r_i_glide_intrahb_reward>  (89) 
-0

>  <i_i_glide_confnum>  (89) 
2

>  <i_i_glide_posenum>  (89) 
13

>  <r_i_glide_eff_state_penalty>  (89) 
0

>  <ligand_id>  (89) 
30

>  <original_smiles>  (89) 
S=c1[nH]nc2snnn12

>  <smiles>  (89) 
[S-]c1nnc2snnn12

$$$$
30:1:1
     RDKit          3D

  9 10  0  0  1  0  0  0  0  0999 V2000
   -2.0884    2.1752    7.1245 S   0  0  0  0  0  0  0  0  0  0  0  0
   -1.6176    1.0342    5.8550 C   0  0  0  0  0  0  0  0  0  0  0  0
   -1.9690   -0.2603    5.7788 N   0  0  0  0  0  0  0  0  0  0  0  0
   -1.3791   -0.7965    4.6049 N   0  0  0  0  0  0  0  0  0  0  0  0
   -0.7121    0.1827    4.0406 C   0  0  0  0  0  0  0  0  0  0  0  0
    0.2961    0.7055    2.7245 S   0  0  0  0  0  0  0  0  0  0  0  0
    0.4361    2.3108    3.3135 N   0  0  0  0  0  0  0  0  0  0  0  0
   -0.2857    2.4854    4.4998 N   0  0  0  0  0  0  0  0  0  0  0  0
   -0.8549    1.2865    4.7944 N   0  0  0  0  0  0  0  0  0  0  0  0
  1  2  1  0
  2  9  1  0
  2  3  2  0
  3  4  1  0
  4  5  2  0
  5  9  1  0
  5  6  1  0
  6  7  1  0
  7  8  2  0
  8  9  1  0
M  CHG  1   1  -1
M  END
>  <i_m_ct_stereo_status>  (90) 
1

>  <s_m_source_file>  (90) 
/var/tmp/pbs.5076255.sched01/tmpwzsktf0x/40k9schvjs.sdf

>  <i_m_source_file_index>  (90) 
2

>  <i_lp_mmshare_version>  (90) 
48012

>  <i_f3d_flags>  (90) 
0

>  <s_epik_input>  (90) 
bjFbbkhdYyg9UyluKGMxMilubnMy

>  <s_epik_cmdline>  (90) 
J2VwaWtfcHl0aG9uJywgJy1waHQnLCAnMi4wJywgJy1waCcsICc3LjAnLCAnLXRuJywgJzgnLCAnLW1hJywgJzIwMCcsICctaW1hZScsICc8aW5maWxlLm1hZT4nLCAnLW9tYWUnLCAnPG91dGZpbGUubWFlPic=

>  <r_epik_Ionization_Penalty>  (90) 
1.42647

>  <r_epik_Ionization_Penalty_Charging>  (90) 
1.3115e-12

>  <r_epik_Ionization_Penalty_Neutral>  (90) 
1.42647

>  <r_epik_State_Penalty>  (90) 
1.51069

>  <r_epik_Charging_Adjusted_Penalty>  (90) 
1.51069

>  <i_epik_Tot_Q>  (90) 
-1

>  <i_epik_Tot_abs_Q>  (90) 
1

>  <s_lp_Force_Field>  (90) 
OPLS3e

>  <r_lp_Energy>  (90) 
4.38381

>  <b_lp_Chiralities_Consistent>  (90) 
1

>  <s_lp_Variant>  (90) 
30:0-2

>  <s_i_glide_gridfile>  (90) 
pfpi4k_grid

>  <i_i_glide_lignum>  (90) 
2

>  <i_i_glide_rotatable_bonds>  (90) 
0

>  <r_i_docking_score>  (90) 
-3.39087

>  <r_i_glide_ligand_efficiency>  (90) 
-0.376763

>  <r_i_glide_ligand_efficiency_sa>  (90) 
-0.783699

>  <r_i_glide_ligand_efficiency_ln>  (90) 
-1.06057

>  <r_i_glide_gscore>  (90) 
-3.39087

>  <r_i_glide_lipo>  (90) 
0

>  <r_i_glide_hbond>  (90) 
0

>  <r_i_glide_metal>  (90) 
-0

>  <r_i_glide_rewards>  (90) 
-2.25

>  <r_i_glide_evdw>  (90) 
-11.2044

>  <r_i_glide_ecoul>  (90) 
-1.92649

>  <r_i_glide_erotb>  (90) 
0

>  <r_i_glide_esite>  (90) 
-0.291676

>  <r_i_glide_emodel>  (90) 
-19.2208

>  <r_i_glide_energy>  (90) 
-13.1309

>  <r_i_glide_einternal>  (90) 
0

>  <r_i_glide_intrahb_reward>  (90) 
-0

>  <i_i_glide_confnum>  (90) 
1

>  <i_i_glide_posenum>  (90) 
11

>  <r_i_glide_eff_state_penalty>  (90) 
0

>  <ligand_id>  (90) 
30

>  <original_smiles>  (90) 
S=c1[nH]nc2snnn12

>  <smiles>  (90) 
[S-]c1nnc2snnn12

$$$$
30:1:2
     RDKit          3D

  9 10  0  0  1  0  0  0  0  0999 V2000
   -0.5814   -1.7356    5.5383 S   0  0  0  0  0  0  0  0  0  0  0  0
   -1.2225   -0.0859    5.4993 C   0  0  0  0  0  0  0  0  0  0  0  0
   -1.7945    0.5465    6.5323 N   0  0  0  0  0  0  0  0  0  0  0  0
   -2.1467    1.8521    6.1025 N   0  0  0  0  0  0  0  0  0  0  0  0
   -1.7876    1.9358    4.8465 C   0  0  0  0  0  0  0  0  0  0  0  0
   -1.7311    2.8946    3.3998 S   0  0  0  0  0  0  0  0  0  0  0  0
   -0.9550    1.6658    2.4803 N   0  0  0  0  0  0  0  0  0  0  0  0
   -0.7244    0.5188    3.2445 N   0  0  0  0  0  0  0  0  0  0  0  0
   -1.2272    0.7694    4.4795 N   0  0  0  0  0  0  0  0  0  0  0  0
  1  2  1  0
  2  9  1  0
  2  3  2  0
  3  4  1  0
  4  5  2  0
  5  9  1  0
  5  6  1  0
  6  7  1  0
  7  8  2  0
  8  9  1  0
M  CHG  1   1  -1
M  END
>  <i_m_ct_stereo_status>  (91) 
1

>  <s_m_source_file>  (91) 
/var/tmp/pbs.5076255.sched01/tmpwzsktf0x/40k9schvjs.sdf

>  <i_m_source_file_index>  (91) 
2

>  <i_lp_mmshare_version>  (91) 
48012

>  <i_f3d_flags>  (91) 
0

>  <s_epik_input>  (91) 
bjFbbkhdYyg9UyluKGMxMilubnMy

>  <s_epik_cmdline>  (91) 
J2VwaWtfcHl0aG9uJywgJy1waHQnLCAnMi4wJywgJy1waCcsICc3LjAnLCAnLXRuJywgJzgnLCAnLW1hJywgJzIwMCcsICctaW1hZScsICc8aW5maWxlLm1hZT4nLCAnLW9tYWUnLCAnPG91dGZpbGUubWFlPic=

>  <r_epik_Ionization_Penalty>  (91) 
1.42647

>  <r_epik_Ionization_Penalty_Charging>  (91) 
1.3115e-12

>  <r_epik_Ionization_Penalty_Neutral>  (91) 
1.42647

>  <r_epik_State_Penalty>  (91) 
1.51069

>  <r_epik_Charging_Adjusted_Penalty>  (91) 
1.51069

>  <i_epik_Tot_Q>  (91) 
-1

>  <i_epik_Tot_abs_Q>  (91) 
1

>  <s_lp_Force_Field>  (91) 
OPLS3e

>  <r_lp_Energy>  (91) 
4.38381

>  <b_lp_Chiralities_Consistent>  (91) 
1

>  <s_lp_Variant>  (91) 
30:0-2

>  <s_i_glide_gridfile>  (91) 
pfpi4k_grid

>  <i_i_glide_lignum>  (91) 
2

>  <i_i_glide_rotatable_bonds>  (91) 
0

>  <r_i_docking_score>  (91) 
-3.28545

>  <r_i_glide_ligand_efficiency>  (91) 
-0.36505

>  <r_i_glide_ligand_efficiency_sa>  (91) 
-0.759335

>  <r_i_glide_ligand_efficiency_ln>  (91) 
-1.02759

>  <r_i_glide_gscore>  (91) 
-3.28545

>  <r_i_glide_lipo>  (91) 
0

>  <r_i_glide_hbond>  (91) 
0

>  <r_i_glide_metal>  (91) 
-0

>  <r_i_glide_rewards>  (91) 
-2.25

>  <r_i_glide_evdw>  (91) 
-12.7266

>  <r_i_glide_ecoul>  (91) 
-0.761861

>  <r_i_glide_erotb>  (91) 
0

>  <r_i_glide_esite>  (91) 
-0.28484

>  <r_i_glide_emodel>  (91) 
-19.3886

>  <r_i_glide_energy>  (91) 
-13.4885

>  <r_i_glide_einternal>  (91) 
0

>  <r_i_glide_intrahb_reward>  (91) 
-0

>  <i_i_glide_confnum>  (91) 
1

>  <i_i_glide_posenum>  (91) 
19

>  <r_i_glide_eff_state_penalty>  (91) 
0

>  <ligand_id>  (91) 
30

>  <original_smiles>  (91) 
S=c1[nH]nc2snnn12

>  <smiles>  (91) 
[S-]c1nnc2snnn12

$$$$
31:0:0
     RDKit          3D

 18 18  0  0  1  0  0  0  0  0999 V2000
    3.2444   -0.2715   -4.2085 C   0  0  0  0  0  0  0  0  0  0  0  0
    3.2271   -1.2075   -2.9963 C   0  0  0  0  0  0  0  0  0  0  0  0
    4.5012   -2.5325   -3.2498 S   0  0  0  0  0  0  0  0  0  0  0  0
    3.9617   -3.4779   -4.3190 O   0  0  0  0  0  0  0  0  0  0  0  0
    4.3388   -3.3814   -1.6098 C   0  0  0  0  0  0  0  0  0  0  0  0
    5.2059   -2.6900   -0.5861 C   0  0  0  0  0  0  0  0  0  0  0  0
    5.3395   -1.3868   -0.4884 N   0  0  0  0  0  0  0  0  0  0  0  0
    6.2110   -1.1630    0.5938 O   0  0  0  0  0  0  0  0  0  0  0  0
    6.6154   -2.3859    1.1497 N   0  0  0  0  0  0  0  0  0  0  0  0
    6.0057   -3.2830    0.4204 C   0  0  0  0  0  0  0  0  0  0  0  0
    6.1694   -4.9500    0.7039 Cl  0  0  0  0  0  0  0  0  0  0  0  0
    2.5207    0.5295   -4.0722 H   0  0  0  0  0  0  0  0  0  0  0  0
    2.9900   -0.7998   -5.1252 H   0  0  0  0  0  0  0  0  0  0  0  0
    4.2146    0.2023   -4.3465 H   0  0  0  0  0  0  0  0  0  0  0  0
    3.4399   -0.6378   -2.0974 H   0  0  0  0  0  0  0  0  0  0  0  0
    2.2498   -1.6691   -2.8565 H   0  0  0  0  0  0  0  0  0  0  0  0
    3.2943   -3.4076   -1.3123 H   0  0  0  0  0  0  0  0  0  0  0  0
    4.6420   -4.4184   -1.7447 H   0  0  0  0  0  0  0  0  0  0  0  0
  1  2  1  0
  1 12  1  0
  1 13  1  0
  1 14  1  0
  3  2  1  1
  2 15  1  0
  2 16  1  0
  3  4  2  0
  3  5  1  0
  5  6  1  0
  5 17  1  0
  5 18  1  0
  6 10  1  0
  6  7  2  0
  7  8  1  0
  8  9  1  0
  9 10  2  0
 10 11  1  0
M  END
>  <i_m_ct_stereo_status>  (92) 
1

>  <s_m_source_file>  (92) 
/var/tmp/pbs.5076255.sched01/tmpwzsktf0x/40k9schvjs.sdf

>  <i_m_source_file_index>  (92) 
3

>  <i_lp_mmshare_version>  (92) 
48012

>  <i_f3d_flags>  (92) 
0

>  <s_epik_input>  (92) 
W0NIM11bQ0gyXVtTK10oW08tXSlbQ0gyXWMxbm9uYzFDbA==

>  <s_epik_cmdline>  (92) 
J2VwaWtfcHl0aG9uJywgJy1waHQnLCAnMi4wJywgJy1waCcsICc3LjAnLCAnLXRuJywgJzgnLCAnLW1hJywgJzIwMCcsICctaW1hZScsICc8aW5maWxlLm1hZT4nLCAnLW9tYWUnLCAnPG91dGZpbGUubWFlPic=

>  <r_lp_tautomer_probability>  (92) 
1

>  <r_epik_Ionization_Penalty>  (92) 
1.12614e-13

>  <r_epik_Ionization_Penalty_Charging>  (92) 
0

>  <r_epik_Ionization_Penalty_Neutral>  (92) 
1.12614e-13

>  <r_epik_State_Penalty>  (92) 
-0

>  <r_epik_Charging_Adjusted_Penalty>  (92) 
0

>  <i_epik_Tot_Q>  (92) 
0

>  <i_epik_Tot_abs_Q>  (92) 
2

>  <s_lp_Force_Field>  (92) 
OPLS3e

>  <r_lp_Energy>  (92) 
-3.54012

>  <b_lp_Chiralities_Consistent>  (92) 
1

>  <s_lp_Variant>  (92) 
31:0-1

>  <s_i_glide_gridfile>  (92) 
pfpi4k_grid

>  <i_i_glide_lignum>  (92) 
3

>  <i_i_glide_rotatable_bonds>  (92) 
3

>  <r_i_docking_score>  (92) 
-4.04824

>  <r_i_glide_ligand_efficiency>  (92) 
-0.368022

>  <r_i_glide_ligand_efficiency_sa>  (92) 
-0.818474

>  <r_i_glide_ligand_efficiency_ln>  (92) 
-1.1914

>  <r_i_glide_gscore>  (92) 
-4.04824

>  <r_i_glide_lipo>  (92) 
-0.459915

>  <r_i_glide_hbond>  (92) 
-0.142488

>  <r_i_glide_metal>  (92) 
-0

>  <r_i_glide_rewards>  (92) 
-2.24434

>  <r_i_glide_evdw>  (92) 
-21.2863

>  <r_i_glide_ecoul>  (92) 
-3.54898

>  <r_i_glide_erotb>  (92) 
0.427211

>  <r_i_glide_esite>  (92) 
-0.0320468

>  <r_i_glide_emodel>  (92) 
-30.6019

>  <r_i_glide_energy>  (92) 
-24.8353

>  <r_i_glide_einternal>  (92) 
1.59069

>  <r_i_glide_intrahb_reward>  (92) 
-0

>  <i_i_glide_confnum>  (92) 
2

>  <i_i_glide_posenum>  (92) 
22

>  <r_i_glide_eff_state_penalty>  (92) 
0

>  <ligand_id>  (92) 
31

>  <original_smiles>  (92) 
CC[S+]([O-])Cc1nonc1Cl

>  <smiles>  (92) 
[H]C([H])(c1nonc1Cl)S(=O)C([H])([H])C([H])([H])[H]

$$$$
31:0:1
     RDKit          3D

 18 18  0  0  1  0  0  0  0  0999 V2000
    3.1164   -0.2358   -4.1142 C   0  0  0  0  0  0  0  0  0  0  0  0
    3.1678   -1.2049   -2.9246 C   0  0  0  0  0  0  0  0  0  0  0  0
    4.4775   -2.4700   -3.2549 S   0  0  0  0  0  0  0  0  0  0  0  0
    3.9318   -3.4235   -4.3201 O   0  0  0  0  0  0  0  0  0  0  0  0
    4.4060   -3.3544   -1.6283 C   0  0  0  0  0  0  0  0  0  0  0  0
    5.1239   -2.5387   -0.5897 C   0  0  0  0  0  0  0  0  0  0  0  0
    6.3857   -2.1825   -0.6967 N   0  0  0  0  0  0  0  0  0  0  0  0
    6.6778   -1.4679    0.4791 O   0  0  0  0  0  0  0  0  0  0  0  0
    5.5480   -1.3914    1.3059 N   0  0  0  0  0  0  0  0  0  0  0  0
    4.6301   -2.0388    0.6398 C   0  0  0  0  0  0  0  0  0  0  0  0
    3.0550   -2.2699    1.2320 Cl  0  0  0  0  0  0  0  0  0  0  0  0
    2.3606    0.5288   -3.9418 H   0  0  0  0  0  0  0  0  0  0  0  0
    2.8573   -0.7398   -5.0450 H   0  0  0  0  0  0  0  0  0  0  0  0
    4.0675    0.2788   -4.2549 H   0  0  0  0  0  0  0  0  0  0  0  0
    3.3950   -0.6626   -2.0068 H   0  0  0  0  0  0  0  0  0  0  0  0
    2.2132   -1.7149   -2.7809 H   0  0  0  0  0  0  0  0  0  0  0  0
    3.3636   -3.5564   -1.3690 H   0  0  0  0  0  0  0  0  0  0  0  0
    4.8900   -4.3219   -1.7515 H   0  0  0  0  0  0  0  0  0  0  0  0
  1  2  1  0
  1 12  1  0
  1 13  1  0
  1 14  1  0
  3  2  1  1
  2 15  1  0
  2 16  1  0
  3  4  2  0
  3  5  1  0
  5  6  1  0
  5 17  1  0
  5 18  1  0
  6 10  1  0
  6  7  2  0
  7  8  1  0
  8  9  1  0
  9 10  2  0
 10 11  1  0
M  END
>  <i_m_ct_stereo_status>  (93) 
1

>  <s_m_source_file>  (93) 
/var/tmp/pbs.5076255.sched01/tmpwzsktf0x/40k9schvjs.sdf

>  <i_m_source_file_index>  (93) 
3

>  <i_lp_mmshare_version>  (93) 
48012

>  <i_f3d_flags>  (93) 
0

>  <s_epik_input>  (93) 
W0NIM11bQ0gyXVtTK10oW08tXSlbQ0gyXWMxbm9uYzFDbA==

>  <s_epik_cmdline>  (93) 
J2VwaWtfcHl0aG9uJywgJy1waHQnLCAnMi4wJywgJy1waCcsICc3LjAnLCAnLXRuJywgJzgnLCAnLW1hJywgJzIwMCcsICctaW1hZScsICc8aW5maWxlLm1hZT4nLCAnLW9tYWUnLCAnPG91dGZpbGUubWFlPic=

>  <r_lp_tautomer_probability>  (93) 
1

>  <r_epik_Ionization_Penalty>  (93) 
1.12614e-13

>  <r_epik_Ionization_Penalty_Charging>  (93) 
0

>  <r_epik_Ionization_Penalty_Neutral>  (93) 
1.12614e-13

>  <r_epik_State_Penalty>  (93) 
-0

>  <r_epik_Charging_Adjusted_Penalty>  (93) 
0

>  <i_epik_Tot_Q>  (93) 
0

>  <i_epik_Tot_abs_Q>  (93) 
2

>  <s_lp_Force_Field>  (93) 
OPLS3e

>  <r_lp_Energy>  (93) 
-3.54012

>  <b_lp_Chiralities_Consistent>  (93) 
1

>  <s_lp_Variant>  (93) 
31:0-1

>  <s_i_glide_gridfile>  (93) 
pfpi4k_grid

>  <i_i_glide_lignum>  (93) 
3

>  <i_i_glide_rotatable_bonds>  (93) 
3

>  <r_i_docking_score>  (93) 
-3.95873

>  <r_i_glide_ligand_efficiency>  (93) 
-0.359885

>  <r_i_glide_ligand_efficiency_sa>  (93) 
-0.800376

>  <r_i_glide_ligand_efficiency_ln>  (93) 
-1.16505

>  <r_i_glide_gscore>  (93) 
-3.95873

>  <r_i_glide_lipo>  (93) 
-0.254552

>  <r_i_glide_hbond>  (93) 
-0.160387

>  <r_i_glide_metal>  (93) 
-0

>  <r_i_glide_rewards>  (93) 
-2.24433

>  <r_i_glide_evdw>  (93) 
-21.389

>  <r_i_glide_ecoul>  (93) 
-4.04986

>  <r_i_glide_erotb>  (93) 
0.427211

>  <r_i_glide_esite>  (93) 
-0.0497511

>  <r_i_glide_emodel>  (93) 
-31.3597

>  <r_i_glide_energy>  (93) 
-25.4388

>  <r_i_glide_einternal>  (93) 
0.96736

>  <r_i_glide_intrahb_reward>  (93) 
-0

>  <i_i_glide_confnum>  (93) 
2

>  <i_i_glide_posenum>  (93) 
12

>  <r_i_glide_eff_state_penalty>  (93) 
0

>  <ligand_id>  (93) 
31

>  <original_smiles>  (93) 
CC[S+]([O-])Cc1nonc1Cl

>  <smiles>  (93) 
[H]C([H])(c1nonc1Cl)S(=O)C([H])([H])C([H])([H])[H]

$$$$
31:0:2
     RDKit          3D

 18 18  0  0  1  0  0  0  0  0999 V2000
    3.2708    0.2773   -4.7276 C   0  0  0  0  0  0  0  0  0  0  0  0
    3.4378   -0.2477   -3.2976 C   0  0  0  0  0  0  0  0  0  0  0  0
    4.2165   -1.9314   -3.3514 S   0  0  0  0  0  0  0  0  0  0  0  0
    3.4291   -2.8070   -4.3221 O   0  0  0  0  0  0  0  0  0  0  0  0
    3.7863   -2.4830   -1.6332 C   0  0  0  0  0  0  0  0  0  0  0  0
    4.6289   -1.7352   -0.6404 C   0  0  0  0  0  0  0  0  0  0  0  0
    4.1713   -0.7617    0.1094 N   0  0  0  0  0  0  0  0  0  0  0  0
    5.2560   -0.3511    0.9072 O   0  0  0  0  0  0  0  0  0  0  0  0
    6.4005   -1.1021    0.6080 N   0  0  0  0  0  0  0  0  0  0  0  0
    5.9954   -1.9218   -0.3224 C   0  0  0  0  0  0  0  0  0  0  0  0
    7.0380   -3.0427   -1.0542 Cl  0  0  0  0  0  0  0  0  0  0  0  0
    2.8249    1.2695   -4.7212 H   0  0  0  0  0  0  0  0  0  0  0  0
    2.6139   -0.3594   -5.3157 H   0  0  0  0  0  0  0  0  0  0  0  0
    4.2183    0.3599   -5.2506 H   0  0  0  0  0  0  0  0  0  0  0  0
    4.0717    0.4229   -2.7189 H   0  0  0  0  0  0  0  0  0  0  0  0
    2.4701   -0.3033   -2.8043 H   0  0  0  0  0  0  0  0  0  0  0  0
    2.7224   -2.3311   -1.4648 H   0  0  0  0  0  0  0  0  0  0  0  0
    3.9707   -3.5563   -1.5689 H   0  0  0  0  0  0  0  0  0  0  0  0
  1  2  1  0
  1 12  1  0
  1 13  1  0
  1 14  1  0
  3  2  1  1
  2 15  1  0
  2 16  1  0
  3  4  2  0
  3  5  1  0
  5  6  1  0
  5 17  1  0
  5 18  1  0
  6 10  1  0
  6  7  2  0
  7  8  1  0
  8  9  1  0
  9 10  2  0
 10 11  1  0
M  END
>  <i_m_ct_stereo_status>  (94) 
1

>  <s_m_source_file>  (94) 
/var/tmp/pbs.5076255.sched01/tmpwzsktf0x/40k9schvjs.sdf

>  <i_m_source_file_index>  (94) 
3

>  <i_lp_mmshare_version>  (94) 
48012

>  <i_f3d_flags>  (94) 
0

>  <s_epik_input>  (94) 
W0NIM11bQ0gyXVtTK10oW08tXSlbQ0gyXWMxbm9uYzFDbA==

>  <s_epik_cmdline>  (94) 
J2VwaWtfcHl0aG9uJywgJy1waHQnLCAnMi4wJywgJy1waCcsICc3LjAnLCAnLXRuJywgJzgnLCAnLW1hJywgJzIwMCcsICctaW1hZScsICc8aW5maWxlLm1hZT4nLCAnLW9tYWUnLCAnPG91dGZpbGUubWFlPic=

>  <r_lp_tautomer_probability>  (94) 
1

>  <r_epik_Ionization_Penalty>  (94) 
1.12614e-13

>  <r_epik_Ionization_Penalty_Charging>  (94) 
0

>  <r_epik_Ionization_Penalty_Neutral>  (94) 
1.12614e-13

>  <r_epik_State_Penalty>  (94) 
-0

>  <r_epik_Charging_Adjusted_Penalty>  (94) 
0

>  <i_epik_Tot_Q>  (94) 
0

>  <i_epik_Tot_abs_Q>  (94) 
2

>  <s_lp_Force_Field>  (94) 
OPLS3e

>  <r_lp_Energy>  (94) 
-3.54012

>  <b_lp_Chiralities_Consistent>  (94) 
1

>  <s_lp_Variant>  (94) 
31:0-1

>  <s_i_glide_gridfile>  (94) 
pfpi4k_grid

>  <i_i_glide_lignum>  (94) 
3

>  <i_i_glide_rotatable_bonds>  (94) 
3

>  <r_i_docking_score>  (94) 
-3.88731

>  <r_i_glide_ligand_efficiency>  (94) 
-0.353392

>  <r_i_glide_ligand_efficiency_sa>  (94) 
-0.785936

>  <r_i_glide_ligand_efficiency_ln>  (94) 
-1.14403

>  <r_i_glide_gscore>  (94) 
-3.88731

>  <r_i_glide_lipo>  (94) 
-0.221086

>  <r_i_glide_hbond>  (94) 
-0.289894

>  <r_i_glide_metal>  (94) 
-0

>  <r_i_glide_rewards>  (94) 
-2.27973

>  <r_i_glide_evdw>  (94) 
-24.1887

>  <r_i_glide_ecoul>  (94) 
-2.0958

>  <r_i_glide_erotb>  (94) 
0.427211

>  <r_i_glide_esite>  (94) 
0

>  <r_i_glide_emodel>  (94) 
-32.1119

>  <r_i_glide_energy>  (94) 
-26.2845

>  <r_i_glide_einternal>  (94) 
0.876808

>  <r_i_glide_intrahb_reward>  (94) 
-0

>  <i_i_glide_confnum>  (94) 
2

>  <i_i_glide_posenum>  (94) 
1

>  <r_i_glide_eff_state_penalty>  (94) 
0

>  <ligand_id>  (94) 
31

>  <original_smiles>  (94) 
CC[S+]([O-])Cc1nonc1Cl

>  <smiles>  (94) 
[H]C([H])(c1nonc1Cl)S(=O)C([H])([H])C([H])([H])[H]

$$$$
32:0:0
     RDKit          3D

 25 26  0  0  1  0  0  0  0  0999 V2000
    2.2582   -3.0142   -3.8789 C   0  0  0  0  0  0  0  0  0  0  0  0
    3.1607   -3.0598   -2.7183 N   0  0  2  0  0  0  0  0  0  0  0  0
    2.5301   -3.4916   -1.4625 C   0  0  0  0  0  0  0  0  0  0  0  0
    3.5605   -3.1300   -0.3799 C   0  0  2  0  0  0  0  0  0  0  0  0
    2.9623   -2.5400    0.8982 C   0  0  0  0  0  0  0  0  0  0  0  0
    3.0351   -1.0865    0.7211 N   0  0  0  0  0  0  0  0  0  0  0  0
    4.2616   -0.8193   -0.0476 C   0  0  0  0  0  0  0  0  0  0  0  0
    4.4107   -2.0034   -1.0016 C   0  0  2  0  0  0  0  0  0  0  0  0
    3.8179   -1.7785   -2.4054 C   0  0  0  0  0  0  0  0  0  0  0  0
    1.4116   -2.3495   -3.7360 H   0  0  0  0  0  0  0  0  0  0  0  0
    1.8905   -4.0089   -4.1024 H   0  0  0  0  0  0  0  0  0  0  0  0
    2.8300   -2.6530   -4.7206 H   0  0  0  0  0  0  0  0  0  0  0  0
    1.6059   -2.9350   -1.3385 H   0  0  0  0  0  0  0  0  0  0  0  0
    2.2337   -4.5398   -1.4354 H   0  0  0  0  0  0  0  0  0  0  0  0
    4.1822   -4.0016   -0.1590 H   0  0  0  0  0  0  0  0  0  0  0  0
    1.9385   -2.8566    1.0948 H   0  0  0  0  0  0  0  0  0  0  0  0
    3.5818   -2.8093    1.7522 H   0  0  0  0  0  0  0  0  0  0  0  0
    2.2269   -0.8126    0.1684 H   0  0  0  0  0  0  0  0  0  0  0  0
    4.2219    0.1401   -0.5605 H   0  0  0  0  0  0  0  0  0  0  0  0
    5.1015   -0.7873    0.6402 H   0  0  0  0  0  0  0  0  0  0  0  0
    5.4573   -2.3104   -1.0879 H   0  0  0  0  0  0  0  0  0  0  0  0
    4.5669   -1.4924   -3.1442 H   0  0  0  0  0  0  0  0  0  0  0  0
    3.0608   -0.9910   -2.3754 H   0  0  0  0  0  0  0  0  0  0  0  0
    3.0470   -0.6019    1.6055 H   0  0  0  0  0  0  0  0  0  0  0  0
    3.8898   -3.7323   -2.9040 H   0  0  0  0  0  0  0  0  0  0  0  0
  1  2  1  0
  1 10  1  0
  1 11  1  0
  1 12  1  0
  2  9  1  0
  2  3  1  0
  2 25  1  6
  3  4  1  0
  3 13  1  0
  3 14  1  0
  4  8  1  0
  4  5  1  0
  4 15  1  1
  5  6  1  0
  5 16  1  0
  5 17  1  0
  6  7  1  0
  6 18  1  0
  6 24  1  0
  7  8  1  0
  7 19  1  0
  7 20  1  0
  8  9  1  0
  8 21  1  6
  9 22  1  0
  9 23  1  0
M  CHG  2   2   1   6   1
M  END
>  <i_m_ct_stereo_status>  (95) 
1

>  <s_m_source_file>  (95) 
/var/tmp/pbs.5076255.sched01/tmpwzsktf0x/40k9schvjs.sdf

>  <i_m_source_file_index>  (95) 
4

>  <i_lp_mmshare_version>  (95) 
48012

>  <i_f3d_flags>  (95) 
0

>  <s_epik_input>  (95) 
W0NIM11OKFtDSDJdMSlbQ0gyXVtDQEhdKFtDQEhdMTIpW0NIMl1bTkhdW0NIMl0y

>  <s_epik_cmdline>  (95) 
J2VwaWtfcHl0aG9uJywgJy1waHQnLCAnMi4wJywgJy1waCcsICc3LjAnLCAnLXRuJywgJzgnLCAnLW1hJywgJzIwMCcsICctaW1hZScsICc8aW5maWxlLm1hZT4nLCAnLW9tYWUnLCAnPG91dGZpbGUubWFlPic=

>  <r_epik_Ionization_Penalty>  (95) 
0.0124517

>  <r_epik_Ionization_Penalty_Charging>  (95) 
0.0124517

>  <r_epik_Ionization_Penalty_Neutral>  (95) 
0

>  <r_epik_State_Penalty>  (95) 
0.0611812

>  <r_epik_Charging_Adjusted_Penalty>  (95) 
0.0736328

>  <i_epik_Tot_Q>  (95) 
2

>  <i_epik_Tot_abs_Q>  (95) 
2

>  <s_lp_Force_Field>  (95) 
OPLS3e

>  <r_lp_Energy>  (95) 
24.4303

>  <b_lp_Chiralities_Consistent>  (95) 
1

>  <s_lp_Variant>  (95) 
32:0-1

>  <s_i_glide_gridfile>  (95) 
pfpi4k_grid

>  <i_i_glide_lignum>  (95) 
4

>  <i_i_glide_rotatable_bonds>  (95) 
0

>  <r_i_docking_score>  (95) 
-4.47243

>  <r_i_glide_ligand_efficiency>  (95) 
-0.496936

>  <r_i_glide_ligand_efficiency_sa>  (95) 
-1.03367

>  <r_i_glide_ligand_efficiency_ln>  (95) 
-1.39885

>  <r_i_glide_gscore>  (95) 
-4.47243

>  <r_i_glide_lipo>  (95) 
-0.246387

>  <r_i_glide_hbond>  (95) 
-0.2

>  <r_i_glide_metal>  (95) 
-0

>  <r_i_glide_rewards>  (95) 
-2.25

>  <r_i_glide_evdw>  (95) 
-6.89816

>  <r_i_glide_ecoul>  (95) 
-8.85597

>  <r_i_glide_erotb>  (95) 
0

>  <r_i_glide_esite>  (95) 
-0.102738

>  <r_i_glide_emodel>  (95) 
-22.1538

>  <r_i_glide_energy>  (95) 
-15.7541

>  <r_i_glide_einternal>  (95) 
0

>  <r_i_glide_intrahb_reward>  (95) 
-0

>  <i_i_glide_confnum>  (95) 
1

>  <i_i_glide_posenum>  (95) 
1

>  <r_i_glide_eff_state_penalty>  (95) 
0

>  <ligand_id>  (95) 
32

>  <original_smiles>  (95) 
CN1CC2CNCC2C1

>  <smiles>  (95) 
[H]C12C([H])(C([H])([H])[N+]([H])([H])C1([H])[H])C([H])([H])[N+]([H])(C([H])([H])[H])C2([H])[H]

$$$$
32:0:1
     RDKit          3D

 25 26  0  0  1  0  0  0  0  0999 V2000
    3.7105   -1.5459    2.2184 C   0  0  0  0  0  0  0  0  0  0  0  0
    4.1897   -2.0916    0.9204 N   0  0  2  0  0  0  0  0  0  0  0  0
    4.5284   -1.0728   -0.0894 C   0  0  0  0  0  0  0  0  0  0  0  0
    4.6331   -1.8577   -1.4147 C   0  0  2  0  0  0  0  0  0  0  0  0
    3.9932   -1.1525   -2.6211 C   0  0  0  0  0  0  0  0  0  0  0  0
    2.6497   -1.7168   -2.7238 N   0  0  0  0  0  0  0  0  0  0  0  0
    2.7076   -3.1035   -2.2886 C   0  0  0  0  0  0  0  0  0  0  0  0
    3.7875   -3.1277   -1.1968 C   0  0  2  0  0  0  0  0  0  0  0  0
    3.2442   -2.9998    0.2404 C   0  0  0  0  0  0  0  0  0  0  0  0
    2.7906   -0.9776    2.0961 H   0  0  0  0  0  0  0  0  0  0  0  0
    4.4539   -0.8851    2.6597 H   0  0  0  0  0  0  0  0  0  0  0  0
    3.5161   -2.3487    2.9261 H   0  0  0  0  0  0  0  0  0  0  0  0
    3.7106   -0.3567   -0.1359 H   0  0  0  0  0  0  0  0  0  0  0  0
    5.4410   -0.5134    0.1539 H   0  0  0  0  0  0  0  0  0  0  0  0
    5.6741   -2.1183   -1.6067 H   0  0  0  0  0  0  0  0  0  0  0  0
    3.9969   -0.0683   -2.5451 H   0  0  0  0  0  0  0  0  0  0  0  0
    4.5503   -1.4225   -3.5176 H   0  0  0  0  0  0  0  0  0  0  0  0
    2.0347   -1.2400   -2.0769 H   0  0  0  0  0  0  0  0  0  0  0  0
    1.7418   -3.4557   -1.9612 H   0  0  0  0  0  0  0  0  0  0  0  0
    3.0305   -3.7101   -3.1302 H   0  0  0  0  0  0  0  0  0  0  0  0
    4.4039   -4.0248   -1.2761 H   0  0  0  0  0  0  0  0  0  0  0  0
    3.1455   -3.9663    0.7485 H   0  0  0  0  0  0  0  0  0  0  0  0
    2.2610   -2.5301    0.2327 H   0  0  0  0  0  0  0  0  0  0  0  0
    2.2958   -1.6424   -3.6622 H   0  0  0  0  0  0  0  0  0  0  0  0
    5.0316   -2.6295    1.0672 H   0  0  0  0  0  0  0  0  0  0  0  0
  1  2  1  0
  1 10  1  0
  1 11  1  0
  1 12  1  0
  2  9  1  0
  2  3  1  0
  2 25  1  1
  3  4  1  0
  3 13  1  0
  3 14  1  0
  4  8  1  0
  4  5  1  0
  4 15  1  6
  5  6  1  0
  5 16  1  0
  5 17  1  0
  6  7  1  0
  6 18  1  0
  6 24  1  0
  7  8  1  0
  7 19  1  0
  7 20  1  0
  8  9  1  0
  8 21  1  1
  9 22  1  0
  9 23  1  0
M  CHG  2   2   1   6   1
M  END
>  <i_m_ct_stereo_status>  (96) 
1

>  <s_m_source_file>  (96) 
/var/tmp/pbs.5076255.sched01/tmpwzsktf0x/40k9schvjs.sdf

>  <i_m_source_file_index>  (96) 
4

>  <i_lp_mmshare_version>  (96) 
48012

>  <i_f3d_flags>  (96) 
0

>  <s_epik_input>  (96) 
W0NIM11OKFtDSDJdMSlbQ0gyXVtDQEhdKFtDQEhdMTIpW0NIMl1bTkhdW0NIMl0y

>  <s_epik_cmdline>  (96) 
J2VwaWtfcHl0aG9uJywgJy1waHQnLCAnMi4wJywgJy1waCcsICc3LjAnLCAnLXRuJywgJzgnLCAnLW1hJywgJzIwMCcsICctaW1hZScsICc8aW5maWxlLm1hZT4nLCAnLW9tYWUnLCAnPG91dGZpbGUubWFlPic=

>  <r_epik_Ionization_Penalty>  (96) 
0.0124517

>  <r_epik_Ionization_Penalty_Charging>  (96) 
0.0124517

>  <r_epik_Ionization_Penalty_Neutral>  (96) 
0

>  <r_epik_State_Penalty>  (96) 
0.0611812

>  <r_epik_Charging_Adjusted_Penalty>  (96) 
0.0736328

>  <i_epik_Tot_Q>  (96) 
2

>  <i_epik_Tot_abs_Q>  (96) 
2

>  <s_lp_Force_Field>  (96) 
OPLS3e

>  <r_lp_Energy>  (96) 
24.4303

>  <b_lp_Chiralities_Consistent>  (96) 
1

>  <s_lp_Variant>  (96) 
32:0-1

>  <s_i_glide_gridfile>  (96) 
pfpi4k_grid

>  <i_i_glide_lignum>  (96) 
4

>  <i_i_glide_rotatable_bonds>  (96) 
0

>  <r_i_docking_score>  (96) 
-4.08216

>  <r_i_glide_ligand_efficiency>  (96) 
-0.453574

>  <r_i_glide_ligand_efficiency_sa>  (96) 
-0.943472

>  <r_i_glide_ligand_efficiency_ln>  (96) 
-1.27678

>  <r_i_glide_gscore>  (96) 
-4.08216

>  <r_i_glide_lipo>  (96) 
-0.00449879

>  <r_i_glide_hbond>  (96) 
-0.2

>  <r_i_glide_metal>  (96) 
-0

>  <r_i_glide_rewards>  (96) 
-2.25

>  <r_i_glide_evdw>  (96) 
-8.8692

>  <r_i_glide_ecoul>  (96) 
-7.47307

>  <r_i_glide_erotb>  (96) 
0

>  <r_i_glide_esite>  (96) 
-0.0632456

>  <r_i_glide_emodel>  (96) 
-22.2383

>  <r_i_glide_energy>  (96) 
-16.3423

>  <r_i_glide_einternal>  (96) 
0

>  <r_i_glide_intrahb_reward>  (96) 
-0

>  <i_i_glide_confnum>  (96) 
1

>  <i_i_glide_posenum>  (96) 
2

>  <r_i_glide_eff_state_penalty>  (96) 
0

>  <ligand_id>  (96) 
32

>  <original_smiles>  (96) 
CN1CC2CNCC2C1

>  <smiles>  (96) 
[H]C12C([H])(C([H])([H])[N+]([H])([H])C1([H])[H])C([H])([H])[N+]([H])(C([H])([H])[H])C2([H])[H]

$$$$
32:0:2
     RDKit          3D

 25 26  0  0  1  0  0  0  0  0999 V2000
    1.5004   -3.9491   -1.2057 C   0  0  0  0  0  0  0  0  0  0  0  0
    2.7407   -3.4980   -1.8587 N   0  0  2  0  0  0  0  0  0  0  0  0
    3.5259   -2.5101   -1.1137 C   0  0  0  0  0  0  0  0  0  0  0  0
    4.5351   -1.9985   -2.1468 C   0  0  2  0  0  0  0  0  0  0  0  0
    4.7253   -0.4876   -2.0840 C   0  0  0  0  0  0  0  0  0  0  0  0
    3.8448    0.0600   -3.1309 N   0  0  0  0  0  0  0  0  0  0  0  0
    3.7635   -0.9304   -4.2100 C   0  0  0  0  0  0  0  0  0  0  0  0
    3.9034   -2.2909   -3.5224 C   0  0  2  0  0  0  0  0  0  0  0  0
    2.5598   -2.9618   -3.2105 C   0  0  0  0  0  0  0  0  0  0  0  0
    0.8045   -3.1169   -1.1179 H   0  0  0  0  0  0  0  0  0  0  0  0
    1.7415   -4.3560   -0.2224 H   0  0  0  0  0  0  0  0  0  0  0  0
    1.0167   -4.7357   -1.7852 H   0  0  0  0  0  0  0  0  0  0  0  0
    2.8696   -1.7032   -0.7816 H   0  0  0  0  0  0  0  0  0  0  0  0
    3.9956   -2.9304   -0.2223 H   0  0  0  0  0  0  0  0  0  0  0  0
    5.4826   -2.5294   -2.0329 H   0  0  0  0  0  0  0  0  0  0  0  0
    4.5085   -0.0757   -1.1003 H   0  0  0  0  0  0  0  0  0  0  0  0
    5.7623   -0.2514   -2.3133 H   0  0  0  0  0  0  0  0  0  0  0  0
    2.9156    0.1841   -2.7414 H   0  0  0  0  0  0  0  0  0  0  0  0
    2.8501   -0.8141   -4.7912 H   0  0  0  0  0  0  0  0  0  0  0  0
    4.6067   -0.7677   -4.8792 H   0  0  0  0  0  0  0  0  0  0  0  0
    4.5350   -2.9696   -4.0994 H   0  0  0  0  0  0  0  0  0  0  0  0
    2.2811   -3.7338   -3.9297 H   0  0  0  0  0  0  0  0  0  0  0  0
    1.7552   -2.2303   -3.1812 H   0  0  0  0  0  0  0  0  0  0  0  0
    4.1644    0.9530   -3.4709 H   0  0  0  0  0  0  0  0  0  0  0  0
    3.3217   -4.3286   -1.9747 H   0  0  0  0  0  0  0  0  0  0  0  0
  1  2  1  0
  1 10  1  0
  1 11  1  0
  1 12  1  0
  2  9  1  0
  2  3  1  0
  2 25  1  6
  3  4  1  0
  3 13  1  0
  3 14  1  0
  4  8  1  0
  4  5  1  0
  4 15  1  6
  5  6  1  0
  5 16  1  0
  5 17  1  0
  6  7  1  0
  6 18  1  0
  6 24  1  0
  7  8  1  0
  7 19  1  0
  7 20  1  0
  8  9  1  0
  8 21  1  6
  9 22  1  0
  9 23  1  0
M  CHG  2   2   1   6   1
M  END
>  <i_m_ct_stereo_status>  (97) 
1

>  <s_m_source_file>  (97) 
/var/tmp/pbs.5076255.sched01/tmpwzsktf0x/40k9schvjs.sdf

>  <i_m_source_file_index>  (97) 
4

>  <i_lp_mmshare_version>  (97) 
48012

>  <i_f3d_flags>  (97) 
0

>  <s_epik_input>  (97) 
W0NIM11OKFtDSDJdMSlbQ0gyXVtDQEhdKFtDQEhdMTIpW0NIMl1bTkhdW0NIMl0y

>  <s_epik_cmdline>  (97) 
J2VwaWtfcHl0aG9uJywgJy1waHQnLCAnMi4wJywgJy1waCcsICc3LjAnLCAnLXRuJywgJzgnLCAnLW1hJywgJzIwMCcsICctaW1hZScsICc8aW5maWxlLm1hZT4nLCAnLW9tYWUnLCAnPG91dGZpbGUubWFlPic=

>  <r_epik_Ionization_Penalty>  (97) 
0.0124517

>  <r_epik_Ionization_Penalty_Charging>  (97) 
0.0124517

>  <r_epik_Ionization_Penalty_Neutral>  (97) 
0

>  <r_epik_State_Penalty>  (97) 
0.0611812

>  <r_epik_Charging_Adjusted_Penalty>  (97) 
0.0736328

>  <i_epik_Tot_Q>  (97) 
2

>  <i_epik_Tot_abs_Q>  (97) 
2

>  <s_lp_Force_Field>  (97) 
OPLS3e

>  <r_lp_Energy>  (97) 
24.4303

>  <b_lp_Chiralities_Consistent>  (97) 
1

>  <s_lp_Variant>  (97) 
32:0-1

>  <s_i_glide_gridfile>  (97) 
pfpi4k_grid

>  <i_i_glide_lignum>  (97) 
4

>  <i_i_glide_rotatable_bonds>  (97) 
0

>  <r_i_docking_score>  (97) 
-4.05314

>  <r_i_glide_ligand_efficiency>  (97) 
-0.450349

>  <r_i_glide_ligand_efficiency_sa>  (97) 
-0.936764

>  <r_i_glide_ligand_efficiency_ln>  (97) 
-1.26771

>  <r_i_glide_gscore>  (97) 
-4.05314

>  <r_i_glide_lipo>  (97) 
-0.455757

>  <r_i_glide_hbond>  (97) 
0

>  <r_i_glide_metal>  (97) 
-0

>  <r_i_glide_rewards>  (97) 
-2.25

>  <r_i_glide_evdw>  (97) 
-9.2422

>  <r_i_glide_ecoul>  (97) 
-5.90183

>  <r_i_glide_erotb>  (97) 
0

>  <r_i_glide_esite>  (97) 
0

>  <r_i_glide_emodel>  (97) 
-21.0091

>  <r_i_glide_energy>  (97) 
-15.144

>  <r_i_glide_einternal>  (97) 
0

>  <r_i_glide_intrahb_reward>  (97) 
-0

>  <i_i_glide_confnum>  (97) 
3

>  <i_i_glide_posenum>  (97) 
7

>  <r_i_glide_eff_state_penalty>  (97) 
0

>  <ligand_id>  (97) 
32

>  <original_smiles>  (97) 
CN1CC2CNCC2C1

>  <smiles>  (97) 
[H]C12C([H])(C([H])([H])[N+]([H])([H])C1([H])[H])C([H])([H])[N+]([H])(C([H])([H])[H])C2([H])[H]

$$$$
32:1:0
     RDKit          3D

 25 26  0  0  1  0  0  0  0  0999 V2000
    2.6080   -2.0059   -3.8190 C   0  0  0  0  0  0  0  0  0  0  0  0
    3.0157   -1.9035   -2.3991 N   0  0  1  0  0  0  0  0  0  0  0  0
    3.1868   -3.1984   -1.7186 C   0  0  0  0  0  0  0  0  0  0  0  0
    4.0194   -2.8942   -0.4577 C   0  0  2  0  0  0  0  0  0  0  0  0
    3.1790   -2.6074    0.7958 C   0  0  0  0  0  0  0  0  0  0  0  0
    3.0500   -1.1422    0.8701 N   0  0  0  0  0  0  0  0  0  0  0  0
    4.3092   -0.5919    0.3308 C   0  0  0  0  0  0  0  0  0  0  0  0
    4.7514   -1.5717   -0.7656 C   0  0  2  0  0  0  0  0  0  0  0  0
    4.2897   -1.1859   -2.1835 C   0  0  0  0  0  0  0  0  0  0  0  0
    3.3446   -2.5536   -4.4103 H   0  0  0  0  0  0  0  0  0  0  0  0
    2.4904   -1.0163   -4.2594 H   0  0  0  0  0  0  0  0  0  0  0  0
    1.6550   -2.5299   -3.9045 H   0  0  0  0  0  0  0  0  0  0  0  0
    2.2331   -3.6835   -1.5069 H   0  0  0  0  0  0  0  0  0  0  0  0
    3.7582   -3.8668   -2.3675 H   0  0  0  0  0  0  0  0  0  0  0  0
    4.7113   -3.7170   -0.2657 H   0  0  0  0  0  0  0  0  0  0  0  0
    2.2039   -3.0940    0.7824 H   0  0  0  0  0  0  0  0  0  0  0  0
    3.7144   -2.9478    1.6848 H   0  0  0  0  0  0  0  0  0  0  0  0
    2.2651   -0.8703    0.2833 H   0  0  0  0  0  0  0  0  0  0  0  0
    4.2161    0.4375   -0.0064 H   0  0  0  0  0  0  0  0  0  0  0  0
    5.0462   -0.5904    1.1369 H   0  0  0  0  0  0  0  0  0  0  0  0
    5.8390   -1.6872   -0.7458 H   0  0  0  0  0  0  0  0  0  0  0  0
    5.0218   -1.5579   -2.9063 H   0  0  0  0  0  0  0  0  0  0  0  0
    4.2069   -0.1114   -2.3402 H   0  0  0  0  0  0  0  0  0  0  0  0
    2.8923   -0.8355    1.8138 H   0  0  0  0  0  0  0  0  0  0  0  0
    2.2834   -1.4071   -1.8891 H   0  0  0  0  0  0  0  0  0  0  0  0
  1  2  1  0
  1 10  1  0
  1 11  1  0
  1 12  1  0
  2  9  1  0
  2  3  1  0
  2 25  1  1
  3  4  1  0
  3 13  1  0
  3 14  1  0
  4  8  1  0
  4  5  1  0
  4 15  1  1
  5  6  1  0
  5 16  1  0
  5 17  1  0
  6  7  1  0
  6 18  1  0
  6 24  1  0
  7  8  1  0
  7 19  1  0
  7 20  1  0
  8  9  1  0
  8 21  1  6
  9 22  1  0
  9 23  1  0
M  CHG  2   2   1   6   1
M  END
>  <i_m_ct_stereo_status>  (98) 
1

>  <s_m_source_file>  (98) 
/var/tmp/pbs.5076255.sched01/tmpwzsktf0x/40k9schvjs.sdf

>  <i_m_source_file_index>  (98) 
5

>  <i_lp_mmshare_version>  (98) 
48012

>  <i_f3d_flags>  (98) 
0

>  <s_epik_input>  (98) 
W0NIM11OKFtDSDJdMSlbQ0gyXVtDQEhdKFtDQEhdMTIpW0NIMl1bTkhdW0NIMl0y

>  <s_epik_cmdline>  (98) 
J2VwaWtfcHl0aG9uJywgJy1waHQnLCAnMi4wJywgJy1waCcsICc3LjAnLCAnLXRuJywgJzgnLCAnLW1hJywgJzIwMCcsICctaW1hZScsICc8aW5maWxlLm1hZT4nLCAnLW9tYWUnLCAnPG91dGZpbGUubWFlPic=

>  <r_epik_Ionization_Penalty>  (98) 
0.0124517

>  <r_epik_Ionization_Penalty_Charging>  (98) 
0.0124517

>  <r_epik_Ionization_Penalty_Neutral>  (98) 
0

>  <r_epik_State_Penalty>  (98) 
0.0611812

>  <r_epik_Charging_Adjusted_Penalty>  (98) 
0.0736328

>  <i_epik_Tot_Q>  (98) 
2

>  <i_epik_Tot_abs_Q>  (98) 
2

>  <s_lp_Force_Field>  (98) 
OPLS3e

>  <r_lp_Energy>  (98) 
25.3695

>  <b_lp_Chiralities_Consistent>  (98) 
1

>  <s_lp_Variant>  (98) 
32:0-2

>  <s_i_glide_gridfile>  (98) 
pfpi4k_grid

>  <i_i_glide_lignum>  (98) 
5

>  <i_i_glide_rotatable_bonds>  (98) 
0

>  <r_i_docking_score>  (98) 
-4.91638

>  <r_i_glide_ligand_efficiency>  (98) 
-0.546264

>  <r_i_glide_ligand_efficiency_sa>  (98) 
-1.13628

>  <r_i_glide_ligand_efficiency_ln>  (98) 
-1.5377

>  <r_i_glide_gscore>  (98) 
-4.91638

>  <r_i_glide_lipo>  (98) 
-0.297456

>  <r_i_glide_hbond>  (98) 
-0.4

>  <r_i_glide_metal>  (98) 
-0

>  <r_i_glide_rewards>  (98) 
-2.25

>  <r_i_glide_evdw>  (98) 
-10.2093

>  <r_i_glide_ecoul>  (98) 
-8.84956

>  <r_i_glide_erotb>  (98) 
0

>  <r_i_glide_esite>  (98) 
-0.131023

>  <r_i_glide_emodel>  (98) 
-27.8367

>  <r_i_glide_energy>  (98) 
-19.0589

>  <r_i_glide_einternal>  (98) 
0

>  <r_i_glide_intrahb_reward>  (98) 
-0

>  <i_i_glide_confnum>  (98) 
4

>  <i_i_glide_posenum>  (98) 
30

>  <r_i_glide_eff_state_penalty>  (98) 
0

>  <ligand_id>  (98) 
32

>  <original_smiles>  (98) 
CN1CC2CNCC2C1

>  <smiles>  (98) 
[H]C12C([H])(C([H])([H])[N+]([H])([H])C1([H])[H])C([H])([H])[N+]([H])(C([H])([H])[H])C2([H])[H]

$$$$
32:1:1
     RDKit          3D

 25 26  0  0  1  0  0  0  0  0999 V2000
    2.6335   -0.1931   -4.8337 C   0  0  0  0  0  0  0  0  0  0  0  0
    3.0108   -1.0029   -3.6530 N   0  0  1  0  0  0  0  0  0  0  0  0
    2.8848   -2.4679   -3.8155 C   0  0  0  0  0  0  0  0  0  0  0  0
    3.7191   -3.0827   -2.6798 C   0  0  2  0  0  0  0  0  0  0  0  0
    2.8962   -3.4156   -1.4254 C   0  0  0  0  0  0  0  0  0  0  0  0
    3.0420   -2.2756   -0.5300 N   0  0  0  0  0  0  0  0  0  0  0  0
    4.3690   -1.7113   -0.7636 C   0  0  0  0  0  0  0  0  0  0  0  0
    4.6921   -1.9688   -2.2404 C   0  0  2  0  0  0  0  0  0  0  0  0
    4.3724   -0.7721   -3.1543 C   0  0  0  0  0  0  0  0  0  0  0  0
    3.2695   -0.3928   -5.6962 H   0  0  0  0  0  0  0  0  0  0  0  0
    2.6842    0.8721   -4.6233 H   0  0  0  0  0  0  0  0  0  0  0  0
    1.5964   -0.3955   -5.1204 H   0  0  0  0  0  0  0  0  0  0  0  0
    1.8463   -2.8112   -3.8389 H   0  0  0  0  0  0  0  0  0  0  0  0
    3.3456   -2.7624   -4.7586 H   0  0  0  0  0  0  0  0  0  0  0  0
    4.2402   -3.9736   -3.0438 H   0  0  0  0  0  0  0  0  0  0  0  0
    1.8523   -3.6383   -1.6400 H   0  0  0  0  0  0  0  0  0  0  0  0
    3.3383   -4.2830   -0.9333 H   0  0  0  0  0  0  0  0  0  0  0  0
    2.3060   -1.5928   -0.7346 H   0  0  0  0  0  0  0  0  0  0  0  0
    4.4267   -0.6641   -0.4762 H   0  0  0  0  0  0  0  0  0  0  0  0
    5.0760   -2.2701   -0.1499 H   0  0  0  0  0  0  0  0  0  0  0  0
    5.7422   -2.2612   -2.3704 H   0  0  0  0  0  0  0  0  0  0  0  0
    5.0092   -0.8020   -4.0319 H   0  0  0  0  0  0  0  0  0  0  0  0
    4.4865    0.2036   -2.6768 H   0  0  0  0  0  0  0  0  0  0  0  0
    2.9517   -2.5612    0.4259 H   0  0  0  0  0  0  0  0  0  0  0  0
    2.3933   -0.7650   -2.8884 H   0  0  0  0  0  0  0  0  0  0  0  0
  1  2  1  0
  1 10  1  0
  1 11  1  0
  1 12  1  0
  2  9  1  0
  2  3  1  0
  2 25  1  1
  3  4  1  0
  3 13  1  0
  3 14  1  0
  4  8  1  0
  4  5  1  0
  4 15  1  6
  5  6  1  0
  5 16  1  0
  5 17  1  0
  6  7  1  0
  6 18  1  0
  6 24  1  0
  7  8  1  0
  7 19  1  0
  7 20  1  0
  8  9  1  0
  8 21  1  1
  9 22  1  0
  9 23  1  0
M  CHG  2   2   1   6   1
M  END
>  <i_m_ct_stereo_status>  (99) 
1

>  <s_m_source_file>  (99) 
/var/tmp/pbs.5076255.sched01/tmpwzsktf0x/40k9schvjs.sdf

>  <i_m_source_file_index>  (99) 
5

>  <i_lp_mmshare_version>  (99) 
48012

>  <i_f3d_flags>  (99) 
0

>  <s_epik_input>  (99) 
W0NIM11OKFtDSDJdMSlbQ0gyXVtDQEhdKFtDQEhdMTIpW0NIMl1bTkhdW0NIMl0y

>  <s_epik_cmdline>  (99) 
J2VwaWtfcHl0aG9uJywgJy1waHQnLCAnMi4wJywgJy1waCcsICc3LjAnLCAnLXRuJywgJzgnLCAnLW1hJywgJzIwMCcsICctaW1hZScsICc8aW5maWxlLm1hZT4nLCAnLW9tYWUnLCAnPG91dGZpbGUubWFlPic=

>  <r_epik_Ionization_Penalty>  (99) 
0.0124517

>  <r_epik_Ionization_Penalty_Charging>  (99) 
0.0124517

>  <r_epik_Ionization_Penalty_Neutral>  (99) 
0

>  <r_epik_State_Penalty>  (99) 
0.0611812

>  <r_epik_Charging_Adjusted_Penalty>  (99) 
0.0736328

>  <i_epik_Tot_Q>  (99) 
2

>  <i_epik_Tot_abs_Q>  (99) 
2

>  <s_lp_Force_Field>  (99) 
OPLS3e

>  <r_lp_Energy>  (99) 
25.3695

>  <b_lp_Chiralities_Consistent>  (99) 
1

>  <s_lp_Variant>  (99) 
32:0-2

>  <s_i_glide_gridfile>  (99) 
pfpi4k_grid

>  <i_i_glide_lignum>  (99) 
5

>  <i_i_glide_rotatable_bonds>  (99) 
0

>  <r_i_docking_score>  (99) 
-4.86197

>  <r_i_glide_ligand_efficiency>  (99) 
-0.540219

>  <r_i_glide_ligand_efficiency_sa>  (99) 
-1.1237

>  <r_i_glide_ligand_efficiency_ln>  (99) 
-1.52068

>  <r_i_glide_gscore>  (99) 
-4.86197

>  <r_i_glide_lipo>  (99) 
-0.479448

>  <r_i_glide_hbond>  (99) 
-0.2

>  <r_i_glide_metal>  (99) 
-0

>  <r_i_glide_rewards>  (99) 
-2.25

>  <r_i_glide_evdw>  (99) 
-12.0557

>  <r_i_glide_ecoul>  (99) 
-8.29527

>  <r_i_glide_erotb>  (99) 
0

>  <r_i_glide_esite>  (99) 
-0.08545

>  <r_i_glide_emodel>  (99) 
-29.0046

>  <r_i_glide_energy>  (99) 
-20.3509

>  <r_i_glide_einternal>  (99) 
0

>  <r_i_glide_intrahb_reward>  (99) 
-0

>  <i_i_glide_confnum>  (99) 
2

>  <i_i_glide_posenum>  (99) 
17

>  <r_i_glide_eff_state_penalty>  (99) 
0

>  <ligand_id>  (99) 
32

>  <original_smiles>  (99) 
CN1CC2CNCC2C1

>  <smiles>  (99) 
[H]C12C([H])(C([H])([H])[N+]([H])([H])C1([H])[H])C([H])([H])[N+]([H])(C([H])([H])[H])C2([H])[H]

$$$$
32:1:2
     RDKit          3D

 25 26  0  0  1  0  0  0  0  0999 V2000
    2.7773   -2.1484    1.6037 C   0  0  0  0  0  0  0  0  0  0  0  0
    3.0253   -2.1994    0.1439 N   0  0  1  0  0  0  0  0  0  0  0  0
    4.2464   -1.4878   -0.3007 C   0  0  0  0  0  0  0  0  0  0  0  0
    4.5459   -2.0307   -1.7118 C   0  0  2  0  0  0  0  0  0  0  0  0
    3.9271   -1.1881   -2.8351 C   0  0  0  0  0  0  0  0  0  0  0  0
    2.6619   -1.8368   -3.1616 N   0  0  0  0  0  0  0  0  0  0  0  0
    2.8265   -3.2661   -2.9484 C   0  0  0  0  0  0  0  0  0  0  0  0
    3.8228   -3.3923   -1.7900 C   0  0  2  0  0  0  0  0  0  0  0  0
    3.1431   -3.5631   -0.4189 C   0  0  0  0  0  0  0  0  0  0  0  0
    3.5798   -2.6159    2.1749 H   0  0  0  0  0  0  0  0  0  0  0  0
    1.8486   -2.6618    1.8573 H   0  0  0  0  0  0  0  0  0  0  0  0
    2.6835   -1.1174    1.9453 H   0  0  0  0  0  0  0  0  0  0  0  0
    4.1479   -0.4008   -0.2466 H   0  0  0  0  0  0  0  0  0  0  0  0
    5.0672   -1.7694    0.3601 H   0  0  0  0  0  0  0  0  0  0  0  0
    5.6265   -2.1256   -1.8538 H   0  0  0  0  0  0  0  0  0  0  0  0
    3.7952   -0.1390   -2.5733 H   0  0  0  0  0  0  0  0  0  0  0  0
    4.5688   -1.2295   -3.7138 H   0  0  0  0  0  0  0  0  0  0  0  0
    1.9612   -1.4949   -2.5166 H   0  0  0  0  0  0  0  0  0  0  0  0
    1.8713   -3.7480   -2.7661 H   0  0  0  0  0  0  0  0  0  0  0  0
    3.2569   -3.6901   -3.8496 H   0  0  0  0  0  0  0  0  0  0  0  0
    4.5112   -4.2240   -1.9703 H   0  0  0  0  0  0  0  0  0  0  0  0
    3.8054   -4.1513    0.2230 H   0  0  0  0  0  0  0  0  0  0  0  0
    2.1857   -4.0915   -0.4637 H   0  0  0  0  0  0  0  0  0  0  0  0
    2.3872   -1.6400   -4.1101 H   0  0  0  0  0  0  0  0  0  0  0  0
    2.2391   -1.7490   -0.3142 H   0  0  0  0  0  0  0  0  0  0  0  0
  1  2  1  0
  1 10  1  0
  1 11  1  0
  1 12  1  0
  2  9  1  0
  2  3  1  0
  2 25  1  6
  3  4  1  0
  3 13  1  0
  3 14  1  0
  4  8  1  0
  4  5  1  0
  4 15  1  6
  5  6  1  0
  5 16  1  0
  5 17  1  0
  6  7  1  0
  6 18  1  0
  6 24  1  0
  7  8  1  0
  7 19  1  0
  7 20  1  0
  8  9  1  0
  8 21  1  6
  9 22  1  0
  9 23  1  0
M  CHG  2   2   1   6   1
M  END
>  <i_m_ct_stereo_status>  (100) 
1

>  <s_m_source_file>  (100) 
/var/tmp/pbs.5076255.sched01/tmpwzsktf0x/40k9schvjs.sdf

>  <i_m_source_file_index>  (100) 
5

>  <i_lp_mmshare_version>  (100) 
48012

>  <i_f3d_flags>  (100) 
0

>  <s_epik_input>  (100) 
W0NIM11OKFtDSDJdMSlbQ0gyXVtDQEhdKFtDQEhdMTIpW0NIMl1bTkhdW0NIMl0y

>  <s_epik_cmdline>  (100) 
J2VwaWtfcHl0aG9uJywgJy1waHQnLCAnMi4wJywgJy1waCcsICc3LjAnLCAnLXRuJywgJzgnLCAnLW1hJywgJzIwMCcsICctaW1hZScsICc8aW5maWxlLm1hZT4nLCAnLW9tYWUnLCAnPG91dGZpbGUubWFlPic=

>  <r_epik_Ionization_Penalty>  (100) 
0.0124517

>  <r_epik_Ionization_Penalty_Charging>  (100) 
0.0124517

>  <r_epik_Ionization_Penalty_Neutral>  (100) 
0

>  <r_epik_State_Penalty>  (100) 
0.0611812

>  <r_epik_Charging_Adjusted_Penalty>  (100) 
0.0736328

>  <i_epik_Tot_Q>  (100) 
2

>  <i_epik_Tot_abs_Q>  (100) 
2

>  <s_lp_Force_Field>  (100) 
OPLS3e

>  <r_lp_Energy>  (100) 
25.3695

>  <b_lp_Chiralities_Consistent>  (100) 
1

>  <s_lp_Variant>  (100) 
32:0-2

>  <s_i_glide_gridfile>  (100) 
pfpi4k_grid

>  <i_i_glide_lignum>  (100) 
5

>  <i_i_glide_rotatable_bonds>  (100) 
0

>  <r_i_docking_score>  (100) 
-4.63457

>  <r_i_glide_ligand_efficiency>  (100) 
-0.514952

>  <r_i_glide_ligand_efficiency_sa>  (100) 
-1.07114

>  <r_i_glide_ligand_efficiency_ln>  (100) 
-1.44956

>  <r_i_glide_gscore>  (100) 
-4.63457

>  <r_i_glide_lipo>  (100) 
-0.0768116

>  <r_i_glide_hbond>  (100) 
-0.352589

>  <r_i_glide_metal>  (100) 
-0

>  <r_i_glide_rewards>  (100) 
-2.25

>  <r_i_glide_evdw>  (100) 
-9.72133

>  <r_i_glide_ecoul>  (100) 
-9.33663

>  <r_i_glide_erotb>  (100) 
0

>  <r_i_glide_esite>  (100) 
-0.0686068

>  <r_i_glide_emodel>  (100) 
-27.3253

>  <r_i_glide_energy>  (100) 
-19.058

>  <r_i_glide_einternal>  (100) 
0

>  <r_i_glide_intrahb_reward>  (100) 
-0

>  <i_i_glide_confnum>  (100) 
2

>  <i_i_glide_posenum>  (100) 
10

>  <r_i_glide_eff_state_penalty>  (100) 
0

>  <ligand_id>  (100) 
32

>  <original_smiles>  (100) 
CN1CC2CNCC2C1

>  <smiles>  (100) 
[H]C12C([H])(C([H])([H])[N+]([H])([H])C1([H])[H])C([H])([H])[N+]([H])(C([H])([H])[H])C2([H])[H]

$$$$
32:2:0
     RDKit          3D

 24 25  0  0  1  0  0  0  0  0999 V2000
    2.9667    0.1662   -5.2863 C   0  0  0  0  0  0  0  0  0  0  0  0
    3.8648   -0.6296   -4.4603 N   0  0  0  0  0  0  0  0  0  0  0  0
    3.3369   -1.9620   -4.2072 C   0  0  0  0  0  0  0  0  0  0  0  0
    4.1999   -2.4614   -3.0436 C   0  0  2  0  0  0  0  0  0  0  0  0
    3.4180   -3.2737   -2.0071 C   0  0  0  0  0  0  0  0  0  0  0  0
    3.0294   -2.3148   -0.9569 N   0  0  0  0  0  0  0  0  0  0  0  0
    4.1101   -1.3172   -0.8854 C   0  0  0  0  0  0  0  0  0  0  0  0
    4.6445   -1.1898   -2.3160 C   0  0  2  0  0  0  0  0  0  0  0  0
    3.9945   -0.0668   -3.1298 C   0  0  0  0  0  0  0  0  0  0  0  0
    2.9190   -0.2521   -6.2922 H   0  0  0  0  0  0  0  0  0  0  0  0
    3.3327    1.1875   -5.3700 H   0  0  0  0  0  0  0  0  0  0  0  0
    1.9564    0.2002   -4.8769 H   0  0  0  0  0  0  0  0  0  0  0  0
    2.2864   -1.8948   -3.9127 H   0  0  0  0  0  0  0  0  0  0  0  0
    3.4077   -2.6082   -5.0789 H   0  0  0  0  0  0  0  0  0  0  0  0
    5.0626   -3.0079   -3.4268 H   0  0  0  0  0  0  0  0  0  0  0  0
    2.5573   -3.8044   -2.4145 H   0  0  0  0  0  0  0  0  0  0  0  0
    4.0919   -4.0073   -1.5538 H   0  0  0  0  0  0  0  0  0  0  0  0
    2.1537   -1.8338   -1.1811 H   0  0  0  0  0  0  0  0  0  0  0  0
    3.7742   -0.3807   -0.4441 H   0  0  0  0  0  0  0  0  0  0  0  0
    4.8943   -1.7282   -0.2468 H   0  0  0  0  0  0  0  0  0  0  0  0
    5.7312   -1.0904   -2.3131 H   0  0  0  0  0  0  0  0  0  0  0  0
    4.5726    0.8580   -3.1207 H   0  0  0  0  0  0  0  0  0  0  0  0
    2.9955    0.1438   -2.7388 H   0  0  0  0  0  0  0  0  0  0  0  0
    2.9343   -2.7841   -0.0677 H   0  0  0  0  0  0  0  0  0  0  0  0
  1  2  1  0
  1 10  1  0
  1 11  1  0
  1 12  1  0
  2  9  1  0
  2  3  1  0
  3  4  1  0
  3 13  1  0
  3 14  1  0
  4  8  1  0
  4  5  1  0
  4 15  1  6
  5  6  1  0
  5 16  1  0
  5 17  1  0
  6  7  1  0
  6 18  1  0
  6 24  1  0
  7  8  1  0
  7 19  1  0
  7 20  1  0
  8  9  1  0
  8 21  1  1
  9 22  1  0
  9 23  1  0
M  CHG  1   6   1
M  END
>  <i_m_ct_stereo_status>  (101) 
1

>  <s_m_source_file>  (101) 
/var/tmp/pbs.5076255.sched01/tmpwzsktf0x/40k9schvjs.sdf

>  <i_m_source_file_index>  (101) 
6

>  <i_lp_mmshare_version>  (101) 
48012

>  <i_f3d_flags>  (101) 
0

>  <s_epik_input>  (101) 
W0NIM11OKFtDSDJdMSlbQ0gyXVtDQEhdKFtDQEhdMTIpW0NIMl1bTkhdW0NIMl0y

>  <s_epik_cmdline>  (101) 
J2VwaWtfcHl0aG9uJywgJy1waHQnLCAnMi4wJywgJy1waCcsICc3LjAnLCAnLXRuJywgJzgnLCAnLW1hJywgJzIwMCcsICctaW1hZScsICc8aW5maWxlLm1hZT4nLCAnLW9tYWUnLCAnPG91dGZpbGUubWFlPic=

>  <r_epik_Ionization_Penalty>  (101) 
1.30171

>  <r_epik_Ionization_Penalty_Charging>  (101) 
0.00014543

>  <r_epik_Ionization_Penalty_Neutral>  (101) 
1.30157

>  <r_epik_State_Penalty>  (101) 
1.37556

>  <r_epik_Charging_Adjusted_Penalty>  (101) 
1.3757

>  <i_epik_Tot_Q>  (101) 
1

>  <i_epik_Tot_abs_Q>  (101) 
1

>  <s_lp_Force_Field>  (101) 
OPLS3e

>  <r_lp_Energy>  (101) 
2.42531

>  <b_lp_Chiralities_Consistent>  (101) 
1

>  <s_lp_Variant>  (101) 
32:0-3

>  <s_i_glide_gridfile>  (101) 
pfpi4k_grid

>  <i_i_glide_lignum>  (101) 
6

>  <i_i_glide_rotatable_bonds>  (101) 
0

>  <r_i_docking_score>  (101) 
-4.73214

>  <r_i_glide_ligand_efficiency>  (101) 
-0.525794

>  <r_i_glide_ligand_efficiency_sa>  (101) 
-1.09369

>  <r_i_glide_ligand_efficiency_ln>  (101) 
-1.48008

>  <r_i_glide_gscore>  (101) 
-4.73214

>  <r_i_glide_lipo>  (101) 
-0.367267

>  <r_i_glide_hbond>  (101) 
-0.2

>  <r_i_glide_metal>  (101) 
-0

>  <r_i_glide_rewards>  (101) 
-2.25

>  <r_i_glide_evdw>  (101) 
-13.67

>  <r_i_glide_ecoul>  (101) 
-7.66593

>  <r_i_glide_erotb>  (101) 
0

>  <r_i_glide_esite>  (101) 
-0.0814868

>  <r_i_glide_emodel>  (101) 
-28.8295

>  <r_i_glide_energy>  (101) 
-21.3359

>  <r_i_glide_einternal>  (101) 
0

>  <r_i_glide_intrahb_reward>  (101) 
-0

>  <i_i_glide_confnum>  (101) 
1

>  <i_i_glide_posenum>  (101) 
1

>  <r_i_glide_eff_state_penalty>  (101) 
0

>  <ligand_id>  (101) 
32

>  <original_smiles>  (101) 
CN1CC2CNCC2C1

>  <smiles>  (101) 
[H]C([H])([H])N1C([H])([H])C2([H])C([H])(C1([H])[H])C([H])([H])[N+]([H])([H])C2([H])[H]

$$$$
32:2:1
     RDKit          3D

 24 25  0  0  1  0  0  0  0  0999 V2000
    3.2644   -0.2936   -4.4905 C   0  0  0  0  0  0  0  0  0  0  0  0
    3.8696   -1.3920   -3.7500 N   0  0  0  0  0  0  0  0  0  0  0  0
    2.8702   -2.3638   -3.3140 C   0  0  0  0  0  0  0  0  0  0  0  0
    3.6236   -3.1746   -2.2539 C   0  0  2  0  0  0  0  0  0  0  0  0
    2.8058   -3.6118   -1.0286 C   0  0  0  0  0  0  0  0  0  0  0  0
    3.6896   -3.3570    0.1208 N   0  0  0  0  0  0  0  0  0  0  0  0
    4.4541   -2.1427   -0.2065 C   0  0  0  0  0  0  0  0  0  0  0  0
    4.6884   -2.2244   -1.7216 C   0  0  2  0  0  0  0  0  0  0  0  0
    4.4765   -0.9273   -2.5080 C   0  0  0  0  0  0  0  0  0  0  0  0
    2.8442   -0.6507   -5.4282 H   0  0  0  0  0  0  0  0  0  0  0  0
    4.0097    0.4632   -4.7359 H   0  0  0  0  0  0  0  0  0  0  0  0
    2.4674    0.1872   -3.9222 H   0  0  0  0  0  0  0  0  0  0  0  0
    2.0188   -1.8551   -2.8602 H   0  0  0  0  0  0  0  0  0  0  0  0
    2.5026   -2.9786   -4.1370 H   0  0  0  0  0  0  0  0  0  0  0  0
    4.1198   -4.0318   -2.7131 H   0  0  0  0  0  0  0  0  0  0  0  0
    1.9086   -3.0062   -0.9087 H   0  0  0  0  0  0  0  0  0  0  0  0
    2.4893   -4.6544   -1.0726 H   0  0  0  0  0  0  0  0  0  0  0  0
    3.1708   -3.2480    0.9795 H   0  0  0  0  0  0  0  0  0  0  0  0
    3.8396   -1.2776    0.0539 H   0  0  0  0  0  0  0  0  0  0  0  0
    5.3838   -2.0832    0.3618 H   0  0  0  0  0  0  0  0  0  0  0  0
    5.6741   -2.6458   -1.9348 H   0  0  0  0  0  0  0  0  0  0  0  0
    5.4076   -0.3887   -2.6783 H   0  0  0  0  0  0  0  0  0  0  0  0
    3.7930   -0.2611   -1.9835 H   0  0  0  0  0  0  0  0  0  0  0  0
    4.3361   -4.1308    0.1949 H   0  0  0  0  0  0  0  0  0  0  0  0
  1  2  1  0
  1 10  1  0
  1 11  1  0
  1 12  1  0
  2  9  1  0
  2  3  1  0
  3  4  1  0
  3 13  1  0
  3 14  1  0
  4  8  1  0
  4  5  1  0
  4 15  1  6
  5  6  1  0
  5 16  1  0
  5 17  1  0
  6  7  1  0
  6 18  1  0
  6 24  1  0
  7  8  1  0
  7 19  1  0
  7 20  1  0
  8  9  1  0
  8 21  1  1
  9 22  1  0
  9 23  1  0
M  CHG  1   6   1
M  END
>  <i_m_ct_stereo_status>  (102) 
1

>  <s_m_source_file>  (102) 
/var/tmp/pbs.5076255.sched01/tmpwzsktf0x/40k9schvjs.sdf

>  <i_m_source_file_index>  (102) 
6

>  <i_lp_mmshare_version>  (102) 
48012

>  <i_f3d_flags>  (102) 
0

>  <s_epik_input>  (102) 
W0NIM11OKFtDSDJdMSlbQ0gyXVtDQEhdKFtDQEhdMTIpW0NIMl1bTkhdW0NIMl0y

>  <s_epik_cmdline>  (102) 
J2VwaWtfcHl0aG9uJywgJy1waHQnLCAnMi4wJywgJy1waCcsICc3LjAnLCAnLXRuJywgJzgnLCAnLW1hJywgJzIwMCcsICctaW1hZScsICc8aW5maWxlLm1hZT4nLCAnLW9tYWUnLCAnPG91dGZpbGUubWFlPic=

>  <r_epik_Ionization_Penalty>  (102) 
1.30171

>  <r_epik_Ionization_Penalty_Charging>  (102) 
0.00014543

>  <r_epik_Ionization_Penalty_Neutral>  (102) 
1.30157

>  <r_epik_State_Penalty>  (102) 
1.37556

>  <r_epik_Charging_Adjusted_Penalty>  (102) 
1.3757

>  <i_epik_Tot_Q>  (102) 
1

>  <i_epik_Tot_abs_Q>  (102) 
1

>  <s_lp_Force_Field>  (102) 
OPLS3e

>  <r_lp_Energy>  (102) 
2.42531

>  <b_lp_Chiralities_Consistent>  (102) 
1

>  <s_lp_Variant>  (102) 
32:0-3

>  <s_i_glide_gridfile>  (102) 
pfpi4k_grid

>  <i_i_glide_lignum>  (102) 
6

>  <i_i_glide_rotatable_bonds>  (102) 
0

>  <r_i_docking_score>  (102) 
-4.17395

>  <r_i_glide_ligand_efficiency>  (102) 
-0.463773

>  <r_i_glide_ligand_efficiency_sa>  (102) 
-0.964686

>  <r_i_glide_ligand_efficiency_ln>  (102) 
-1.30549

>  <r_i_glide_gscore>  (102) 
-4.17395

>  <r_i_glide_lipo>  (102) 
-0.469083

>  <r_i_glide_hbond>  (102) 
0

>  <r_i_glide_metal>  (102) 
-0

>  <r_i_glide_rewards>  (102) 
-2.25

>  <r_i_glide_evdw>  (102) 
-12.1687

>  <r_i_glide_ecoul>  (102) 
-5.64289

>  <r_i_glide_erotb>  (102) 
0

>  <r_i_glide_esite>  (102) 
0

>  <r_i_glide_emodel>  (102) 
-24.4275

>  <r_i_glide_energy>  (102) 
-17.8116

>  <r_i_glide_einternal>  (102) 
0

>  <r_i_glide_intrahb_reward>  (102) 
-0

>  <i_i_glide_confnum>  (102) 
2

>  <i_i_glide_posenum>  (102) 
33

>  <r_i_glide_eff_state_penalty>  (102) 
0

>  <ligand_id>  (102) 
32

>  <original_smiles>  (102) 
CN1CC2CNCC2C1

>  <smiles>  (102) 
[H]C([H])([H])N1C([H])([H])C2([H])C([H])(C1([H])[H])C([H])([H])[N+]([H])([H])C2([H])[H]

$$$$
32:2:2
     RDKit          3D

 24 25  0  0  1  0  0  0  0  0999 V2000
    3.4135   -0.9657   -4.3326 C   0  0  0  0  0  0  0  0  0  0  0  0
    4.1228   -1.6850   -3.2863 N   0  0  0  0  0  0  0  0  0  0  0  0
    3.2290   -2.5729   -2.5510 C   0  0  0  0  0  0  0  0  0  0  0  0
    4.0265   -2.8923   -1.2750 C   0  0  2  0  0  0  0  0  0  0  0  0
    3.1802   -2.9742    0.0026 C   0  0  0  0  0  0  0  0  0  0  0  0
    3.2487   -1.6315    0.5998 N   0  0  0  0  0  0  0  0  0  0  0  0
    4.5843   -1.0964    0.2897 C   0  0  0  0  0  0  0  0  0  0  0  0
    4.9446   -1.6859   -1.0839 C   0  0  2  0  0  0  0  0  0  0  0  0
    4.6035   -0.7702   -2.2639 C   0  0  0  0  0  0  0  0  0  0  0  0
    3.0776   -1.6683   -5.0891 H   0  0  0  0  0  0  0  0  0  0  0  0
    4.0685   -0.2362   -4.8108 H   0  0  0  0  0  0  0  0  0  0  0  0
    2.5432   -0.4351   -3.9455 H   0  0  0  0  0  0  0  0  0  0  0  0
    2.2992   -2.0483   -2.3075 H   0  0  0  0  0  0  0  0  0  0  0  0
    2.9746   -3.4670   -3.1241 H   0  0  0  0  0  0  0  0  0  0  0  0
    4.6066   -3.8037   -1.4229 H   0  0  0  0  0  0  0  0  0  0  0  0
    2.1475   -3.2748   -0.1805 H   0  0  0  0  0  0  0  0  0  0  0  0
    3.6356   -3.6816    0.6997 H   0  0  0  0  0  0  0  0  0  0  0  0
    2.5292   -1.0678    0.1445 H   0  0  0  0  0  0  0  0  0  0  0  0
    4.6119   -0.0073    0.3289 H   0  0  0  0  0  0  0  0  0  0  0  0
    5.2822   -1.4796    1.0370 H   0  0  0  0  0  0  0  0  0  0  0  0
    5.9931   -1.9822   -1.1307 H   0  0  0  0  0  0  0  0  0  0  0  0
    5.4417   -0.1721   -2.6020 H   0  0  0  0  0  0  0  0  0  0  0  0
    3.8158   -0.0849   -1.9932 H   0  0  0  0  0  0  0  0  0  0  0  0
    3.0888   -1.6615    1.5947 H   0  0  0  0  0  0  0  0  0  0  0  0
  1  2  1  0
  1 10  1  0
  1 11  1  0
  1 12  1  0
  2  9  1  0
  2  3  1  0
  3  4  1  0
  3 13  1  0
  3 14  1  0
  4  8  1  0
  4  5  1  0
  4 15  1  6
  5  6  1  0
  5 16  1  0
  5 17  1  0
  6  7  1  0
  6 18  1  0
  6 24  1  0
  7  8  1  0
  7 19  1  0
  7 20  1  0
  8  9  1  0
  8 21  1  1
  9 22  1  0
  9 23  1  0
M  CHG  1   6   1
M  END
>  <i_m_ct_stereo_status>  (103) 
1

>  <s_m_source_file>  (103) 
/var/tmp/pbs.5076255.sched01/tmpwzsktf0x/40k9schvjs.sdf

>  <i_m_source_file_index>  (103) 
6

>  <i_lp_mmshare_version>  (103) 
48012

>  <i_f3d_flags>  (103) 
0

>  <s_epik_input>  (103) 
W0NIM11OKFtDSDJdMSlbQ0gyXVtDQEhdKFtDQEhdMTIpW0NIMl1bTkhdW0NIMl0y

>  <s_epik_cmdline>  (103) 
J2VwaWtfcHl0aG9uJywgJy1waHQnLCAnMi4wJywgJy1waCcsICc3LjAnLCAnLXRuJywgJzgnLCAnLW1hJywgJzIwMCcsICctaW1hZScsICc8aW5maWxlLm1hZT4nLCAnLW9tYWUnLCAnPG91dGZpbGUubWFlPic=

>  <r_epik_Ionization_Penalty>  (103) 
1.30171

>  <r_epik_Ionization_Penalty_Charging>  (103) 
0.00014543

>  <r_epik_Ionization_Penalty_Neutral>  (103) 
1.30157

>  <r_epik_State_Penalty>  (103) 
1.37556

>  <r_epik_Charging_Adjusted_Penalty>  (103) 
1.3757

>  <i_epik_Tot_Q>  (103) 
1

>  <i_epik_Tot_abs_Q>  (103) 
1

>  <s_lp_Force_Field>  (103) 
OPLS3e

>  <r_lp_Energy>  (103) 
2.42531

>  <b_lp_Chiralities_Consistent>  (103) 
1

>  <s_lp_Variant>  (103) 
32:0-3

>  <s_i_glide_gridfile>  (103) 
pfpi4k_grid

>  <i_i_glide_lignum>  (103) 
6

>  <i_i_glide_rotatable_bonds>  (103) 
0

>  <r_i_docking_score>  (103) 
-3.98676

>  <r_i_glide_ligand_efficiency>  (103) 
-0.442974

>  <r_i_glide_ligand_efficiency_sa>  (103) 
-0.921423

>  <r_i_glide_ligand_efficiency_ln>  (103) 
-1.24695

>  <r_i_glide_gscore>  (103) 
-3.98676

>  <r_i_glide_lipo>  (103) 
-0.0971212

>  <r_i_glide_hbond>  (103) 
-0.191722

>  <r_i_glide_metal>  (103) 
-0

>  <r_i_glide_rewards>  (103) 
-2.25

>  <r_i_glide_evdw>  (103) 
-10.5974

>  <r_i_glide_ecoul>  (103) 
-5.68562

>  <r_i_glide_erotb>  (103) 
0

>  <r_i_glide_esite>  (103) 
-0.0652075

>  <r_i_glide_emodel>  (103) 
-22.5899

>  <r_i_glide_energy>  (103) 
-16.2831

>  <r_i_glide_einternal>  (103) 
0

>  <r_i_glide_intrahb_reward>  (103) 
-0

>  <i_i_glide_confnum>  (103) 
4

>  <i_i_glide_posenum>  (103) 
38

>  <r_i_glide_eff_state_penalty>  (103) 
0

>  <ligand_id>  (103) 
32

>  <original_smiles>  (103) 
CN1CC2CNCC2C1

>  <smiles>  (103) 
[H]C([H])([H])N1C([H])([H])C2([H])C([H])(C1([H])[H])C([H])([H])[N+]([H])([H])C2([H])[H]

$$$$
33:0:0
     RDKit          3D

 61 65  0  0  1  0  0  0  0  0999 V2000
    3.3990   -2.2843    2.6858 C   0  0  0  0  0  0  0  0  0  0  0  0
    4.8387   -2.6390    3.1273 C   0  0  2  0  0  0  0  0  0  0  0  0
    5.7666   -1.7287    2.3349 C   0  0  0  0  0  0  0  0  0  0  0  0
    6.0943   -0.6459    2.8155 O   0  0  0  0  0  0  0  0  0  0  0  0
    6.1559   -2.1832    1.0056 C   0  0  0  0  0  0  0  0  0  0  0  0
    6.1623   -3.4927    0.7144 C   0  0  0  0  0  0  0  0  0  0  0  0
    5.9143   -4.6497    1.6980 C   0  0  1  0  0  0  0  0  0  0  0  0
    7.3350   -5.2378    1.9165 C   0  0  0  0  0  0  0  0  0  0  0  0
    5.2868   -4.1420    3.0462 C   0  0  2  0  0  0  0  0  0  0  0  0
    4.1666   -5.1376    3.3938 C   0  0  0  0  0  0  0  0  0  0  0  0
    3.6245   -5.5655    2.0225 C   0  0  2  0  0  0  0  0  0  0  0  0
    2.5446   -6.6993    1.9498 C   0  0  2  0  0  0  0  0  0  0  0  0
    1.4020   -6.5005    2.9748 C   0  0  0  0  0  0  0  0  0  0  0  0
    0.5129   -7.7353    3.1235 C   0  0  0  0  0  0  0  0  0  0  0  0
    1.2835   -8.9887    3.5048 C   0  0  0  0  0  0  0  0  0  0  0  0
    0.5991  -10.0251    4.0368 C   0  0  0  0  0  0  0  0  0  0  0  0
    1.2315  -11.3131    4.3119 C   0  0  0  0  0  0  0  0  0  0  0  0
    0.6080  -12.2601    4.7599 O   0  0  0  0  0  0  0  0  0  0  0  0
    2.7061  -11.4935    4.0097 C   0  0  0  0  0  0  0  0  0  0  0  0
    3.1620  -10.5472    2.8881 C   0  0  0  0  0  0  0  0  0  0  0  0
    2.7820   -9.0582    3.1351 C   0  0  2  0  0  0  0  0  0  0  0  0
    3.6153   -8.5726    4.3367 C   0  0  0  0  0  0  0  0  0  0  0  0
    3.0311   -8.1820    1.8591 C   0  0  2  0  0  0  0  0  0  0  0  0
    4.3881   -8.3193    1.1262 C   0  0  0  0  0  0  0  0  0  0  0  0
    5.4089   -7.2226    1.4496 C   0  0  0  0  0  0  0  0  0  0  0  0
    4.9068   -5.7630    1.1806 C   0  0  2  0  0  0  0  0  0  0  0  0
    4.5689   -5.5982   -0.3095 C   0  0  0  0  0  0  0  0  0  0  0  0
    3.2062   -1.2239    2.8778 H   0  0  0  0  0  0  0  0  0  0  0  0
    2.6315   -2.8369    3.2288 H   0  0  0  0  0  0  0  0  0  0  0  0
    3.2548   -2.4414    1.6158 H   0  0  0  0  0  0  0  0  0  0  0  0
    4.9168   -2.3418    4.1735 H   0  0  0  0  0  0  0  0  0  0  0  0
    6.4169   -1.4320    0.2781 H   0  0  0  0  0  0  0  0  0  0  0  0
    6.4581   -3.7953   -0.2806 H   0  0  0  0  0  0  0  0  0  0  0  0
    7.3762   -5.9506    2.7425 H   0  0  0  0  0  0  0  0  0  0  0  0
    8.0646   -4.4568    2.1004 H   0  0  0  0  0  0  0  0  0  0  0  0
    7.7076   -5.7259    1.0148 H   0  0  0  0  0  0  0  0  0  0  0  0
    6.0289   -4.2548    3.8357 H   0  0  0  0  0  0  0  0  0  0  0  0
    4.6199   -5.9799    3.9165 H   0  0  0  0  0  0  0  0  0  0  0  0
    3.4159   -4.7202    4.0686 H   0  0  0  0  0  0  0  0  0  0  0  0
    3.1105   -4.6912    1.6249 H   0  0  0  0  0  0  0  0  0  0  0  0
    2.0730   -6.5469    0.9781 H   0  0  0  0  0  0  0  0  0  0  0  0
    1.7904   -6.2420    3.9552 H   0  0  0  0  0  0  0  0  0  0  0  0
    0.7918   -5.6495    2.6749 H   0  0  0  0  0  0  0  0  0  0  0  0
   -0.2520   -7.5493    3.8785 H   0  0  0  0  0  0  0  0  0  0  0  0
   -0.0059   -7.9298    2.1852 H   0  0  0  0  0  0  0  0  0  0  0  0
   -0.4566   -9.9308    4.2357 H   0  0  0  0  0  0  0  0  0  0  0  0
    3.2779  -11.3625    4.9282 H   0  0  0  0  0  0  0  0  0  0  0  0
    2.8573  -12.5251    3.7000 H   0  0  0  0  0  0  0  0  0  0  0  0
    4.2360  -10.6854    2.7778 H   0  0  0  0  0  0  0  0  0  0  0  0
    2.7111  -10.8912    1.9596 H   0  0  0  0  0  0  0  0  0  0  0  0
    4.6760   -8.5834    4.0985 H   0  0  0  0  0  0  0  0  0  0  0  0
    3.4668   -9.2073    5.2138 H   0  0  0  0  0  0  0  0  0  0  0  0
    3.3338   -7.5721    4.6418 H   0  0  0  0  0  0  0  0  0  0  0  0
    2.3387   -8.6617    1.1635 H   0  0  0  0  0  0  0  0  0  0  0  0
    4.8497   -9.2867    1.3075 H   0  0  0  0  0  0  0  0  0  0  0  0
    4.2173   -8.3355    0.0497 H   0  0  0  0  0  0  0  0  0  0  0  0
    5.6793   -7.3547    2.4934 H   0  0  0  0  0  0  0  0  0  0  0  0
    6.3104   -7.4302    0.8758 H   0  0  0  0  0  0  0  0  0  0  0  0
    3.8218   -6.3223   -0.6119 H   0  0  0  0  0  0  0  0  0  0  0  0
    5.4346   -5.7676   -0.9379 H   0  0  0  0  0  0  0  0  0  0  0  0
    4.1650   -4.6109   -0.5380 H   0  0  0  0  0  0  0  0  0  0  0  0
  1  2  1  0
  1 28  1  0
  1 29  1  0
  1 30  1  0
  2  9  1  0
  2  3  1  0
  2 31  1  1
  3  4  2  0
  3  5  1  0
  5  6  2  0
  5 32  1  0
  6  7  1  0
  6 33  1  0
  7 26  1  0
  7  8  1  1
  7  9  1  0
  8 34  1  0
  8 35  1  0
  8 36  1  0
  9 10  1  0
  9 37  1  1
 10 11  1  0
 10 38  1  0
 10 39  1  0
 11 26  1  0
 11 12  1  0
 11 40  1  6
 12 23  1  0
 12 13  1  0
 12 41  1  6
 13 14  1  0
 13 42  1  0
 13 43  1  0
 14 15  1  0
 14 44  1  0
 14 45  1  0
 15 21  1  0
 15 16  2  0
 16 17  1  0
 16 46  1  0
 17 18  2  0
 17 19  1  0
 19 20  1  0
 19 47  1  0
 19 48  1  0
 20 21  1  0
 20 49  1  0
 20 50  1  0
 21 22  1  1
 21 23  1  0
 22 51  1  0
 22 52  1  0
 22 53  1  0
 23 24  1  0
 23 54  1  6
 24 25  1  0
 24 55  1  0
 24 56  1  0
 25 26  1  0
 25 57  1  0
 25 58  1  0
 26 27  1  6
 27 59  1  0
 27 60  1  0
 27 61  1  0
M  END
>  <i_m_ct_stereo_status>  (104) 
1

>  <s_m_source_file>  (104) 
/var/tmp/pbs.5076255.sched01/tmpwzsktf0x/40k9schvjs.sdf

>  <i_m_source_file_index>  (104) 
7

>  <i_lp_mmshare_version>  (104) 
48012

>  <i_f3d_flags>  (104) 
0

>  <s_epik_input>  (104) 
W0NIXTE9W0NIXUMoPU8pW0NAQEhdKFtDSDNdKVtDQEhdKFtDQF0xMltDSDNdKVtDSDJdW0NAQEhdM1tDQEhdNFtDQEBIXShbQ0gyXVtDSDJdW0NAXTIzW0NIM10pW0NAQF01KFtDSDNdKUMoW0NIMl1bQ0gyXTQpPVtDSF1DKD1PKVtDSDJdW0NIMl01

>  <s_epik_cmdline>  (104) 
J2VwaWtfcHl0aG9uJywgJy1waHQnLCAnMi4wJywgJy1waCcsICc3LjAnLCAnLXRuJywgJzgnLCAnLW1hJywgJzIwMCcsICctaW1hZScsICc8aW5maWxlLm1hZT4nLCAnLW9tYWUnLCAnPG91dGZpbGUubWFlPic=

>  <r_lp_tautomer_probability>  (104) 
1

>  <r_epik_Ionization_Penalty>  (104) 
0

>  <r_epik_Ionization_Penalty_Charging>  (104) 
0

>  <r_epik_Ionization_Penalty_Neutral>  (104) 
0

>  <r_epik_State_Penalty>  (104) 
-0

>  <r_epik_Charging_Adjusted_Penalty>  (104) 
0

>  <i_epik_Tot_Q>  (104) 
0

>  <i_epik_Tot_abs_Q>  (104) 
0

>  <s_lp_Force_Field>  (104) 
OPLS3e

>  <r_lp_Energy>  (104) 
64.6094

>  <b_lp_Chiralities_Consistent>  (104) 
1

>  <s_lp_Variant>  (104) 
33:0-1

>  <s_i_glide_gridfile>  (104) 
pfpi4k_grid

>  <i_i_glide_lignum>  (104) 
7

>  <i_i_glide_rotatable_bonds>  (104) 
0

>  <r_i_docking_score>  (104) 
-3.11319

>  <r_i_glide_ligand_efficiency>  (104) 
-0.115303

>  <r_i_glide_ligand_efficiency_sa>  (104) 
-0.34591

>  <r_i_glide_ligand_efficiency_ln>  (104) 
-0.7247

>  <r_i_glide_gscore>  (104) 
-3.11319

>  <r_i_glide_lipo>  (104) 
-0.545694

>  <r_i_glide_hbond>  (104) 
0

>  <r_i_glide_metal>  (104) 
-0

>  <r_i_glide_rewards>  (104) 
-1.21791

>  <r_i_glide_evdw>  (104) 
-23.3779

>  <r_i_glide_ecoul>  (104) 
-1.20463

>  <r_i_glide_erotb>  (104) 
0

>  <r_i_glide_esite>  (104) 
0

>  <r_i_glide_emodel>  (104) 
-27.6835

>  <r_i_glide_energy>  (104) 
-24.5825

>  <r_i_glide_einternal>  (104) 
0

>  <r_i_glide_intrahb_reward>  (104) 
-0

>  <i_i_glide_confnum>  (104) 
1

>  <i_i_glide_posenum>  (104) 
1

>  <r_i_glide_eff_state_penalty>  (104) 
0

>  <ligand_id>  (104) 
33

>  <original_smiles>  (104) 
CC1C(=O)C=CC2(C)C1CC1C3CCC4=CC(=O)CCC4(C)C3CCC12C

>  <smiles>  (104) 
[H]C1=C2C([H])([H])C([H])([H])C3([H])C([H])(C([H])([H])C([H])([H])C4(C([H])([H])[H])C3([H])C([H])([H])C3([H])C([H])(C([H])([H])[H])C(=O)C([H])=C([H])C34C([H])([H])[H])C2(C([H])([H])[H])C([H])([H])C([H])([H])C1=O

$$$$
35:0:0
     RDKit          3D

 46 50  0  0  1  0  0  0  0  0999 V2000
    1.9796   -2.7394    2.9325 C   0  0  0  0  0  0  0  0  0  0  0  0
    3.0533   -2.0348    2.1175 C   0  0  0  0  0  0  0  0  0  0  0  0
    4.0037   -1.1325    2.5198 C   0  0  0  0  0  0  0  0  0  0  0  0
    4.8260   -1.8474    3.4964 C   0  0  0  0  0  0  0  0  0  0  0  0
    4.8544   -3.0793    2.6012 C   0  0  0  0  0  0  0  0  0  0  0  0
    4.0017   -2.7703    1.2193 C   0  0  2  0  0  0  0  0  0  0  0  0
    4.0599   -1.3970    0.3480 C   0  0  2  0  0  0  0  0  0  0  0  0
    4.2064   -1.0699   -1.1591 C   0  0  0  0  0  0  0  0  0  0  0  0
    5.3789   -1.6612   -1.8912 C   0  0  0  0  0  0  0  0  0  0  0  0
    5.7379   -2.9728   -1.2446 C   0  0  1  0  0  0  0  0  0  0  0  0
    6.5781   -2.6995    0.0409 C   0  0  1  0  0  0  0  0  0  0  0  0
    6.3673   -1.3648    0.9626 C   0  0  0  0  0  0  0  0  0  0  0  0
    4.9190   -0.7171    1.3000 C   0  0  2  0  0  0  0  0  0  0  0  0
    7.0615   -3.9219    0.6279 O   0  0  0  0  0  0  0  0  0  0  0  0
    6.4159   -5.1346    0.8712 C   0  0  0  0  0  0  0  0  0  0  0  0
    7.0874   -6.1248    1.1588 O   0  0  0  0  0  0  0  0  0  0  0  0
    4.8532   -5.2987    0.8562 C   0  0  1  0  0  0  0  0  0  0  0  0
    4.3644   -6.1176    2.0789 C   0  0  0  0  0  0  0  0  0  0  0  0
    3.9338   -4.1050    0.3612 C   0  0  1  0  0  0  0  0  0  0  0  0
    2.5960   -4.5769    0.2778 O   0  0  0  0  0  0  0  0  0  0  0  0
    4.5014   -3.9116   -1.0941 C   0  0  1  0  0  0  0  0  0  0  0  0
    3.5057   -3.6703   -2.0639 O   0  0  0  0  0  0  0  0  0  0  0  0
    1.0124   -2.5056    2.4810 H   0  0  0  0  0  0  0  0  0  0  0  0
    1.9542   -2.3799    3.9653 H   0  0  0  0  0  0  0  0  0  0  0  0
    2.0945   -3.8239    2.9280 H   0  0  0  0  0  0  0  0  0  0  0  0
    5.7898   -1.3747    3.6845 H   0  0  0  0  0  0  0  0  0  0  0  0
    4.2965   -2.0146    4.4364 H   0  0  0  0  0  0  0  0  0  0  0  0
    5.8891   -3.3573    2.5527 H   0  0  0  0  0  0  0  0  0  0  0  0
    4.3824   -3.8668    3.1853 H   0  0  0  0  0  0  0  0  0  0  0  0
    3.0959   -0.8528    0.3390 H   0  0  0  0  0  0  0  0  0  0  0  0
    3.2701   -1.3290   -1.6636 H   0  0  0  0  0  0  0  0  0  0  0  0
    4.2446    0.0066   -1.2854 H   0  0  0  0  0  0  0  0  0  0  0  0
    5.1214   -1.7802   -2.9458 H   0  0  0  0  0  0  0  0  0  0  0  0
    6.2169   -0.9774   -1.8522 H   0  0  0  0  0  0  0  0  0  0  0  0
    6.4029   -3.4601   -1.9564 H   0  0  0  0  0  0  0  0  0  0  0  0
    7.5238   -2.4111   -0.4202 H   0  0  0  0  0  0  0  0  0  0  0  0
    6.9895   -1.4473    1.8510 H   0  0  0  0  0  0  0  0  0  0  0  0
    6.8720   -0.5752    0.4097 H   0  0  0  0  0  0  0  0  0  0  0  0
    4.9122    0.3659    1.1725 H   0  0  0  0  0  0  0  0  0  0  0  0
    4.7315   -6.0605    0.0891 H   0  0  0  0  0  0  0  0  0  0  0  0
    4.4590   -7.1851    1.8702 H   0  0  0  0  0  0  0  0  0  0  0  0
    3.3172   -5.9323    2.3203 H   0  0  0  0  0  0  0  0  0  0  0  0
    4.9583   -5.9350    2.9770 H   0  0  0  0  0  0  0  0  0  0  0  0
    2.5523   -5.1694   -0.4570 H   0  0  0  0  0  0  0  0  0  0  0  0
    4.8625   -4.8652   -1.4756 H   0  0  0  0  0  0  0  0  0  0  0  0
    3.1469   -4.5110   -2.3275 H   0  0  0  0  0  0  0  0  0  0  0  0
  1  2  1  0
  1 23  1  0
  1 24  1  0
  1 25  1  0
  2  6  1  0
  2  3  2  0
  3 13  1  0
  3  4  1  0
  4  5  1  0
  4 26  1  0
  4 27  1  0
  6  5  1  1
  5 28  1  0
  5 29  1  0
  6 19  1  0
  6  7  1  0
  7 13  1  0
  7  8  1  0
  7 30  1  1
  8  9  1  0
  8 31  1  0
  8 32  1  0
  9 10  1  0
  9 33  1  0
  9 34  1  0
 10 21  1  0
 10 11  1  0
 10 35  1  6
 11 12  1  0
 11 14  1  0
 11 36  1  6
 12 13  1  0
 12 37  1  0
 12 38  1  0
 13 39  1  6
 14 15  1  0
 15 16  2  0
 15 17  1  0
 17 18  1  0
 17 19  1  0
 17 40  1  6
 18 41  1  0
 18 42  1  0
 18 43  1  0
 19 20  1  6
 19 21  1  0
 20 44  1  0
 21 22  1  0
 21 45  1  6
 22 46  1  0
M  END
>  <i_m_ct_stereo_status>  (105) 
1

>  <s_m_source_file>  (105) 
/var/tmp/pbs.5076255.sched01/tmpwzsktf0x/40k9schvjs.sdf

>  <i_m_source_file_index>  (105) 
9

>  <i_lp_mmshare_version>  (105) 
48012

>  <i_f3d_flags>  (105) 
0

>  <s_epik_input>  (105) 
W0NIM11DMT1DKFtDSDJdW0NIMl0yKVtDQEhdKFtDQEBIXTNDMTI0KVtDSDJdW0NAQEhdNVtDQEhdKFtDSDJdW0NIMl0zKVtDQEhdKFtPSF0pW0NAQF00KFtPSF0pW0NAQEhdKEMoTzUpPU8pW0NIM10=

>  <s_epik_cmdline>  (105) 
J2VwaWtfcHl0aG9uJywgJy1waHQnLCAnMi4wJywgJy1waCcsICc3LjAnLCAnLXRuJywgJzgnLCAnLW1hJywgJzIwMCcsICctaW1hZScsICc8aW5maWxlLm1hZT4nLCAnLW9tYWUnLCAnPG91dGZpbGUubWFlPic=

>  <r_lp_tautomer_probability>  (105) 
1

>  <r_epik_Ionization_Penalty>  (105) 
1.20924e-07

>  <r_epik_Ionization_Penalty_Charging>  (105) 
0

>  <r_epik_Ionization_Penalty_Neutral>  (105) 
1.20924e-07

>  <r_epik_State_Penalty>  (105) 
-0

>  <r_epik_Charging_Adjusted_Penalty>  (105) 
0

>  <i_epik_Tot_Q>  (105) 
0

>  <i_epik_Tot_abs_Q>  (105) 
0

>  <s_epik_Chemistry_Notes>  (105) 
This compound has an ester and may undergo hydrolysis at high or low pH.

>  <s_lp_Force_Field>  (105) 
OPLS3e

>  <r_lp_Energy>  (105) 
219.664

>  <b_lp_Chiralities_Consistent>  (105) 
1

>  <s_lp_Variant>  (105) 
35:0-1

>  <s_i_glide_gridfile>  (105) 
pfpi4k_grid

>  <i_i_glide_lignum>  (105) 
9

>  <i_i_glide_rotatable_bonds>  (105) 
2

>  <r_i_docking_score>  (105) 
-3.98014

>  <r_i_glide_ligand_efficiency>  (105) 
-0.180915

>  <r_i_glide_ligand_efficiency_sa>  (105) 
-0.506932

>  <r_i_glide_ligand_efficiency_ln>  (105) 
-0.972891

>  <r_i_glide_gscore>  (105) 
-3.98014

>  <r_i_glide_lipo>  (105) 
-0.523297

>  <r_i_glide_hbond>  (105) 
0

>  <r_i_glide_metal>  (105) 
-0

>  <r_i_glide_rewards>  (105) 
-1.47831

>  <r_i_glide_evdw>  (105) 
-21.0182

>  <r_i_glide_ecoul>  (105) 
-6.18413

>  <r_i_glide_erotb>  (105) 
0

>  <r_i_glide_esite>  (105) 
0

>  <r_i_glide_emodel>  (105) 
-32.9646

>  <r_i_glide_energy>  (105) 
-27.2023

>  <r_i_glide_einternal>  (105) 
0.946234

>  <r_i_glide_intrahb_reward>  (105) 
-0

>  <i_i_glide_confnum>  (105) 
1

>  <i_i_glide_posenum>  (105) 
13

>  <r_i_glide_eff_state_penalty>  (105) 
0

>  <ligand_id>  (105) 
35

>  <original_smiles>  (105) 
CC1=C2CCC13C1CCC4C(CC21)OC(=O)C(C)C3(O)C4O

>  <smiles>  (105) 
[H]OC1([H])C2([H])C([H])([H])C([H])([H])C3([H])C4([H])C5=C(C([H])([H])[H])C3(C([H])([H])C5([H])[H])C1(O[H])C([H])(C([H])([H])[H])C(=O)OC2([H])C4([H])[H]

$$$$
35:0:1
     RDKit          3D

 46 50  0  0  1  0  0  0  0  0999 V2000
    2.5202   -1.0583    3.4458 C   0  0  0  0  0  0  0  0  0  0  0  0
    3.3774   -1.1579    2.1803 C   0  0  0  0  0  0  0  0  0  0  0  0
    4.4666   -0.4223    1.8128 C   0  0  0  0  0  0  0  0  0  0  0  0
    5.4722   -0.6828    2.8349 C   0  0  0  0  0  0  0  0  0  0  0  0
    5.1413   -2.1675    2.8097 C   0  0  0  0  0  0  0  0  0  0  0  0
    3.9548   -2.4468    1.6953 C   0  0  2  0  0  0  0  0  0  0  0  0
    3.8707   -1.7853    0.2099 C   0  0  2  0  0  0  0  0  0  0  0  0
    3.5948   -2.3358   -1.2131 C   0  0  0  0  0  0  0  0  0  0  0  0
    4.4667   -3.4606   -1.7083 C   0  0  0  0  0  0  0  0  0  0  0  0
    4.8615   -4.2935   -0.5080 C   0  0  1  0  0  0  0  0  0  0  0  0
    6.0665   -3.5974    0.2055 C   0  0  1  0  0  0  0  0  0  0  0  0
    6.2529   -1.9737    0.2350 C   0  0  0  0  0  0  0  0  0  0  0  0
    5.0262   -0.9292    0.4195 C   0  0  2  0  0  0  0  0  0  0  0  0
    6.6016   -4.4070    1.2672 O   0  0  0  0  0  0  0  0  0  0  0  0
    5.9590   -5.1262    2.2729 C   0  0  0  0  0  0  0  0  0  0  0  0
    6.6064   -5.9303    2.9362 O   0  0  0  0  0  0  0  0  0  0  0  0
    4.4549   -4.9029    2.6644 C   0  0  1  0  0  0  0  0  0  0  0  0
    4.2889   -4.8165    4.2058 C   0  0  0  0  0  0  0  0  0  0  0  0
    3.5334   -3.9740    1.7767 C   0  0  1  0  0  0  0  0  0  0  0  0
    2.2082   -4.0620    2.2605 O   0  0  0  0  0  0  0  0  0  0  0  0
    3.6418   -4.7069    0.3905 C   0  0  1  0  0  0  0  0  0  0  0  0
    2.4094   -4.8302   -0.3133 O   0  0  0  0  0  0  0  0  0  0  0  0
    1.4825   -0.8915    3.1435 H   0  0  0  0  0  0  0  0  0  0  0  0
    2.8258   -0.2088    4.0664 H   0  0  0  0  0  0  0  0  0  0  0  0
    2.5558   -1.9749    4.0415 H   0  0  0  0  0  0  0  0  0  0  0  0
    6.4883   -0.4261    2.5348 H   0  0  0  0  0  0  0  0  0  0  0  0
    5.2309   -0.2053    3.7838 H   0  0  0  0  0  0  0  0  0  0  0  0
    6.0936   -2.6609    2.7203 H   0  0  0  0  0  0  0  0  0  0  0  0
    4.7994   -2.3995    3.8149 H   0  0  0  0  0  0  0  0  0  0  0  0
    3.0050   -1.1198    0.0731 H   0  0  0  0  0  0  0  0  0  0  0  0
    2.5460   -2.6259   -1.2784 H   0  0  0  0  0  0  0  0  0  0  0  0
    3.6572   -1.5142   -1.9305 H   0  0  0  0  0  0  0  0  0  0  0  0
    3.9155   -4.0411   -2.4459 H   0  0  0  0  0  0  0  0  0  0  0  0
    5.3432   -3.0708   -2.2260 H   0  0  0  0  0  0  0  0  0  0  0  0
    5.2497   -5.2198   -0.9308 H   0  0  0  0  0  0  0  0  0  0  0  0
    6.8537   -3.8166   -0.5124 H   0  0  0  0  0  0  0  0  0  0  0  0
    7.0997   -1.7196    0.8742 H   0  0  0  0  0  0  0  0  0  0  0  0
    6.6293   -1.7363   -0.7570 H   0  0  0  0  0  0  0  0  0  0  0  0
    5.0646   -0.1076   -0.2941 H   0  0  0  0  0  0  0  0  0  0  0  0
    4.0500   -5.9003    2.5138 H   0  0  0  0  0  0  0  0  0  0  0  0
    4.2304   -5.8250    4.6270 H   0  0  0  0  0  0  0  0  0  0  0  0
    3.3750   -4.3011    4.5056 H   0  0  0  0  0  0  0  0  0  0  0  0
    5.1328   -4.3327    4.7076 H   0  0  0  0  0  0  0  0  0  0  0  0
    1.6923   -3.4509    1.7543 H   0  0  0  0  0  0  0  0  0  0  0  0
    3.8032   -5.7711    0.5561 H   0  0  0  0  0  0  0  0  0  0  0  0
    2.5998   -5.2377   -1.1535 H   0  0  0  0  0  0  0  0  0  0  0  0
  1  2  1  0
  1 23  1  0
  1 24  1  0
  1 25  1  0
  2  6  1  0
  2  3  2  0
  3 13  1  0
  3  4  1  0
  4  5  1  0
  4 26  1  0
  4 27  1  0
  6  5  1  1
  5 28  1  0
  5 29  1  0
  6 19  1  0
  6  7  1  0
  7 13  1  0
  7  8  1  0
  7 30  1  1
  8  9  1  0
  8 31  1  0
  8 32  1  0
  9 10  1  0
  9 33  1  0
  9 34  1  0
 10 21  1  0
 10 11  1  0
 10 35  1  6
 11 12  1  0
 11 14  1  0
 11 36  1  6
 12 13  1  0
 12 37  1  0
 12 38  1  0
 13 39  1  6
 14 15  1  0
 15 16  2  0
 15 17  1  0
 17 18  1  0
 17 19  1  0
 17 40  1  6
 18 41  1  0
 18 42  1  0
 18 43  1  0
 19 20  1  1
 19 21  1  0
 20 44  1  0
 21 22  1  0
 21 45  1  1
 22 46  1  0
M  END
>  <i_m_ct_stereo_status>  (106) 
1

>  <s_m_source_file>  (106) 
/var/tmp/pbs.5076255.sched01/tmpwzsktf0x/40k9schvjs.sdf

>  <i_m_source_file_index>  (106) 
9

>  <i_lp_mmshare_version>  (106) 
48012

>  <i_f3d_flags>  (106) 
0

>  <s_epik_input>  (106) 
W0NIM11DMT1DKFtDSDJdW0NIMl0yKVtDQEhdKFtDQEBIXTNDMTI0KVtDSDJdW0NAQEhdNVtDQEhdKFtDSDJdW0NIMl0zKVtDQEhdKFtPSF0pW0NAQF00KFtPSF0pW0NAQEhdKEMoTzUpPU8pW0NIM10=

>  <s_epik_cmdline>  (106) 
J2VwaWtfcHl0aG9uJywgJy1waHQnLCAnMi4wJywgJy1waCcsICc3LjAnLCAnLXRuJywgJzgnLCAnLW1hJywgJzIwMCcsICctaW1hZScsICc8aW5maWxlLm1hZT4nLCAnLW9tYWUnLCAnPG91dGZpbGUubWFlPic=

>  <r_lp_tautomer_probability>  (106) 
1

>  <r_epik_Ionization_Penalty>  (106) 
1.20924e-07

>  <r_epik_Ionization_Penalty_Charging>  (106) 
0

>  <r_epik_Ionization_Penalty_Neutral>  (106) 
1.20924e-07

>  <r_epik_State_Penalty>  (106) 
-0

>  <r_epik_Charging_Adjusted_Penalty>  (106) 
0

>  <i_epik_Tot_Q>  (106) 
0

>  <i_epik_Tot_abs_Q>  (106) 
0

>  <s_epik_Chemistry_Notes>  (106) 
This compound has an ester and may undergo hydrolysis at high or low pH.

>  <s_lp_Force_Field>  (106) 
OPLS3e

>  <r_lp_Energy>  (106) 
219.664

>  <b_lp_Chiralities_Consistent>  (106) 
1

>  <s_lp_Variant>  (106) 
35:0-1

>  <s_i_glide_gridfile>  (106) 
pfpi4k_grid

>  <i_i_glide_lignum>  (106) 
9

>  <i_i_glide_rotatable_bonds>  (106) 
2

>  <r_i_docking_score>  (106) 
-3.92371

>  <r_i_glide_ligand_efficiency>  (106) 
-0.17835

>  <r_i_glide_ligand_efficiency_sa>  (106) 
-0.499745

>  <r_i_glide_ligand_efficiency_ln>  (106) 
-0.959097

>  <r_i_glide_gscore>  (106) 
-3.92371

>  <r_i_glide_lipo>  (106) 
-0.546337

>  <r_i_glide_hbond>  (106) 
0

>  <r_i_glide_metal>  (106) 
-0

>  <r_i_glide_rewards>  (106) 
-1.3776

>  <r_i_glide_evdw>  (106) 
-20.821

>  <r_i_glide_ecoul>  (106) 
-6.39145

>  <r_i_glide_erotb>  (106) 
0

>  <r_i_glide_esite>  (106) 
0

>  <r_i_glide_emodel>  (106) 
-33.2338

>  <r_i_glide_energy>  (106) 
-27.2125

>  <r_i_glide_einternal>  (106) 
0.667541

>  <r_i_glide_intrahb_reward>  (106) 
-0

>  <i_i_glide_confnum>  (106) 
2

>  <i_i_glide_posenum>  (106) 
1

>  <r_i_glide_eff_state_penalty>  (106) 
0

>  <ligand_id>  (106) 
35

>  <original_smiles>  (106) 
CC1=C2CCC13C1CCC4C(CC21)OC(=O)C(C)C3(O)C4O

>  <smiles>  (106) 
[H]OC1([H])C2([H])C([H])([H])C([H])([H])C3([H])C4([H])C5=C(C([H])([H])[H])C3(C([H])([H])C5([H])[H])C1(O[H])C([H])(C([H])([H])[H])C(=O)OC2([H])C4([H])[H]

$$$$
35:0:2
     RDKit          3D

 46 50  0  0  1  0  0  0  0  0999 V2000
    2.3720   -1.2989    3.6153 C   0  0  0  0  0  0  0  0  0  0  0  0
    3.2065   -1.2900    2.3353 C   0  0  0  0  0  0  0  0  0  0  0  0
    4.2504   -0.4765    1.9890 C   0  0  0  0  0  0  0  0  0  0  0  0
    5.2921   -0.7253    2.9827 C   0  0  0  0  0  0  0  0  0  0  0  0
    5.0405   -2.2259    2.8948 C   0  0  0  0  0  0  0  0  0  0  0  0
    3.8506   -2.5209    1.7842 C   0  0  2  0  0  0  0  0  0  0  0  0
    3.7110   -1.8030    0.3306 C   0  0  2  0  0  0  0  0  0  0  0  0
    3.4434   -2.3057   -1.1094 C   0  0  0  0  0  0  0  0  0  0  0  0
    4.3686   -3.3525   -1.6646 C   0  0  0  0  0  0  0  0  0  0  0  0
    4.8313   -4.2146   -0.5127 C   0  0  1  0  0  0  0  0  0  0  0  0
    6.0043   -3.4769    0.2138 C   0  0  1  0  0  0  0  0  0  0  0  0
    6.0961   -1.8480    0.3175 C   0  0  0  0  0  0  0  0  0  0  0  0
    4.8135   -0.8850    0.5685 C   0  0  2  0  0  0  0  0  0  0  0  0
    6.5999   -4.2987    1.2325 O   0  0  0  0  0  0  0  0  0  0  0  0
    6.0182   -5.1005    2.2107 C   0  0  0  0  0  0  0  0  0  0  0  0
    6.7220   -5.8983    2.8318 O   0  0  0  0  0  0  0  0  0  0  0  0
    4.5128   -4.9835    2.6365 C   0  0  1  0  0  0  0  0  0  0  0  0
    4.3621   -4.9782    4.1818 C   0  0  0  0  0  0  0  0  0  0  0  0
    3.5159   -4.0729    1.7992 C   0  0  1  0  0  0  0  0  0  0  0  0
    2.2133   -4.2840    2.3065 O   0  0  0  0  0  0  0  0  0  0  0  0
    3.6494   -4.7447    0.3769 C   0  0  1  0  0  0  0  0  0  0  0  0
    2.4169   -4.9138   -0.3077 O   0  0  0  0  0  0  0  0  0  0  0  0
    1.3219   -1.1807    3.3320 H   0  0  0  0  0  0  0  0  0  0  0  0
    2.6300   -0.4610    4.2687 H   0  0  0  0  0  0  0  0  0  0  0  0
    2.4645   -2.2298    4.1745 H   0  0  0  0  0  0  0  0  0  0  0  0
    6.2833   -0.3915    2.6825 H   0  0  0  0  0  0  0  0  0  0  0  0
    5.0358   -0.3022    3.9556 H   0  0  0  0  0  0  0  0  0  0  0  0
    6.0155   -2.6567    2.7717 H   0  0  0  0  0  0  0  0  0  0  0  0
    4.7288   -2.5185    3.8946 H   0  0  0  0  0  0  0  0  0  0  0  0
    2.7992   -1.1866    0.2472 H   0  0  0  0  0  0  0  0  0  0  0  0
    2.4111   -2.6570   -1.1724 H   0  0  0  0  0  0  0  0  0  0  0  0
    3.4445   -1.4523   -1.7884 H   0  0  0  0  0  0  0  0  0  0  0  0
    3.8377   -3.9280   -2.4245 H   0  0  0  0  0  0  0  0  0  0  0  0
    5.2123   -2.8899   -2.1781 H   0  0  0  0  0  0  0  0  0  0  0  0
    5.2682   -5.0963   -0.9832 H   0  0  0  0  0  0  0  0  0  0  0  0
    6.7942   -3.6215   -0.5221 H   0  0  0  0  0  0  0  0  0  0  0  0
    6.9379   -1.5765    0.9546 H   0  0  0  0  0  0  0  0  0  0  0  0
    6.4483   -1.5435   -0.6680 H   0  0  0  0  0  0  0  0  0  0  0  0
    4.7983   -0.0280   -0.1038 H   0  0  0  0  0  0  0  0  0  0  0  0
    4.1640   -5.9964    2.4442 H   0  0  0  0  0  0  0  0  0  0  0  0
    4.3712   -6.0054    4.5557 H   0  0  0  0  0  0  0  0  0  0  0  0
    3.4287   -4.5334    4.5252 H   0  0  0  0  0  0  0  0  0  0  0  0
    5.1857   -4.4706    4.6930 H   0  0  0  0  0  0  0  0  0  0  0  0
    2.1700   -3.8892    3.1600 H   0  0  0  0  0  0  0  0  0  0  0  0
    3.8834   -5.7997    0.5010 H   0  0  0  0  0  0  0  0  0  0  0  0
    2.6045   -5.2918   -1.1714 H   0  0  0  0  0  0  0  0  0  0  0  0
  1  2  1  0
  1 23  1  0
  1 24  1  0
  1 25  1  0
  2  6  1  0
  2  3  2  0
  3 13  1  0
  3  4  1  0
  4  5  1  0
  4 26  1  0
  4 27  1  0
  6  5  1  1
  5 28  1  0
  5 29  1  0
  6 19  1  0
  6  7  1  0
  7 13  1  0
  7  8  1  0
  7 30  1  1
  8  9  1  0
  8 31  1  0
  8 32  1  0
  9 10  1  0
  9 33  1  0
  9 34  1  0
 10 21  1  0
 10 11  1  0
 10 35  1  6
 11 12  1  0
 11 14  1  0
 11 36  1  6
 12 13  1  0
 12 37  1  0
 12 38  1  0
 13 39  1  6
 14 15  1  0
 15 16  2  0
 15 17  1  0
 17 18  1  0
 17 19  1  0
 17 40  1  6
 18 41  1  0
 18 42  1  0
 18 43  1  0
 19 20  1  1
 19 21  1  0
 20 44  1  0
 21 22  1  0
 21 45  1  1
 22 46  1  0
M  END
>  <i_m_ct_stereo_status>  (107) 
1

>  <s_m_source_file>  (107) 
/var/tmp/pbs.5076255.sched01/tmpwzsktf0x/40k9schvjs.sdf

>  <i_m_source_file_index>  (107) 
9

>  <i_lp_mmshare_version>  (107) 
48012

>  <i_f3d_flags>  (107) 
0

>  <s_epik_input>  (107) 
W0NIM11DMT1DKFtDSDJdW0NIMl0yKVtDQEhdKFtDQEBIXTNDMTI0KVtDSDJdW0NAQEhdNVtDQEhdKFtDSDJdW0NIMl0zKVtDQEhdKFtPSF0pW0NAQF00KFtPSF0pW0NAQEhdKEMoTzUpPU8pW0NIM10=

>  <s_epik_cmdline>  (107) 
J2VwaWtfcHl0aG9uJywgJy1waHQnLCAnMi4wJywgJy1waCcsICc3LjAnLCAnLXRuJywgJzgnLCAnLW1hJywgJzIwMCcsICctaW1hZScsICc8aW5maWxlLm1hZT4nLCAnLW9tYWUnLCAnPG91dGZpbGUubWFlPic=

>  <r_lp_tautomer_probability>  (107) 
1

>  <r_epik_Ionization_Penalty>  (107) 
1.20924e-07

>  <r_epik_Ionization_Penalty_Charging>  (107) 
0

>  <r_epik_Ionization_Penalty_Neutral>  (107) 
1.20924e-07

>  <r_epik_State_Penalty>  (107) 
-0

>  <r_epik_Charging_Adjusted_Penalty>  (107) 
0

>  <i_epik_Tot_Q>  (107) 
0

>  <i_epik_Tot_abs_Q>  (107) 
0

>  <s_epik_Chemistry_Notes>  (107) 
This compound has an ester and may undergo hydrolysis at high or low pH.

>  <s_lp_Force_Field>  (107) 
OPLS3e

>  <r_lp_Energy>  (107) 
219.664

>  <b_lp_Chiralities_Consistent>  (107) 
1

>  <s_lp_Variant>  (107) 
35:0-1

>  <s_i_glide_gridfile>  (107) 
pfpi4k_grid

>  <i_i_glide_lignum>  (107) 
9

>  <i_i_glide_rotatable_bonds>  (107) 
2

>  <r_i_docking_score>  (107) 
-3.71437

>  <r_i_glide_ligand_efficiency>  (107) 
-0.168835

>  <r_i_glide_ligand_efficiency_sa>  (107) 
-0.473082

>  <r_i_glide_ligand_efficiency_ln>  (107) 
-0.907927

>  <r_i_glide_gscore>  (107) 
-3.71437

>  <r_i_glide_lipo>  (107) 
-0.534322

>  <r_i_glide_hbond>  (107) 
0

>  <r_i_glide_metal>  (107) 
-0

>  <r_i_glide_rewards>  (107) 
-1.38341

>  <r_i_glide_evdw>  (107) 
-20.613

>  <r_i_glide_ecoul>  (107) 
-5.10659

>  <r_i_glide_erotb>  (107) 
0

>  <r_i_glide_esite>  (107) 
0

>  <r_i_glide_emodel>  (107) 
-31.5205

>  <r_i_glide_energy>  (107) 
-25.7196

>  <r_i_glide_einternal>  (107) 
0.469349

>  <r_i_glide_intrahb_reward>  (107) 
-0

>  <i_i_glide_confnum>  (107) 
2

>  <i_i_glide_posenum>  (107) 
9

>  <r_i_glide_eff_state_penalty>  (107) 
0

>  <ligand_id>  (107) 
35

>  <original_smiles>  (107) 
CC1=C2CCC13C1CCC4C(CC21)OC(=O)C(C)C3(O)C4O

>  <smiles>  (107) 
[H]OC1([H])C2([H])C([H])([H])C([H])([H])C3([H])C4([H])C5=C(C([H])([H])[H])C3(C([H])([H])C5([H])[H])C1(O[H])C([H])(C([H])([H])[H])C(=O)OC2([H])C4([H])[H]

$$$$
36:0:0
     RDKit          3D

 39 41  0  0  1  0  0  0  0  0999 V2000
    3.4320   -1.5072   -3.2440 C   0  0  0  0  0  0  0  0  0  0  0  0
    4.1647   -2.0234   -2.2478 C   0  0  0  0  0  0  0  0  0  0  0  0
    5.4357   -2.8156   -2.5013 C   0  0  0  0  0  0  0  0  0  0  0  0
    6.5029   -2.4427   -1.6240 O   0  0  0  0  0  0  0  0  0  0  0  0
    6.2364   -2.1420   -0.2758 C   0  0  2  0  0  0  0  0  0  0  0  0
    7.3822   -1.5153    0.2588 O   0  0  0  0  0  0  0  0  0  0  0  0
    5.9325   -3.4324    0.5560 C   0  0  1  0  0  0  0  0  0  0  0  0
    6.0287   -3.1643    1.9461 O   0  0  0  0  0  0  0  0  0  0  0  0
    4.5534   -4.0948    0.2106 C   0  0  1  0  0  0  0  0  0  0  0  0
    4.0451   -5.0481    1.3153 C   0  0  0  0  0  0  0  0  0  0  0  0
    2.9615   -4.2788    2.0871 C   0  0  1  0  0  0  0  0  0  0  0  0
    3.3019   -4.1005    3.4439 O   0  0  0  0  0  0  0  0  0  0  0  0
    2.8016   -2.9553    1.3664 C   0  0  0  0  0  0  0  0  0  0  0  0
    2.2936   -1.8414    1.9268 C   0  0  0  0  0  0  0  0  0  0  0  0
    3.3832   -3.1001   -0.0367 C   0  0  2  0  0  0  0  0  0  0  0  0
    2.2788   -3.7849   -0.8766 C   0  0  0  0  0  0  0  0  0  0  0  0
    3.8336   -1.7853   -0.7788 C   0  0  1  0  0  0  0  0  0  0  0  0
    5.0877   -1.1194   -0.1993 C   0  0  1  0  0  0  0  0  0  0  0  0
    4.9054   -0.5878    1.0983 O   0  0  0  0  0  0  0  0  0  0  0  0
    2.5532   -0.9127   -3.0309 H   0  0  0  0  0  0  0  0  0  0  0  0
    3.6944   -1.6651   -4.2799 H   0  0  0  0  0  0  0  0  0  0  0  0
    5.2333   -3.8793   -2.4534 H   0  0  0  0  0  0  0  0  0  0  0  0
    5.7718   -2.6566   -3.5177 H   0  0  0  0  0  0  0  0  0  0  0  0
    7.1547   -1.2447    1.1384 H   0  0  0  0  0  0  0  0  0  0  0  0
    6.7230   -4.1519    0.3316 H   0  0  0  0  0  0  0  0  0  0  0  0
    5.3303   -2.5647    2.1777 H   0  0  0  0  0  0  0  0  0  0  0  0
    4.7049   -4.7180   -0.6660 H   0  0  0  0  0  0  0  0  0  0  0  0
    3.5898   -5.9147    0.8427 H   0  0  0  0  0  0  0  0  0  0  0  0
    4.8380   -5.4401    1.9511 H   0  0  0  0  0  0  0  0  0  0  0  0
    2.0146   -4.8187    2.0248 H   0  0  0  0  0  0  0  0  0  0  0  0
    2.5646   -3.7012    3.8846 H   0  0  0  0  0  0  0  0  0  0  0  0
    1.9428   -1.8434    2.9476 H   0  0  0  0  0  0  0  0  0  0  0  0
    2.2181   -0.9207    1.3740 H   0  0  0  0  0  0  0  0  0  0  0  0
    2.6672   -4.1294   -1.8318 H   0  0  0  0  0  0  0  0  0  0  0  0
    1.4650   -3.0892   -1.0952 H   0  0  0  0  0  0  0  0  0  0  0  0
    1.8471   -4.6563   -0.3811 H   0  0  0  0  0  0  0  0  0  0  0  0
    3.0172   -1.0608   -0.7528 H   0  0  0  0  0  0  0  0  0  0  0  0
    5.3552   -0.2771   -0.8372 H   0  0  0  0  0  0  0  0  0  0  0  0
    4.2120    0.0560    1.0521 H   0  0  0  0  0  0  0  0  0  0  0  0
  1  2  2  0
  1 20  1  0
  1 21  1  0
  2 17  1  0
  2  3  1  0
  3  4  1  0
  3 22  1  0
  3 23  1  0
  4  5  1  0
  5 18  1  0
  5  6  1  1
  5  7  1  0
  6 24  1  0
  7  8  1  0
  7  9  1  0
  7 25  1  6
  8 26  1  0
  9 15  1  0
  9 10  1  0
  9 27  1  6
 10 11  1  0
 10 28  1  0
 10 29  1  0
 11 12  1  0
 11 13  1  0
 11 30  1  1
 12 31  1  0
 13 14  2  0
 13 15  1  0
 14 32  1  0
 14 33  1  0
 15 16  1  6
 15 17  1  0
 16 34  1  0
 16 35  1  0
 16 36  1  0
 17 18  1  0
 17 37  1  6
 18 19  1  0
 18 38  1  6
 19 39  1  0
M  END
>  <i_m_ct_stereo_status>  (108) 
1

>  <s_m_source_file>  (108) 
/var/tmp/pbs.5076255.sched01/tmpwzsktf0x/40k9schvjs.sdf

>  <i_m_source_file_index>  (108) 
10

>  <i_lp_mmshare_version>  (108) 
48012

>  <i_f3d_flags>  (108) 
0

>  <s_epik_input>  (108) 
W09IXVtDQEBdMTJPW0NIMl1DKD1bQ0gyXSlbQ0BIXShbQ0BIXTJbT0hdKVtDQEBdMyhbQ0gzXSlbQ0BASF0oW0NAQEhdMVtPSF0pW0NIMl1bQ0BASF0oW09IXSlDMz1bQ0gyXQ==

>  <s_epik_cmdline>  (108) 
J2VwaWtfcHl0aG9uJywgJy1waHQnLCAnMi4wJywgJy1waCcsICc3LjAnLCAnLXRuJywgJzgnLCAnLW1hJywgJzIwMCcsICctaW1hZScsICc8aW5maWxlLm1hZT4nLCAnLW9tYWUnLCAnPG91dGZpbGUubWFlPic=

>  <r_lp_tautomer_probability>  (108) 
1

>  <r_epik_Ionization_Penalty>  (108) 
1.29284e-06

>  <r_epik_Ionization_Penalty_Charging>  (108) 
0

>  <r_epik_Ionization_Penalty_Neutral>  (108) 
1.29284e-06

>  <r_epik_State_Penalty>  (108) 
-0

>  <r_epik_Charging_Adjusted_Penalty>  (108) 
0

>  <i_epik_Tot_Q>  (108) 
0

>  <i_epik_Tot_abs_Q>  (108) 
0

>  <s_lp_Force_Field>  (108) 
OPLS3e

>  <r_lp_Energy>  (108) 
42.5786

>  <b_lp_Chiralities_Consistent>  (108) 
1

>  <s_lp_Variant>  (108) 
36:0-1

>  <s_i_glide_gridfile>  (108) 
pfpi4k_grid

>  <i_i_glide_lignum>  (108) 
10

>  <i_i_glide_rotatable_bonds>  (108) 
4

>  <r_i_docking_score>  (108) 
-4.24532

>  <r_i_glide_ligand_efficiency>  (108) 
-0.223438

>  <r_i_glide_ligand_efficiency_sa>  (108) 
-0.596222

>  <r_i_glide_ligand_efficiency_ln>  (108) 
-1.07628

>  <r_i_glide_gscore>  (108) 
-4.24532

>  <r_i_glide_lipo>  (108) 
-0.349674

>  <r_i_glide_hbond>  (108) 
-0.0857804

>  <r_i_glide_metal>  (108) 
-0

>  <r_i_glide_rewards>  (108) 
-2.07973

>  <r_i_glide_evdw>  (108) 
-22.8495

>  <r_i_glide_ecoul>  (108) 
-3.79358

>  <r_i_glide_erotb>  (108) 
0

>  <r_i_glide_esite>  (108) 
-0.0186238

>  <r_i_glide_emodel>  (108) 
-38.1819

>  <r_i_glide_energy>  (108) 
-26.643

>  <r_i_glide_einternal>  (108) 
2.27706

>  <r_i_glide_intrahb_reward>  (108) 
-0.5

>  <i_i_glide_confnum>  (108) 
2

>  <i_i_glide_posenum>  (108) 
33

>  <r_i_glide_eff_state_penalty>  (108) 
0

>  <ligand_id>  (108) 
36

>  <original_smiles>  (108) 
C=C1COC2(O)C(O)C3CC(O)C(=C)C3(C)C1C2O

>  <smiles>  (108) 
[H]OC1([H])C(=C([H])[H])C2(C([H])([H])[H])C3([H])C(=C([H])[H])C([H])([H])OC(O[H])(C3([H])O[H])C([H])(O[H])C2([H])C1([H])[H]

$$$$
36:0:1
     RDKit          3D

 39 41  0  0  1  0  0  0  0  0999 V2000
    3.4620   -1.5020   -3.2624 C   0  0  0  0  0  0  0  0  0  0  0  0
    4.1842   -2.0183   -2.2613 C   0  0  0  0  0  0  0  0  0  0  0  0
    5.4568   -2.8133   -2.5020 C   0  0  0  0  0  0  0  0  0  0  0  0
    6.5171   -2.4449   -1.6127 O   0  0  0  0  0  0  0  0  0  0  0  0
    6.2379   -2.1424   -0.2661 C   0  0  2  0  0  0  0  0  0  0  0  0
    7.3818   -1.5252    0.2769 O   0  0  0  0  0  0  0  0  0  0  0  0
    5.9225   -3.4348    0.5614 C   0  0  1  0  0  0  0  0  0  0  0  0
    5.9602   -3.1562    1.9543 O   0  0  0  0  0  0  0  0  0  0  0  0
    4.5477   -4.0944    0.2005 C   0  0  1  0  0  0  0  0  0  0  0  0
    4.0312   -5.0424    1.3082 C   0  0  0  0  0  0  0  0  0  0  0  0
    2.9451   -4.2665    2.0722 C   0  0  1  0  0  0  0  0  0  0  0  0
    3.2294   -4.0869    3.4445 O   0  0  0  0  0  0  0  0  0  0  0  0
    2.7957   -2.9432    1.3438 C   0  0  0  0  0  0  0  0  0  0  0  0
    2.2870   -1.8300    1.8985 C   0  0  0  0  0  0  0  0  0  0  0  0
    3.3837   -3.0953   -0.0545 C   0  0  2  0  0  0  0  0  0  0  0  0
    2.2858   -3.7728   -0.9028 C   0  0  0  0  0  0  0  0  0  0  0  0
    3.8437   -1.7857   -0.7929 C   0  0  1  0  0  0  0  0  0  0  0  0
    5.0890   -1.1180   -0.2026 C   0  0  1  0  0  0  0  0  0  0  0  0
    4.9040   -0.5934    1.0947 O   0  0  0  0  0  0  0  0  0  0  0  0
    2.5839   -0.9038   -3.0579 H   0  0  0  0  0  0  0  0  0  0  0  0
    3.7346   -1.6671   -4.2954 H   0  0  0  0  0  0  0  0  0  0  0  0
    5.2518   -3.8766   -2.4570 H   0  0  0  0  0  0  0  0  0  0  0  0
    5.8004   -2.6558   -3.5230 H   0  0  0  0  0  0  0  0  0  0  0  0
    7.1470   -1.2212    1.1457 H   0  0  0  0  0  0  0  0  0  0  0  0
    6.7180   -4.1556    0.3536 H   0  0  0  0  0  0  0  0  0  0  0  0
    5.3340   -2.4578    2.1187 H   0  0  0  0  0  0  0  0  0  0  0  0
    4.7079   -4.7182   -0.6756 H   0  0  0  0  0  0  0  0  0  0  0  0
    3.5742   -5.9063    0.8368 H   0  0  0  0  0  0  0  0  0  0  0  0
    4.8230   -5.4390    1.9448 H   0  0  0  0  0  0  0  0  0  0  0  0
    1.9967   -4.7959    1.9921 H   0  0  0  0  0  0  0  0  0  0  0  0
    4.1277   -3.7909    3.5179 H   0  0  0  0  0  0  0  0  0  0  0  0
    1.9300   -1.8416    2.9173 H   0  0  0  0  0  0  0  0  0  0  0  0
    2.2131   -0.9103    1.3431 H   0  0  0  0  0  0  0  0  0  0  0  0
    2.6832   -4.1115   -1.8592 H   0  0  0  0  0  0  0  0  0  0  0  0
    1.4726   -3.0735   -1.1189 H   0  0  0  0  0  0  0  0  0  0  0  0
    1.8556   -4.6474   -0.4071 H   0  0  0  0  0  0  0  0  0  0  0  0
    3.0252   -1.0656   -0.7804 H   0  0  0  0  0  0  0  0  0  0  0  0
    5.3642   -0.2762   -0.8398 H   0  0  0  0  0  0  0  0  0  0  0  0
    4.2252    0.0660    1.0454 H   0  0  0  0  0  0  0  0  0  0  0  0
  1  2  2  0
  1 20  1  0
  1 21  1  0
  2 17  1  0
  2  3  1  0
  3  4  1  0
  3 22  1  0
  3 23  1  0
  4  5  1  0
  5 18  1  0
  5  6  1  1
  5  7  1  0
  6 24  1  0
  7  8  1  0
  7  9  1  0
  7 25  1  1
  8 26  1  0
  9 15  1  0
  9 10  1  0
  9 27  1  6
 10 11  1  0
 10 28  1  0
 10 29  1  0
 11 12  1  0
 11 13  1  0
 11 30  1  1
 12 31  1  0
 13 14  2  0
 13 15  1  0
 14 32  1  0
 14 33  1  0
 15 16  1  6
 15 17  1  0
 16 34  1  0
 16 35  1  0
 16 36  1  0
 17 18  1  0
 17 37  1  6
 18 19  1  0
 18 38  1  6
 19 39  1  0
M  END
>  <i_m_ct_stereo_status>  (109) 
1

>  <s_m_source_file>  (109) 
/var/tmp/pbs.5076255.sched01/tmpwzsktf0x/40k9schvjs.sdf

>  <i_m_source_file_index>  (109) 
10

>  <i_lp_mmshare_version>  (109) 
48012

>  <i_f3d_flags>  (109) 
0

>  <s_epik_input>  (109) 
W09IXVtDQEBdMTJPW0NIMl1DKD1bQ0gyXSlbQ0BIXShbQ0BIXTJbT0hdKVtDQEBdMyhbQ0gzXSlbQ0BASF0oW0NAQEhdMVtPSF0pW0NIMl1bQ0BASF0oW09IXSlDMz1bQ0gyXQ==

>  <s_epik_cmdline>  (109) 
J2VwaWtfcHl0aG9uJywgJy1waHQnLCAnMi4wJywgJy1waCcsICc3LjAnLCAnLXRuJywgJzgnLCAnLW1hJywgJzIwMCcsICctaW1hZScsICc8aW5maWxlLm1hZT4nLCAnLW9tYWUnLCAnPG91dGZpbGUubWFlPic=

>  <r_lp_tautomer_probability>  (109) 
1

>  <r_epik_Ionization_Penalty>  (109) 
1.29284e-06

>  <r_epik_Ionization_Penalty_Charging>  (109) 
0

>  <r_epik_Ionization_Penalty_Neutral>  (109) 
1.29284e-06

>  <r_epik_State_Penalty>  (109) 
-0

>  <r_epik_Charging_Adjusted_Penalty>  (109) 
0

>  <i_epik_Tot_Q>  (109) 
0

>  <i_epik_Tot_abs_Q>  (109) 
0

>  <s_lp_Force_Field>  (109) 
OPLS3e

>  <r_lp_Energy>  (109) 
42.5786

>  <b_lp_Chiralities_Consistent>  (109) 
1

>  <s_lp_Variant>  (109) 
36:0-1

>  <s_i_glide_gridfile>  (109) 
pfpi4k_grid

>  <i_i_glide_lignum>  (109) 
10

>  <i_i_glide_rotatable_bonds>  (109) 
4

>  <r_i_docking_score>  (109) 
-4.17825

>  <r_i_glide_ligand_efficiency>  (109) 
-0.219908

>  <r_i_glide_ligand_efficiency_sa>  (109) 
-0.586803

>  <r_i_glide_ligand_efficiency_ln>  (109) 
-1.05928

>  <r_i_glide_gscore>  (109) 
-4.17825

>  <r_i_glide_lipo>  (109) 
-0.355157

>  <r_i_glide_hbond>  (109) 
-0.0880691

>  <r_i_glide_metal>  (109) 
-0

>  <r_i_glide_rewards>  (109) 
-2.07973

>  <r_i_glide_evdw>  (109) 
-23.0925

>  <r_i_glide_ecoul>  (109) 
-3.21739

>  <r_i_glide_erotb>  (109) 
0

>  <r_i_glide_esite>  (109) 
-0.0180595

>  <r_i_glide_emodel>  (109) 
-37.849

>  <r_i_glide_energy>  (109) 
-26.3099

>  <r_i_glide_einternal>  (109) 
1.9507

>  <r_i_glide_intrahb_reward>  (109) 
-0.5

>  <i_i_glide_confnum>  (109) 
1

>  <i_i_glide_posenum>  (109) 
10

>  <r_i_glide_eff_state_penalty>  (109) 
0

>  <ligand_id>  (109) 
36

>  <original_smiles>  (109) 
C=C1COC2(O)C(O)C3CC(O)C(=C)C3(C)C1C2O

>  <smiles>  (109) 
[H]OC1([H])C(=C([H])[H])C2(C([H])([H])[H])C3([H])C(=C([H])[H])C([H])([H])OC(O[H])(C3([H])O[H])C([H])(O[H])C2([H])C1([H])[H]

$$$$
36:0:2
     RDKit          3D

 39 41  0  0  1  0  0  0  0  0999 V2000
    3.4703   -1.3738   -3.0793 C   0  0  0  0  0  0  0  0  0  0  0  0
    4.2065   -1.9892   -2.1490 C   0  0  0  0  0  0  0  0  0  0  0  0
    5.4301   -2.8188   -2.5046 C   0  0  0  0  0  0  0  0  0  0  0  0
    6.5368   -2.5519   -1.6510 O   0  0  0  0  0  0  0  0  0  0  0  0
    6.3387   -2.3524   -0.2708 C   0  0  2  0  0  0  0  0  0  0  0  0
    7.5342   -1.8228    0.2514 O   0  0  0  0  0  0  0  0  0  0  0  0
    6.0004   -3.6947    0.4664 C   0  0  1  0  0  0  0  0  0  0  0  0
    6.1193   -3.5193    1.8731 O   0  0  0  0  0  0  0  0  0  0  0  0
    4.5827   -4.2688    0.1254 C   0  0  1  0  0  0  0  0  0  0  0  0
    4.0668   -5.2820    1.1754 C   0  0  0  0  0  0  0  0  0  0  0  0
    3.0392   -4.5252    2.0376 C   0  0  1  0  0  0  0  0  0  0  0  0
    3.3772   -4.4686    3.4014 O   0  0  0  0  0  0  0  0  0  0  0  0
    2.9154   -3.1541    1.4175 C   0  0  0  0  0  0  0  0  0  0  0  0
    2.4787   -2.0578    2.0706 C   0  0  0  0  0  0  0  0  0  0  0  0
    3.4500   -3.2091   -0.0102 C   0  0  2  0  0  0  0  0  0  0  0  0
    2.2966   -3.7839   -0.8663 C   0  0  0  0  0  0  0  0  0  0  0  0
    3.9333   -1.8626   -0.6567 C   0  0  1  0  0  0  0  0  0  0  0  0
    5.2321   -1.3012   -0.0531 C   0  0  1  0  0  0  0  0  0  0  0  0
    5.1319   -0.8911    1.2960 O   0  0  0  0  0  0  0  0  0  0  0  0
    2.6101   -0.7712   -2.8003 H   0  0  0  0  0  0  0  0  0  0  0  0
    3.6991   -1.4706   -4.1280 H   0  0  0  0  0  0  0  0  0  0  0  0
    5.1876   -3.8753   -2.5270 H   0  0  0  0  0  0  0  0  0  0  0  0
    5.7413   -2.6001   -3.5236 H   0  0  0  0  0  0  0  0  0  0  0  0
    7.4365   -1.7986    1.1993 H   0  0  0  0  0  0  0  0  0  0  0  0
    6.7564   -4.4306    0.1722 H   0  0  0  0  0  0  0  0  0  0  0  0
    5.4801   -2.8537    2.1199 H   0  0  0  0  0  0  0  0  0  0  0  0
    4.6766   -4.8334   -0.8006 H   0  0  0  0  0  0  0  0  0  0  0  0
    3.5597   -6.0890    0.6570 H   0  0  0  0  0  0  0  0  0  0  0  0
    4.8627   -5.7571    1.7498 H   0  0  0  0  0  0  0  0  0  0  0  0
    2.0632   -5.0141    1.9583 H   0  0  0  0  0  0  0  0  0  0  0  0
    4.2981   -4.2126    3.4653 H   0  0  0  0  0  0  0  0  0  0  0  0
    2.1558   -2.1422    3.0968 H   0  0  0  0  0  0  0  0  0  0  0  0
    2.4399   -1.0978    1.5971 H   0  0  0  0  0  0  0  0  0  0  0  0
    2.6425   -4.0534   -1.8691 H   0  0  0  0  0  0  0  0  0  0  0  0
    1.5002   -3.0576   -0.9889 H   0  0  0  0  0  0  0  0  0  0  0  0
    1.8557   -4.6828   -0.4222 H   0  0  0  0  0  0  0  0  0  0  0  0
    3.1427   -1.1144   -0.5457 H   0  0  0  0  0  0  0  0  0  0  0  0
    5.5048   -0.4103   -0.6163 H   0  0  0  0  0  0  0  0  0  0  0  0
    5.9186   -0.3827    1.5040 H   0  0  0  0  0  0  0  0  0  0  0  0
  1  2  2  0
  1 20  1  0
  1 21  1  0
  2 17  1  0
  2  3  1  0
  3  4  1  0
  3 22  1  0
  3 23  1  0
  4  5  1  0
  5 18  1  0
  5  6  1  1
  5  7  1  0
  6 24  1  0
  7  8  1  0
  7  9  1  0
  7 25  1  6
  8 26  1  0
  9 15  1  0
  9 10  1  0
  9 27  1  6
 10 11  1  0
 10 28  1  0
 10 29  1  0
 11 12  1  0
 11 13  1  0
 11 30  1  1
 12 31  1  0
 13 14  2  0
 13 15  1  0
 14 32  1  0
 14 33  1  0
 15 16  1  6
 15 17  1  0
 16 34  1  0
 16 35  1  0
 16 36  1  0
 17 18  1  0
 17 37  1  6
 18 19  1  0
 18 38  1  6
 19 39  1  0
M  END
>  <i_m_ct_stereo_status>  (110) 
1

>  <s_m_source_file>  (110) 
/var/tmp/pbs.5076255.sched01/tmpwzsktf0x/40k9schvjs.sdf

>  <i_m_source_file_index>  (110) 
10

>  <i_lp_mmshare_version>  (110) 
48012

>  <i_f3d_flags>  (110) 
0

>  <s_epik_input>  (110) 
W09IXVtDQEBdMTJPW0NIMl1DKD1bQ0gyXSlbQ0BIXShbQ0BIXTJbT0hdKVtDQEBdMyhbQ0gzXSlbQ0BASF0oW0NAQEhdMVtPSF0pW0NIMl1bQ0BASF0oW09IXSlDMz1bQ0gyXQ==

>  <s_epik_cmdline>  (110) 
J2VwaWtfcHl0aG9uJywgJy1waHQnLCAnMi4wJywgJy1waCcsICc3LjAnLCAnLXRuJywgJzgnLCAnLW1hJywgJzIwMCcsICctaW1hZScsICc8aW5maWxlLm1hZT4nLCAnLW9tYWUnLCAnPG91dGZpbGUubWFlPic=

>  <r_lp_tautomer_probability>  (110) 
1

>  <r_epik_Ionization_Penalty>  (110) 
1.29284e-06

>  <r_epik_Ionization_Penalty_Charging>  (110) 
0

>  <r_epik_Ionization_Penalty_Neutral>  (110) 
1.29284e-06

>  <r_epik_State_Penalty>  (110) 
-0

>  <r_epik_Charging_Adjusted_Penalty>  (110) 
0

>  <i_epik_Tot_Q>  (110) 
0

>  <i_epik_Tot_abs_Q>  (110) 
0

>  <s_lp_Force_Field>  (110) 
OPLS3e

>  <r_lp_Energy>  (110) 
42.5786

>  <b_lp_Chiralities_Consistent>  (110) 
1

>  <s_lp_Variant>  (110) 
36:0-1

>  <s_i_glide_gridfile>  (110) 
pfpi4k_grid

>  <i_i_glide_lignum>  (110) 
10

>  <i_i_glide_rotatable_bonds>  (110) 
4

>  <r_i_docking_score>  (110) 
-3.88759

>  <r_i_glide_ligand_efficiency>  (110) 
-0.20461

>  <r_i_glide_ligand_efficiency_sa>  (110) 
-0.545982

>  <r_i_glide_ligand_efficiency_ln>  (110) 
-0.985588

>  <r_i_glide_gscore>  (110) 
-3.88759

>  <r_i_glide_lipo>  (110) 
-0.280704

>  <r_i_glide_hbond>  (110) 
-0.0571151

>  <r_i_glide_metal>  (110) 
-0

>  <r_i_glide_rewards>  (110) 
-2.07973

>  <r_i_glide_evdw>  (110) 
-23.6838

>  <r_i_glide_ecoul>  (110) 
-1.82587

>  <r_i_glide_erotb>  (110) 
0

>  <r_i_glide_esite>  (110) 
-0.0119717

>  <r_i_glide_emodel>  (110) 
-36.5177

>  <r_i_glide_energy>  (110) 
-25.5096

>  <r_i_glide_einternal>  (110) 
1.93498

>  <r_i_glide_intrahb_reward>  (110) 
-0.5

>  <i_i_glide_confnum>  (110) 
2

>  <i_i_glide_posenum>  (110) 
22

>  <r_i_glide_eff_state_penalty>  (110) 
0

>  <ligand_id>  (110) 
36

>  <original_smiles>  (110) 
C=C1COC2(O)C(O)C3CC(O)C(=C)C3(C)C1C2O

>  <smiles>  (110) 
[H]OC1([H])C(=C([H])[H])C2(C([H])([H])[H])C3([H])C(=C([H])[H])C([H])([H])OC(O[H])(C3([H])O[H])C([H])(O[H])C2([H])C1([H])[H]

$$$$
37:0:0
     RDKit          3D

 84 90  0  0  1  0  0  0  0  0999 V2000
    0.2687   -8.7148    9.0540 C   0  0  0  0  0  0  0  0  0  0  0  0
    1.1899   -9.3510    8.3061 C   0  0  0  0  0  0  0  0  0  0  0  0
    2.6641   -8.9688    8.1684 C   0  0  2  0  0  0  0  0  0  0  0  0
    3.1666   -7.9518    9.2151 C   0  0  0  0  0  0  0  0  0  0  0  0
    3.1196   -6.6091    8.4917 C   0  0  0  0  0  0  0  0  0  0  0  0
    3.2453   -5.5239    9.0690 O   0  0  0  0  0  0  0  0  0  0  0  0
    2.9141   -6.7622    6.9833 C   0  0  1  0  0  0  0  0  0  0  0  0
    3.0228   -8.3014    6.8146 C   0  0  2  0  0  0  0  0  0  0  0  0
    2.4096   -8.8672    5.5502 C   0  0  0  0  0  0  0  0  0  0  0  0
    2.9850   -9.8715    4.8658 C   0  0  0  0  0  0  0  0  0  0  0  0
    1.1594   -8.1821    5.0516 C   0  0  0  0  0  0  0  0  0  0  0  0
    1.3081   -6.6430    4.9162 C   0  0  2  0  0  0  0  0  0  0  0  0
   -0.0651   -6.1526    4.3936 C   0  0  0  0  0  0  0  0  0  0  0  0
    2.4586   -6.2856    3.9556 C   0  0  2  0  0  0  0  0  0  0  0  0
    2.7168   -4.8122    3.7648 C   0  0  1  0  0  0  0  0  0  0  0  0
    3.2132   -4.1978    5.0566 C   0  0  1  0  0  0  0  0  0  0  0  0
    3.3770   -2.8042    4.8954 O   0  0  0  0  0  0  0  0  0  0  0  0
    2.1405   -4.4762    6.1500 C   0  0  0  0  0  0  0  0  0  0  0  0
    1.6965   -5.9822    6.3253 C   0  0  2  0  0  0  0  0  0  0  0  0
    0.4399   -5.9291    7.2484 C   0  0  0  0  0  0  0  0  0  0  0  0
    3.5525   -5.1747    2.5035 C   0  0  2  0  0  0  0  0  0  0  0  0
    5.0504   -5.3825    2.7825 C   0  0  0  0  0  0  0  0  0  0  0  0
    3.1887   -4.3186    1.2310 C   0  0  1  0  0  0  0  0  0  0  0  0
    4.3155   -3.7035    0.3207 C   0  0  2  0  0  0  0  0  0  0  0  0
    5.5148   -2.9750    1.0317 C   0  0  0  0  0  0  0  0  0  0  0  0
    5.9398   -1.8545    0.2337 O   0  0  0  0  0  0  0  0  0  0  0  0
    5.3913   -2.1179   -1.0176 C   0  0  2  0  0  0  0  0  0  0  0  0
    6.3266   -3.1373   -1.7295 C   0  0  0  0  0  0  0  0  0  0  0  0
    5.1132   -1.0411   -2.0269 C   0  0  0  0  0  0  0  0  0  0  0  0
    3.9709   -1.3347   -2.6840 C   0  0  0  0  0  0  0  0  0  0  0  0
    3.3437   -2.4776   -1.9812 C   0  0  0  0  0  0  0  0  0  0  0  0
    2.4646   -3.2401   -2.3978 O   0  0  0  0  0  0  0  0  0  0  0  0
    3.9587   -2.5112   -0.5814 C   0  0  1  0  0  0  0  0  0  0  0  0
    3.2204   -1.4060    0.2579 C   0  0  0  0  0  0  0  0  0  0  0  0
    2.2052   -5.2088    0.4168 C   0  0  0  0  0  0  0  0  0  0  0  0
    1.5518   -6.1548    1.4318 C   0  0  0  0  0  0  0  0  0  0  0  0
    2.6591   -6.4600    2.4321 C   0  0  2  0  0  0  0  0  0  0  0  0
    3.3713   -7.7398    1.9845 C   0  0  0  0  0  0  0  0  0  0  0  0
    0.5042   -7.8297    9.6324 H   0  0  0  0  0  0  0  0  0  0  0  0
   -0.7513   -9.0539    9.0949 H   0  0  0  0  0  0  0  0  0  0  0  0
    0.9025  -10.2365    7.7440 H   0  0  0  0  0  0  0  0  0  0  0  0
    3.2179   -9.8944    8.2733 H   0  0  0  0  0  0  0  0  0  0  0  0
    2.5812   -7.9406   10.1361 H   0  0  0  0  0  0  0  0  0  0  0  0
    4.1984   -8.1561    9.4996 H   0  0  0  0  0  0  0  0  0  0  0  0
    3.8192   -6.3580    6.5401 H   0  0  0  0  0  0  0  0  0  0  0  0
    4.0923   -8.4794    6.6857 H   0  0  0  0  0  0  0  0  0  0  0  0
    3.8973  -10.3408    5.2102 H   0  0  0  0  0  0  0  0  0  0  0  0
    2.5513  -10.2441    3.9513 H   0  0  0  0  0  0  0  0  0  0  0  0
    0.8809   -8.6125    4.0889 H   0  0  0  0  0  0  0  0  0  0  0  0
    0.3433   -8.4388    5.7383 H   0  0  0  0  0  0  0  0  0  0  0  0
   -0.1055   -5.0708    4.2765 H   0  0  0  0  0  0  0  0  0  0  0  0
   -0.8881   -6.4460    5.0541 H   0  0  0  0  0  0  0  0  0  0  0  0
   -0.2980   -6.6239    3.4427 H   0  0  0  0  0  0  0  0  0  0  0  0
    3.3607   -6.7190    4.3973 H   0  0  0  0  0  0  0  0  0  0  0  0
    1.7933   -4.3075    3.4626 H   0  0  0  0  0  0  0  0  0  0  0  0
    4.1757   -4.6111    5.3626 H   0  0  0  0  0  0  0  0  0  0  0  0
    3.7801   -2.4487    5.6790 H   0  0  0  0  0  0  0  0  0  0  0  0
    2.4929   -4.0681    7.1001 H   0  0  0  0  0  0  0  0  0  0  0  0
    1.2702   -3.8756    5.8953 H   0  0  0  0  0  0  0  0  0  0  0  0
   -0.2972   -5.2192    6.8740 H   0  0  0  0  0  0  0  0  0  0  0  0
    0.6603   -5.5958    8.2597 H   0  0  0  0  0  0  0  0  0  0  0  0
   -0.0638   -6.8847    7.2997 H   0  0  0  0  0  0  0  0  0  0  0  0
    5.5788   -5.7067    1.8862 H   0  0  0  0  0  0  0  0  0  0  0  0
    5.2292   -6.1635    3.5317 H   0  0  0  0  0  0  0  0  0  0  0  0
    5.5103   -4.4717    3.1738 H   0  0  0  0  0  0  0  0  0  0  0  0
    2.5901   -3.5047    1.6236 H   0  0  0  0  0  0  0  0  0  0  0  0
    4.6684   -4.5302   -0.3041 H   0  0  0  0  0  0  0  0  0  0  0  0
    5.2284   -2.6003    2.0188 H   0  0  0  0  0  0  0  0  0  0  0  0
    6.3603   -3.6570    1.1421 H   0  0  0  0  0  0  0  0  0  0  0  0
    5.8918   -3.5109   -2.6564 H   0  0  0  0  0  0  0  0  0  0  0  0
    6.5885   -3.9987   -1.1136 H   0  0  0  0  0  0  0  0  0  0  0  0
    7.2700   -2.6502   -1.9781 H   0  0  0  0  0  0  0  0  0  0  0  0
    5.7933   -0.2272   -2.2064 H   0  0  0  0  0  0  0  0  0  0  0  0
    3.5420   -0.7666   -3.4967 H   0  0  0  0  0  0  0  0  0  0  0  0
    3.7632   -1.0641    1.1368 H   0  0  0  0  0  0  0  0  0  0  0  0
    2.2335   -1.7377    0.5949 H   0  0  0  0  0  0  0  0  0  0  0  0
    3.0398   -0.5089   -0.3190 H   0  0  0  0  0  0  0  0  0  0  0  0
    1.4883   -4.6424   -0.1632 H   0  0  0  0  0  0  0  0  0  0  0  0
    2.7548   -5.8159   -0.3041 H   0  0  0  0  0  0  0  0  0  0  0  0
    0.7394   -5.6087    1.9137 H   0  0  0  0  0  0  0  0  0  0  0  0
    1.1238   -7.0511    0.9767 H   0  0  0  0  0  0  0  0  0  0  0  0
    3.7802   -7.6194    0.9809 H   0  0  0  0  0  0  0  0  0  0  0  0
    2.7042   -8.6001    1.9891 H   0  0  0  0  0  0  0  0  0  0  0  0
    4.2104   -7.9743    2.6398 H   0  0  0  0  0  0  0  0  0  0  0  0
  1  2  2  0
  1 39  1  0
  1 40  1  0
  2  3  1  0
  2 41  1  0
  3  8  1  0
  3  4  1  0
  3 42  1  1
  4  5  1  0
  4 43  1  0
  4 44  1  0
  5  6  2  0
  5  7  1  0
  7 19  1  0
  7  8  1  0
  7 45  1  6
  8  9  1  0
  8 46  1  6
  9 10  2  0
  9 11  1  0
 10 47  1  0
 10 48  1  0
 11 12  1  0
 11 49  1  0
 11 50  1  0
 12 19  1  0
 12 13  1  6
 12 14  1  0
 13 51  1  0
 13 52  1  0
 13 53  1  0
 14 37  1  0
 14 15  1  0
 14 54  1  1
 15 16  1  0
 15 21  1  0
 15 55  1  6
 16 17  1  0
 16 18  1  0
 16 56  1  1
 17 57  1  0
 18 19  1  0
 18 58  1  0
 18 59  1  0
 19 20  1  1
 20 60  1  0
 20 61  1  0
 20 62  1  0
 21 37  1  0
 21 22  1  1
 21 23  1  0
 22 63  1  0
 22 64  1  0
 22 65  1  0
 23 24  1  0
 23 35  1  0
 23 66  1  1
 24 33  1  0
 24 25  1  0
 24 67  1  6
 25 26  1  0
 25 68  1  0
 25 69  1  0
 26 27  1  0
 27 33  1  0
 27 28  1  6
 27 29  1  0
 28 70  1  0
 28 71  1  0
 28 72  1  0
 29 30  2  0
 29 73  1  0
 30 31  1  0
 30 74  1  0
 31 32  2  0
 31 33  1  0
 33 34  1  1
 34 75  1  0
 34 76  1  0
 34 77  1  0
 35 36  1  0
 35 78  1  0
 35 79  1  0
 36 37  1  0
 36 80  1  0
 36 81  1  0
 37 38  1  1
 38 82  1  0
 38 83  1  0
 38 84  1  0
M  END
>  <i_m_ct_stereo_status>  (111) 
1

>  <s_m_source_file>  (111) 
/var/tmp/pbs.5076255.sched01/tmpwzsktf0x/40k9schvjs.sdf

>  <i_m_source_file_index>  (111) 
11

>  <i_lp_mmshare_version>  (111) 
48012

>  <i_f3d_flags>  (111) 
0

>  <s_epik_input>  (111) 
Tz1DMVtDSDJdW0NAQEhdKFtDSF09W0NIMl0pW0NAQEhdKEMoPVtDSDJdKVtDSDJdMilbQ0BIXTFbQ0BAXTMoW0NIM10pW0NIMl1bQ0BIXShbT0hdKVtDQEhdKFtDQEhdNFtDQEBdMjNbQ0gzXSlbQ0BAXTUoW0NIM10pW0NAXTQoW0NIM10pW0NIMl1bQ0gyXVtDQEBIXTVbQ0BIXShbQ0gyXU82KVtDQEBdKFtDSDNdKShbQ0BdNjdbQ0gzXSlDKD1PKVtDSF09W0NIXTc=

>  <s_epik_cmdline>  (111) 
J2VwaWtfcHl0aG9uJywgJy1waHQnLCAnMi4wJywgJy1waCcsICc3LjAnLCAnLXRuJywgJzgnLCAnLW1hJywgJzIwMCcsICctaW1hZScsICc8aW5maWxlLm1hZT4nLCAnLW9tYWUnLCAnPG91dGZpbGUubWFlPic=

>  <r_lp_tautomer_probability>  (111) 
1

>  <r_epik_Ionization_Penalty>  (111) 
8.74934e-07

>  <r_epik_Ionization_Penalty_Charging>  (111) 
0

>  <r_epik_Ionization_Penalty_Neutral>  (111) 
8.74934e-07

>  <r_epik_State_Penalty>  (111) 
-0

>  <r_epik_Charging_Adjusted_Penalty>  (111) 
0

>  <i_epik_Tot_Q>  (111) 
0

>  <i_epik_Tot_abs_Q>  (111) 
0

>  <s_lp_Force_Field>  (111) 
OPLS3e

>  <r_lp_Energy>  (111) 
100.184

>  <b_lp_Chiralities_Consistent>  (111) 
1

>  <s_lp_Variant>  (111) 
37:0-1

>  <s_i_glide_gridfile>  (111) 
pfpi4k_grid

>  <i_i_glide_lignum>  (111) 
11

>  <i_i_glide_rotatable_bonds>  (111) 
3

>  <r_i_docking_score>  (111) 
-1.04305

>  <r_i_glide_ligand_efficiency>  (111) 
-0.0274488

>  <r_i_glide_ligand_efficiency_sa>  (111) 
-0.0922821

>  <r_i_glide_ligand_efficiency_ln>  (111) 
-0.224913

>  <r_i_glide_gscore>  (111) 
-1.04305

>  <r_i_glide_lipo>  (111) 
-0.184791

>  <r_i_glide_hbond>  (111) 
0

>  <r_i_glide_metal>  (111) 
-0

>  <r_i_glide_rewards>  (111) 
0

>  <r_i_glide_evdw>  (111) 
-24.4514

>  <r_i_glide_ecoul>  (111) 
1.6744

>  <r_i_glide_erotb>  (111) 
0.152672

>  <r_i_glide_esite>  (111) 
-0.0395238

>  <r_i_glide_emodel>  (111) 
-20.3007

>  <r_i_glide_energy>  (111) 
-22.777

>  <r_i_glide_einternal>  (111) 
5.22034

>  <r_i_glide_intrahb_reward>  (111) 
-0

>  <i_i_glide_confnum>  (111) 
1

>  <i_i_glide_posenum>  (111) 
14

>  <r_i_glide_eff_state_penalty>  (111) 
0

>  <ligand_id>  (111) 
37

>  <original_smiles>  (111) 
C=CC1CC(=O)C2C1C(=C)CC1(C)C3C(C(O)CC21C)C1(C)C(C2COC4(C)C=CC(=O)C24C)CCC31C

>  <smiles>  (111) 
[H]OC1([H])C([H])([H])C2(C([H])([H])[H])C3([H])C(=O)C([H])([H])C([H])(C([H])=C([H])[H])C3([H])C(=C([H])[H])C([H])([H])C2(C([H])([H])[H])C2([H])C1([H])C1(C([H])([H])[H])C([H])(C3([H])C([H])([H])OC4(C([H])([H])[H])C([H])=C([H])C(=O)C43C([H])([H])[H])C([H])([H])C([H])([H])C21C([H])([H])[H]

$$$$
38:0:0
     RDKit          3D

 62 67  0  0  1  0  0  0  0  0999 V2000
    3.2039   -3.0203   -3.8560 C   0  0  0  0  0  0  0  0  0  0  0  0
    3.9285   -2.4989   -2.6375 C   0  0  0  0  0  0  0  0  0  0  0  0
    3.5474   -1.5047   -1.8353 C   0  0  0  0  0  0  0  0  0  0  0  0
    4.6058   -1.2194   -0.8016 C   0  0  1  0  0  0  0  0  0  0  0  0
    4.1798   -0.6685    0.5714 C   0  0  0  0  0  0  0  0  0  0  0  0
    3.7050   -1.7169    1.5799 C   0  0  1  0  0  0  0  0  0  0  0  0
    2.3730   -2.0927    1.2804 O   0  0  0  0  0  0  0  0  0  0  0  0
    4.7432   -2.8864    1.6935 C   0  0  1  0  0  0  0  0  0  0  0  0
    4.4882   -3.9573    2.8252 C   0  0  2  0  0  0  0  0  0  0  0  0
    4.3731   -3.1112    4.1231 C   0  0  0  0  0  0  0  0  0  0  0  0
    5.6568   -4.9522    2.9125 C   0  0  0  0  0  0  0  0  0  0  0  0
    5.7480   -5.9720    3.8082 C   0  0  0  0  0  0  0  0  0  0  0  0
    4.6376   -6.6428    4.6384 C   0  0  1  0  0  0  0  0  0  0  0  0
    4.1865   -5.9263    5.9264 C   0  0  0  0  0  0  0  0  0  0  0  0
    2.8542   -5.1553    5.8627 C   0  0  0  0  0  0  0  0  0  0  0  0
    2.4299   -4.5963    6.8662 O   0  0  0  0  0  0  0  0  0  0  0  0
    2.1962   -5.1222    4.6609 O   0  0  0  0  0  0  0  0  0  0  0  0
    2.6327   -5.7918    3.4727 C   0  0  1  0  0  0  0  0  0  0  0  0
    3.3147   -4.8748    2.4406 C   0  0  0  0  0  0  0  0  0  0  0  0
    3.0257   -5.0485    1.1337 C   0  0  0  0  0  0  0  0  0  0  0  0
    3.7890   -4.4262   -0.0324 C   0  0  0  0  0  0  0  0  0  0  0  0
    5.0512   -3.5746    0.3431 C   0  0  2  0  0  0  0  0  0  0  0  0
    6.2449   -4.5107    0.5858 C   0  0  0  0  0  0  0  0  0  0  0  0
    6.5602   -5.0542    1.7789 C   0  0  0  0  0  0  0  0  0  0  0  0
    5.4571   -2.5184   -0.7829 C   0  0  2  0  0  0  0  0  0  0  0  0
    6.8043   -2.1004   -0.6156 O   0  0  0  0  0  0  0  0  0  0  0  0
    5.2665   -3.0702   -2.2260 C   0  0  0  0  0  0  0  0  0  0  0  0
    3.4345   -7.0881    3.7703 C   0  0  0  0  0  0  0  0  0  0  0  0
    3.8873   -7.8254    2.4764 C   0  0  0  0  0  0  0  0  0  0  0  0
    2.5520   -8.1176    4.5245 C   0  0  0  0  0  0  0  0  0  0  0  0
    3.8509   -2.8881   -4.7203 H   0  0  0  0  0  0  0  0  0  0  0  0
    2.2658   -2.4903   -4.0336 H   0  0  0  0  0  0  0  0  0  0  0  0
    2.9864   -4.0833   -3.7576 H   0  0  0  0  0  0  0  0  0  0  0  0
    2.6382   -0.9292   -1.9366 H   0  0  0  0  0  0  0  0  0  0  0  0
    5.1788   -0.4197   -1.2758 H   0  0  0  0  0  0  0  0  0  0  0  0
    5.0684   -0.1972    0.9952 H   0  0  0  0  0  0  0  0  0  0  0  0
    3.4543    0.1387    0.4773 H   0  0  0  0  0  0  0  0  0  0  0  0
    3.6385   -1.1947    2.5329 H   0  0  0  0  0  0  0  0  0  0  0  0
    1.9935   -1.4642    0.6673 H   0  0  0  0  0  0  0  0  0  0  0  0
    5.6741   -2.3863    1.9698 H   0  0  0  0  0  0  0  0  0  0  0  0
    4.7631   -3.6022    5.0042 H   0  0  0  0  0  0  0  0  0  0  0  0
    3.3520   -2.7804    4.3120 H   0  0  0  0  0  0  0  0  0  0  0  0
    4.9834   -2.2089    4.0791 H   0  0  0  0  0  0  0  0  0  0  0  0
    6.5988   -6.6341    3.7114 H   0  0  0  0  0  0  0  0  0  0  0  0
    5.1219   -7.5582    4.9859 H   0  0  0  0  0  0  0  0  0  0  0  0
    4.0528   -6.6744    6.7070 H   0  0  0  0  0  0  0  0  0  0  0  0
    4.9718   -5.2683    6.2937 H   0  0  0  0  0  0  0  0  0  0  0  0
    1.7147   -6.1197    2.9854 H   0  0  0  0  0  0  0  0  0  0  0  0
    2.2504   -5.7438    0.8473 H   0  0  0  0  0  0  0  0  0  0  0  0
    4.0779   -5.2401   -0.6975 H   0  0  0  0  0  0  0  0  0  0  0  0
    3.0488   -3.8369   -0.5679 H   0  0  0  0  0  0  0  0  0  0  0  0
    6.8918   -4.6963   -0.2557 H   0  0  0  0  0  0  0  0  0  0  0  0
    7.4421   -5.6762    1.8487 H   0  0  0  0  0  0  0  0  0  0  0  0
    7.3422   -2.8757   -0.5538 H   0  0  0  0  0  0  0  0  0  0  0  0
    5.2857   -4.1584   -2.2938 H   0  0  0  0  0  0  0  0  0  0  0  0
    6.0216   -2.6800   -2.9100 H   0  0  0  0  0  0  0  0  0  0  0  0
    3.0266   -8.1041    1.8662 H   0  0  0  0  0  0  0  0  0  0  0  0
    4.4373   -8.7407    2.7056 H   0  0  0  0  0  0  0  0  0  0  0  0
    4.5364   -7.2303    1.8350 H   0  0  0  0  0  0  0  0  0  0  0  0
    1.6929   -8.4117    3.9194 H   0  0  0  0  0  0  0  0  0  0  0  0
    2.1544   -7.7429    5.4668 H   0  0  0  0  0  0  0  0  0  0  0  0
    3.1100   -9.0265    4.7598 H   0  0  0  0  0  0  0  0  0  0  0  0
  1  2  1  0
  1 31  1  0
  1 32  1  0
  1 33  1  0
  2 27  1  0
  2  3  2  0
  3  4  1  0
  3 34  1  0
  4 25  1  0
  4  5  1  0
  4 35  1  6
  5  6  1  0
  5 36  1  0
  5 37  1  0
  6  7  1  0
  6  8  1  0
  6 38  1  1
  7 39  1  0
  8 22  1  0
  8  9  1  0
  8 40  1  1
  9 19  1  0
  9 10  1  1
  9 11  1  0
 10 41  1  0
 10 42  1  0
 10 43  1  0
 11 24  1  0
 11 12  2  0
 12 13  1  0
 12 44  1  0
 13 28  1  0
 13 14  1  0
 13 45  1  1
 14 15  1  0
 14 46  1  0
 14 47  1  0
 15 16  2  0
 15 17  1  0
 17 18  1  0
 18 19  1  0
 18 28  1  0
 18 48  1  6
 19 20  2  0
 20 21  1  0
 20 49  1  0
 22 21  1  6
 21 50  1  0
 21 51  1  0
 22 23  1  0
 22 25  1  0
 23 24  2  0
 23 52  1  0
 24 53  1  0
 25 26  1  1
 25 27  1  0
 26 54  1  0
 27 55  1  0
 27 56  1  0
 28 29  1  0
 28 30  1  0
 29 57  1  0
 29 58  1  0
 29 59  1  0
 30 60  1  0
 30 61  1  0
 30 62  1  0
M  END
>  <i_m_ct_stereo_status>  (112) 
1

>  <s_m_source_file>  (112) 
/var/tmp/pbs.5076255.sched01/tmpwzsktf0x/40k9schvjs.sdf

>  <i_m_source_file_index>  (112) 
12

>  <i_lp_mmshare_version>  (112) 
48012

>  <i_f3d_flags>  (112) 
0

>  <s_epik_input>  (112) 
W0NIM11DKD1bQ0hdMSlbQ0gyXVtDQEBdMihbT0hdKVtDQEBIXTFbQ0gyXVtDQEBIXShbT0hdKVtDQEhdKFtDQF0yMzQpW0NAXTUoW0NIM10pQyhbQ0hdPVtDSF00KT1bQ0hdW0NASF02W0NIMl1DKD1PKU9bQ0BIXShDNihbQ0gzXSlbQ0gzXSlDNT1bQ0hdW0NIMl0z

>  <s_epik_cmdline>  (112) 
J2VwaWtfcHl0aG9uJywgJy1waHQnLCAnMi4wJywgJy1waCcsICc3LjAnLCAnLXRuJywgJzgnLCAnLW1hJywgJzIwMCcsICctaW1hZScsICc8aW5maWxlLm1hZT4nLCAnLW9tYWUnLCAnPG91dGZpbGUubWFlPic=

>  <r_lp_tautomer_probability>  (112) 
1

>  <r_epik_Ionization_Penalty>  (112) 
2.26617e-07

>  <r_epik_Ionization_Penalty_Charging>  (112) 
0

>  <r_epik_Ionization_Penalty_Neutral>  (112) 
2.26617e-07

>  <r_epik_State_Penalty>  (112) 
-0

>  <r_epik_Charging_Adjusted_Penalty>  (112) 
0

>  <i_epik_Tot_Q>  (112) 
0

>  <i_epik_Tot_abs_Q>  (112) 
0

>  <s_epik_Chemistry_Notes>  (112) 
This compound has an ester and may undergo hydrolysis at high or low pH.

>  <s_lp_Force_Field>  (112) 
OPLS3e

>  <r_lp_Energy>  (112) 
74.2251

>  <b_lp_Chiralities_Consistent>  (112) 
1

>  <s_lp_Variant>  (112) 
38:0-1

>  <s_i_glide_gridfile>  (112) 
pfpi4k_grid

>  <i_i_glide_lignum>  (112) 
12

>  <i_i_glide_rotatable_bonds>  (112) 
2

>  <r_i_docking_score>  (112) 
-3.59574

>  <r_i_glide_ligand_efficiency>  (112) 
-0.119858

>  <r_i_glide_ligand_efficiency_sa>  (112) 
-0.372427

>  <r_i_glide_ligand_efficiency_ln>  (112) 
-0.816991

>  <r_i_glide_gscore>  (112) 
-3.59574

>  <r_i_glide_lipo>  (112) 
-0.667138

>  <r_i_glide_hbond>  (112) 
-0.306302

>  <r_i_glide_metal>  (112) 
-0

>  <r_i_glide_rewards>  (112) 
-0.62366

>  <r_i_glide_evdw>  (112) 
-28.691

>  <r_i_glide_ecoul>  (112) 
-3.7606

>  <r_i_glide_erotb>  (112) 
0

>  <r_i_glide_esite>  (112) 
0

>  <r_i_glide_emodel>  (112) 
-40.1098

>  <r_i_glide_energy>  (112) 
-32.4516

>  <r_i_glide_einternal>  (112) 
1.2781

>  <r_i_glide_intrahb_reward>  (112) 
-0

>  <i_i_glide_confnum>  (112) 
1

>  <i_i_glide_posenum>  (112) 
10

>  <r_i_glide_eff_state_penalty>  (112) 
0

>  <ligand_id>  (112) 
38

>  <original_smiles>  (112) 
CC1=CC2CC(O)C3C4(C)C5=CC6CC(=O)OC(C4=CCC3(C=C5)C2(O)C1)C6(C)C

>  <smiles>  (112) 
[H]OC1([H])C([H])([H])C2([H])C([H])=C(C([H])([H])[H])C([H])([H])C2(O[H])C23C([H])=C([H])C4=C([H])C5([H])C([H])([H])C(=O)OC([H])(C(=C([H])C2([H])[H])C4(C([H])([H])[H])C13[H])C5(C([H])([H])[H])C([H])([H])[H]

$$$$
38:0:1
     RDKit          3D

 62 67  0  0  1  0  0  0  0  0999 V2000
    3.8599   -2.6365   -3.8886 C   0  0  0  0  0  0  0  0  0  0  0  0
    4.4484   -2.2803   -2.5443 C   0  0  0  0  0  0  0  0  0  0  0  0
    3.9314   -1.4656   -1.6194 C   0  0  0  0  0  0  0  0  0  0  0  0
    4.8878   -1.2887   -0.4687 C   0  0  1  0  0  0  0  0  0  0  0  0
    4.3267   -0.9980    0.9328 C   0  0  0  0  0  0  0  0  0  0  0  0
    3.8629   -2.2309    1.7115 C   0  0  1  0  0  0  0  0  0  0  0  0
    2.6065   -2.6376    1.2075 O   0  0  0  0  0  0  0  0  0  0  0  0
    4.9758   -3.3351    1.7280 C   0  0  1  0  0  0  0  0  0  0  0  0
    4.7185   -4.5940    2.6472 C   0  0  2  0  0  0  0  0  0  0  0  0
    4.4425   -3.9867    4.0507 C   0  0  0  0  0  0  0  0  0  0  0  0
    5.9516   -5.5134    2.6744 C   0  0  0  0  0  0  0  0  0  0  0  0
    6.0515   -6.6622    3.3953 C   0  0  0  0  0  0  0  0  0  0  0  0
    4.9365   -7.5323    4.0065 C   0  0  1  0  0  0  0  0  0  0  0  0
    4.3394   -7.0732    5.3520 C   0  0  0  0  0  0  0  0  0  0  0  0
    2.9614   -6.3876    5.2977 C   0  0  0  0  0  0  0  0  0  0  0  0
    2.4210   -6.0274    6.3388 O   0  0  0  0  0  0  0  0  0  0  0  0
    2.3934   -6.1928    4.0673 O   0  0  0  0  0  0  0  0  0  0  0  0
    2.9644   -6.6261    2.8273 C   0  0  1  0  0  0  0  0  0  0  0  0
    3.6497   -5.5072    2.0205 C   0  0  0  0  0  0  0  0  0  0  0  0
    3.4723   -5.4779    0.6813 C   0  0  0  0  0  0  0  0  0  0  0  0
    4.2714   -4.6252   -0.3002 C   0  0  0  0  0  0  0  0  0  0  0  0
    5.4323   -3.7680    0.3156 C   0  0  2  0  0  0  0  0  0  0  0  0
    6.6751   -4.6521    0.5084 C   0  0  0  0  0  0  0  0  0  0  0  0
    6.9398   -5.3677    1.6200 C   0  0  0  0  0  0  0  0  0  0  0  0
    5.8322   -2.5152   -0.5865 C   0  0  2  0  0  0  0  0  0  0  0  0
    7.1278   -2.0471   -0.2482 O   0  0  0  0  0  0  0  0  0  0  0  0
    5.7878   -2.8311   -2.1092 C   0  0  0  0  0  0  0  0  0  0  0  0
    3.8385   -7.9010    2.9777 C   0  0  0  0  0  0  0  0  0  0  0  0
    4.4413   -8.3808    1.6251 C   0  0  0  0  0  0  0  0  0  0  0  0
    2.9832   -9.0958    3.4773 C   0  0  0  0  0  0  0  0  0  0  0  0
    4.5380   -2.3193   -4.6779 H   0  0  0  0  0  0  0  0  0  0  0  0
    2.8965   -2.1513   -4.0508 H   0  0  0  0  0  0  0  0  0  0  0  0
    3.7251   -3.7159   -3.9636 H   0  0  0  0  0  0  0  0  0  0  0  0
    2.9921   -0.9410   -1.6994 H   0  0  0  0  0  0  0  0  0  0  0  0
    5.4333   -0.3879   -0.7540 H   0  0  0  0  0  0  0  0  0  0  0  0
    5.1421   -0.5506    1.5031 H   0  0  0  0  0  0  0  0  0  0  0  0
    3.5508   -0.2309    0.9006 H   0  0  0  0  0  0  0  0  0  0  0  0
    3.6736   -1.8857    2.7270 H   0  0  0  0  0  0  0  0  0  0  0  0
    2.2142   -1.9097    0.7367 H   0  0  0  0  0  0  0  0  0  0  0  0
    5.8412   -2.8292    2.1603 H   0  0  0  0  0  0  0  0  0  0  0  0
    4.8013   -4.5941    4.8699 H   0  0  0  0  0  0  0  0  0  0  0  0
    3.3883   -3.7562    4.2019 H   0  0  0  0  0  0  0  0  0  0  0  0
    4.9855   -3.0541    4.2046 H   0  0  0  0  0  0  0  0  0  0  0  0
    6.9547   -7.2448    3.2636 H   0  0  0  0  0  0  0  0  0  0  0  0
    5.4623   -8.4609    4.2411 H   0  0  0  0  0  0  0  0  0  0  0  0
    4.2044   -7.9485    5.9844 H   0  0  0  0  0  0  0  0  0  0  0  0
    5.0417   -6.4384    5.8868 H   0  0  0  0  0  0  0  0  0  0  0  0
    2.1120   -6.9245    2.2177 H   0  0  0  0  0  0  0  0  0  0  0  0
    2.7724   -6.1586    0.2221 H   0  0  0  0  0  0  0  0  0  0  0  0
    4.6648   -5.2977   -1.0634 H   0  0  0  0  0  0  0  0  0  0  0  0
    3.5283   -4.0035   -0.7948 H   0  0  0  0  0  0  0  0  0  0  0  0
    7.3954   -4.6472   -0.2930 H   0  0  0  0  0  0  0  0  0  0  0  0
    7.8584   -5.9359    1.6630 H   0  0  0  0  0  0  0  0  0  0  0  0
    7.7204   -2.7840   -0.2512 H   0  0  0  0  0  0  0  0  0  0  0  0
    5.8982   -3.8876   -2.3491 H   0  0  0  0  0  0  0  0  0  0  0  0
    6.5655   -2.2935   -2.6475 H   0  0  0  0  0  0  0  0  0  0  0  0
    3.6524   -8.6076    0.9057 H   0  0  0  0  0  0  0  0  0  0  0  0
    5.0404   -9.2850    1.7496 H   0  0  0  0  0  0  0  0  0  0  0  0
    5.0885   -7.6462    1.1467 H   0  0  0  0  0  0  0  0  0  0  0  0
    2.1968   -9.3402    2.7606 H   0  0  0  0  0  0  0  0  0  0  0  0
    2.4883   -8.9100    4.4306 H   0  0  0  0  0  0  0  0  0  0  0  0
    3.5911   -9.9932    3.6124 H   0  0  0  0  0  0  0  0  0  0  0  0
  1  2  1  0
  1 31  1  0
  1 32  1  0
  1 33  1  0
  2 27  1  0
  2  3  2  0
  3  4  1  0
  3 34  1  0
  4 25  1  0
  4  5  1  0
  4 35  1  6
  5  6  1  0
  5 36  1  0
  5 37  1  0
  6  7  1  0
  6  8  1  0
  6 38  1  1
  7 39  1  0
  8 22  1  0
  8  9  1  0
  8 40  1  1
  9 19  1  0
  9 10  1  1
  9 11  1  0
 10 41  1  0
 10 42  1  0
 10 43  1  0
 11 24  1  0
 11 12  2  0
 12 13  1  0
 12 44  1  0
 13 28  1  0
 13 14  1  0
 13 45  1  1
 14 15  1  0
 14 46  1  0
 14 47  1  0
 15 16  2  0
 15 17  1  0
 17 18  1  0
 18 19  1  0
 18 28  1  0
 18 48  1  6
 19 20  2  0
 20 21  1  0
 20 49  1  0
 22 21  1  6
 21 50  1  0
 21 51  1  0
 22 23  1  0
 22 25  1  0
 23 24  2  0
 23 52  1  0
 24 53  1  0
 25 26  1  1
 25 27  1  0
 26 54  1  0
 27 55  1  0
 27 56  1  0
 28 29  1  0
 28 30  1  0
 29 57  1  0
 29 58  1  0
 29 59  1  0
 30 60  1  0
 30 61  1  0
 30 62  1  0
M  END
>  <i_m_ct_stereo_status>  (113) 
1

>  <s_m_source_file>  (113) 
/var/tmp/pbs.5076255.sched01/tmpwzsktf0x/40k9schvjs.sdf

>  <i_m_source_file_index>  (113) 
12

>  <i_lp_mmshare_version>  (113) 
48012

>  <i_f3d_flags>  (113) 
0

>  <s_epik_input>  (113) 
W0NIM11DKD1bQ0hdMSlbQ0gyXVtDQEBdMihbT0hdKVtDQEBIXTFbQ0gyXVtDQEBIXShbT0hdKVtDQEhdKFtDQF0yMzQpW0NAXTUoW0NIM10pQyhbQ0hdPVtDSF00KT1bQ0hdW0NASF02W0NIMl1DKD1PKU9bQ0BIXShDNihbQ0gzXSlbQ0gzXSlDNT1bQ0hdW0NIMl0z

>  <s_epik_cmdline>  (113) 
J2VwaWtfcHl0aG9uJywgJy1waHQnLCAnMi4wJywgJy1waCcsICc3LjAnLCAnLXRuJywgJzgnLCAnLW1hJywgJzIwMCcsICctaW1hZScsICc8aW5maWxlLm1hZT4nLCAnLW9tYWUnLCAnPG91dGZpbGUubWFlPic=

>  <r_lp_tautomer_probability>  (113) 
1

>  <r_epik_Ionization_Penalty>  (113) 
2.26617e-07

>  <r_epik_Ionization_Penalty_Charging>  (113) 
0

>  <r_epik_Ionization_Penalty_Neutral>  (113) 
2.26617e-07

>  <r_epik_State_Penalty>  (113) 
-0

>  <r_epik_Charging_Adjusted_Penalty>  (113) 
0

>  <i_epik_Tot_Q>  (113) 
0

>  <i_epik_Tot_abs_Q>  (113) 
0

>  <s_epik_Chemistry_Notes>  (113) 
This compound has an ester and may undergo hydrolysis at high or low pH.

>  <s_lp_Force_Field>  (113) 
OPLS3e

>  <r_lp_Energy>  (113) 
74.2251

>  <b_lp_Chiralities_Consistent>  (113) 
1

>  <s_lp_Variant>  (113) 
38:0-1

>  <s_i_glide_gridfile>  (113) 
pfpi4k_grid

>  <i_i_glide_lignum>  (113) 
12

>  <i_i_glide_rotatable_bonds>  (113) 
2

>  <r_i_docking_score>  (113) 
-3.30559

>  <r_i_glide_ligand_efficiency>  (113) 
-0.110186

>  <r_i_glide_ligand_efficiency_sa>  (113) 
-0.342374

>  <r_i_glide_ligand_efficiency_ln>  (113) 
-0.751065

>  <r_i_glide_gscore>  (113) 
-3.30559

>  <r_i_glide_lipo>  (113) 
-0.621

>  <r_i_glide_hbond>  (113) 
-0.166912

>  <r_i_glide_metal>  (113) 
-0

>  <r_i_glide_rewards>  (113) 
-0.62366

>  <r_i_glide_evdw>  (113) 
-30.6415

>  <r_i_glide_ecoul>  (113) 
-2.41292

>  <r_i_glide_erotb>  (113) 
0

>  <r_i_glide_esite>  (113) 
0

>  <r_i_glide_emodel>  (113) 
-40.0561

>  <r_i_glide_energy>  (113) 
-33.0544

>  <r_i_glide_einternal>  (113) 
1.25249

>  <r_i_glide_intrahb_reward>  (113) 
-0

>  <i_i_glide_confnum>  (113) 
2

>  <i_i_glide_posenum>  (113) 
1

>  <r_i_glide_eff_state_penalty>  (113) 
0

>  <ligand_id>  (113) 
38

>  <original_smiles>  (113) 
CC1=CC2CC(O)C3C4(C)C5=CC6CC(=O)OC(C4=CCC3(C=C5)C2(O)C1)C6(C)C

>  <smiles>  (113) 
[H]OC1([H])C([H])([H])C2([H])C([H])=C(C([H])([H])[H])C([H])([H])C2(O[H])C23C([H])=C([H])C4=C([H])C5([H])C([H])([H])C(=O)OC([H])(C(=C([H])C2([H])[H])C4(C([H])([H])[H])C13[H])C5(C([H])([H])[H])C([H])([H])[H]

$$$$
38:0:2
     RDKit          3D

 62 67  0  0  1  0  0  0  0  0999 V2000
    3.8567   -2.6174   -3.9069 C   0  0  0  0  0  0  0  0  0  0  0  0
    4.3641   -2.2246   -2.5392 C   0  0  0  0  0  0  0  0  0  0  0  0
    3.8134   -1.3518   -1.6922 C   0  0  0  0  0  0  0  0  0  0  0  0
    4.6846   -1.1576   -0.4791 C   0  0  1  0  0  0  0  0  0  0  0  0
    4.0325   -0.7840    0.8638 C   0  0  0  0  0  0  0  0  0  0  0  0
    3.4598   -1.9598    1.6583 C   0  0  1  0  0  0  0  0  0  0  0  0
    2.2155   -2.3364    1.1031 O   0  0  0  0  0  0  0  0  0  0  0  0
    4.5204   -3.1077    1.8004 C   0  0  1  0  0  0  0  0  0  0  0  0
    4.1444   -4.3148    2.7465 C   0  0  2  0  0  0  0  0  0  0  0  0
    3.7912   -3.6363    4.0990 C   0  0  0  0  0  0  0  0  0  0  0  0
    5.3318   -5.2795    2.9030 C   0  0  0  0  0  0  0  0  0  0  0  0
    5.3308   -6.3979    3.6765 C   0  0  0  0  0  0  0  0  0  0  0  0
    4.1381   -7.1960    4.2380 C   0  0  1  0  0  0  0  0  0  0  0  0
    3.4616   -6.6541    5.5134 C   0  0  0  0  0  0  0  0  0  0  0  0
    2.1202   -5.9178    5.3257 C   0  0  0  0  0  0  0  0  0  0  0  0
    1.5208   -5.4912    6.3073 O   0  0  0  0  0  0  0  0  0  0  0  0
    1.6542   -5.7596    4.0485 O   0  0  0  0  0  0  0  0  0  0  0  0
    2.2986   -6.2674    2.8762 C   0  0  1  0  0  0  0  0  0  0  0  0
    3.0873   -5.2121    2.0781 C   0  0  0  0  0  0  0  0  0  0  0  0
    3.0105   -5.2321    0.7306 C   0  0  0  0  0  0  0  0  0  0  0  0
    3.9150   -4.4519   -0.2198 C   0  0  0  0  0  0  0  0  0  0  0  0
    5.0636   -3.6186    0.4453 C   0  0  2  0  0  0  0  0  0  0  0  0
    6.2489   -4.5439    0.7643 C   0  0  0  0  0  0  0  0  0  0  0  0
    6.4006   -5.2200    1.9209 C   0  0  0  0  0  0  0  0  0  0  0  0
    5.5856   -2.4228   -0.4724 C   0  0  2  0  0  0  0  0  0  0  0  0
    6.8653   -1.9853   -0.0433 O   0  0  0  0  0  0  0  0  0  0  0  0
    5.6459   -2.8039   -1.9824 C   0  0  0  0  0  0  0  0  0  0  0  0
    3.1048   -7.5666    3.1453 C   0  0  0  0  0  0  0  0  0  0  0  0
    3.7856   -8.1291    1.8633 C   0  0  0  0  0  0  0  0  0  0  0  0
    2.1656   -8.7045    3.6267 C   0  0  0  0  0  0  0  0  0  0  0  0
    4.6054   -2.3627   -4.6527 H   0  0  0  0  0  0  0  0  0  0  0  0
    2.9283   -2.1006   -4.1585 H   0  0  0  0  0  0  0  0  0  0  0  0
    3.6800   -3.6936   -3.9456 H   0  0  0  0  0  0  0  0  0  0  0  0
    2.9062   -0.7977   -1.8679 H   0  0  0  0  0  0  0  0  0  0  0  0
    5.2851   -0.2906   -0.7613 H   0  0  0  0  0  0  0  0  0  0  0  0
    4.8197   -0.3403    1.4753 H   0  0  0  0  0  0  0  0  0  0  0  0
    3.2932    0.0090    0.7416 H   0  0  0  0  0  0  0  0  0  0  0  0
    3.2197   -1.5609    2.6422 H   0  0  0  0  0  0  0  0  0  0  0  0
    1.8652   -1.6185    0.5766 H   0  0  0  0  0  0  0  0  0  0  0  0
    5.3727   -2.6213    2.2781 H   0  0  0  0  0  0  0  0  0  0  0  0
    4.0635   -4.2203    4.9671 H   0  0  0  0  0  0  0  0  0  0  0  0
    2.7393   -3.3581    4.1609 H   0  0  0  0  0  0  0  0  0  0  0  0
    4.3604   -2.7194    4.2558 H   0  0  0  0  0  0  0  0  0  0  0  0
    6.2156   -7.0205    3.6371 H   0  0  0  0  0  0  0  0  0  0  0  0
    4.6057   -8.1335    4.5487 H   0  0  0  0  0  0  0  0  0  0  0  0
    3.2455   -7.4956    6.1694 H   0  0  0  0  0  0  0  0  0  0  0  0
    4.1508   -6.0259    6.0732 H   0  0  0  0  0  0  0  0  0  0  0  0
    1.4822   -6.5599    2.2164 H   0  0  0  0  0  0  0  0  0  0  0  0
    2.3217   -5.9074    0.2458 H   0  0  0  0  0  0  0  0  0  0  0  0
    4.3422   -5.1710   -0.9190 H   0  0  0  0  0  0  0  0  0  0  0  0
    3.2381   -3.8255   -0.7968 H   0  0  0  0  0  0  0  0  0  0  0  0
    7.0291   -4.6009    0.0213 H   0  0  0  0  0  0  0  0  0  0  0  0
    7.2896   -5.8188    2.0560 H   0  0  0  0  0  0  0  0  0  0  0  0
    6.8090   -1.7761    0.8786 H   0  0  0  0  0  0  0  0  0  0  0  0
    5.7282   -3.8736   -2.1681 H   0  0  0  0  0  0  0  0  0  0  0  0
    6.4825   -2.3178   -2.4808 H   0  0  0  0  0  0  0  0  0  0  0  0
    3.0429   -8.3582    1.0972 H   0  0  0  0  0  0  0  0  0  0  0  0
    4.3371   -9.0485    2.0690 H   0  0  0  0  0  0  0  0  0  0  0  0
    4.4957   -7.4414    1.4043 H   0  0  0  0  0  0  0  0  0  0  0  0
    1.4246   -8.9500    2.8636 H   0  0  0  0  0  0  0  0  0  0  0  0
    1.6102   -8.4578    4.5317 H   0  0  0  0  0  0  0  0  0  0  0  0
    2.7236   -9.6178    3.8450 H   0  0  0  0  0  0  0  0  0  0  0  0
  1  2  1  0
  1 31  1  0
  1 32  1  0
  1 33  1  0
  2 27  1  0
  2  3  2  0
  3  4  1  0
  3 34  1  0
  4 25  1  0
  4  5  1  0
  4 35  1  6
  5  6  1  0
  5 36  1  0
  5 37  1  0
  6  7  1  0
  6  8  1  0
  6 38  1  1
  7 39  1  0
  8 22  1  0
  8  9  1  0
  8 40  1  1
  9 19  1  0
  9 10  1  1
  9 11  1  0
 10 41  1  0
 10 42  1  0
 10 43  1  0
 11 24  1  0
 11 12  2  0
 12 13  1  0
 12 44  1  0
 13 28  1  0
 13 14  1  0
 13 45  1  1
 14 15  1  0
 14 46  1  0
 14 47  1  0
 15 16  2  0
 15 17  1  0
 17 18  1  0
 18 19  1  0
 18 28  1  0
 18 48  1  6
 19 20  2  0
 20 21  1  0
 20 49  1  0
 22 21  1  6
 21 50  1  0
 21 51  1  0
 22 23  1  0
 22 25  1  0
 23 24  2  0
 23 52  1  0
 24 53  1  0
 25 26  1  1
 25 27  1  0
 26 54  1  0
 27 55  1  0
 27 56  1  0
 28 29  1  0
 28 30  1  0
 29 57  1  0
 29 58  1  0
 29 59  1  0
 30 60  1  0
 30 61  1  0
 30 62  1  0
M  END
>  <i_m_ct_stereo_status>  (114) 
1

>  <s_m_source_file>  (114) 
/var/tmp/pbs.5076255.sched01/tmpwzsktf0x/40k9schvjs.sdf

>  <i_m_source_file_index>  (114) 
12

>  <i_lp_mmshare_version>  (114) 
48012

>  <i_f3d_flags>  (114) 
0

>  <s_epik_input>  (114) 
W0NIM11DKD1bQ0hdMSlbQ0gyXVtDQEBdMihbT0hdKVtDQEBIXTFbQ0gyXVtDQEBIXShbT0hdKVtDQEhdKFtDQF0yMzQpW0NAXTUoW0NIM10pQyhbQ0hdPVtDSF00KT1bQ0hdW0NASF02W0NIMl1DKD1PKU9bQ0BIXShDNihbQ0gzXSlbQ0gzXSlDNT1bQ0hdW0NIMl0z

>  <s_epik_cmdline>  (114) 
J2VwaWtfcHl0aG9uJywgJy1waHQnLCAnMi4wJywgJy1waCcsICc3LjAnLCAnLXRuJywgJzgnLCAnLW1hJywgJzIwMCcsICctaW1hZScsICc8aW5maWxlLm1hZT4nLCAnLW9tYWUnLCAnPG91dGZpbGUubWFlPic=

>  <r_lp_tautomer_probability>  (114) 
1

>  <r_epik_Ionization_Penalty>  (114) 
2.26617e-07

>  <r_epik_Ionization_Penalty_Charging>  (114) 
0

>  <r_epik_Ionization_Penalty_Neutral>  (114) 
2.26617e-07

>  <r_epik_State_Penalty>  (114) 
-0

>  <r_epik_Charging_Adjusted_Penalty>  (114) 
0

>  <i_epik_Tot_Q>  (114) 
0

>  <i_epik_Tot_abs_Q>  (114) 
0

>  <s_epik_Chemistry_Notes>  (114) 
This compound has an ester and may undergo hydrolysis at high or low pH.

>  <s_lp_Force_Field>  (114) 
OPLS3e

>  <r_lp_Energy>  (114) 
74.2251

>  <b_lp_Chiralities_Consistent>  (114) 
1

>  <s_lp_Variant>  (114) 
38:0-1

>  <s_i_glide_gridfile>  (114) 
pfpi4k_grid

>  <i_i_glide_lignum>  (114) 
12

>  <i_i_glide_rotatable_bonds>  (114) 
2

>  <r_i_docking_score>  (114) 
-3.23557

>  <r_i_glide_ligand_efficiency>  (114) 
-0.107852

>  <r_i_glide_ligand_efficiency_sa>  (114) 
-0.335122

>  <r_i_glide_ligand_efficiency_ln>  (114) 
-0.735156

>  <r_i_glide_gscore>  (114) 
-3.23557

>  <r_i_glide_lipo>  (114) 
-0.447869

>  <r_i_glide_hbond>  (114) 
-0.201815

>  <r_i_glide_metal>  (114) 
-0

>  <r_i_glide_rewards>  (114) 
-0.62366

>  <r_i_glide_evdw>  (114) 
-29.1244

>  <r_i_glide_ecoul>  (114) 
-3.37335

>  <r_i_glide_erotb>  (114) 
0

>  <r_i_glide_esite>  (114) 
0

>  <r_i_glide_emodel>  (114) 
-39.3847

>  <r_i_glide_energy>  (114) 
-32.4977

>  <r_i_glide_einternal>  (114) 
1.14022

>  <r_i_glide_intrahb_reward>  (114) 
-0

>  <i_i_glide_confnum>  (114) 
2

>  <i_i_glide_posenum>  (114) 
9

>  <r_i_glide_eff_state_penalty>  (114) 
0

>  <ligand_id>  (114) 
38

>  <original_smiles>  (114) 
CC1=CC2CC(O)C3C4(C)C5=CC6CC(=O)OC(C4=CCC3(C=C5)C2(O)C1)C6(C)C

>  <smiles>  (114) 
[H]OC1([H])C([H])([H])C2([H])C([H])=C(C([H])([H])[H])C([H])([H])C2(O[H])C23C([H])=C([H])C4=C([H])C5([H])C([H])([H])C(=O)OC([H])(C(=C([H])C2([H])[H])C4(C([H])([H])[H])C13[H])C5(C([H])([H])[H])C([H])([H])[H]

$$$$
39:1:0
     RDKit          3D

 87 93  0  0  1  0  0  0  0  0999 V2000
    0.5940  -10.9022    3.0561 C   0  0  0  0  0  0  0  0  0  0  0  0
    1.6679  -10.0869    3.2001 C   0  0  0  0  0  0  0  0  0  0  0  0
    2.6437   -9.8168    2.0594 C   0  0  0  0  0  0  0  0  0  0  0  0
    2.0085   -9.3742    4.5043 C   0  0  2  0  0  0  0  0  0  0  0  0
    1.7192  -10.1438    5.8219 C   0  0  0  0  0  0  0  0  0  0  0  0
    1.5549   -9.0525    6.8329 C   0  0  0  0  0  0  0  0  0  0  0  0
    1.3426   -7.8557    6.2456 C   0  0  0  0  0  0  0  0  0  0  0  0
    1.3308   -7.9909    4.7111 C   0  0  1  0  0  0  0  0  0  0  0  0
    1.9211   -6.7676    3.8957 C   0  0  1  0  0  0  0  0  0  0  0  0
    0.9563   -6.2076    2.9894 O   0  0  0  0  0  0  0  0  0  0  0  0
    0.5684   -6.9799    1.8640 C   0  0  0  0  0  0  0  0  0  0  0  0
    2.3157   -5.6508    4.8799 C   0  0  1  0  0  0  0  0  0  0  0  0
    3.5734   -6.1297    5.3349 O   0  0  0  0  0  0  0  0  0  0  0  0
    2.3644   -4.1415    4.6257 C   0  0  2  0  0  0  0  0  0  0  0  0
    3.6739   -3.4281    4.2164 C   0  0  2  0  0  0  0  0  0  0  0  0
    3.6005   -2.0477    4.5743 O   0  0  0  0  0  0  0  0  0  0  0  0
    2.8890   -1.0987    3.7865 C   0  0  2  0  0  0  0  0  0  0  0  0
    3.5703    0.2383    4.1188 C   0  0  0  0  0  0  0  0  0  0  0  0
    2.7963    1.5122    3.7053 C   0  0  0  0  0  0  0  0  0  0  0  0
    1.3419    1.4639    4.2123 C   0  0  0  0  0  0  0  0  0  0  0  0
    0.5832    0.1971    3.7483 C   0  0  1  0  0  0  0  0  0  0  0  0
   -0.8615    0.2150    4.3509 C   0  0  0  0  0  0  0  0  0  0  0  0
    0.4609    0.1839    2.1977 C   0  0  0  0  0  0  0  0  0  0  0  0
   -0.4845    1.1115    1.7176 O   0  0  0  0  0  0  0  0  0  0  0  0
    1.3744   -1.0979    4.2104 C   0  0  2  0  0  0  0  0  0  0  0  0
    1.2959   -1.3423    5.7695 C   0  0  0  0  0  0  0  0  0  0  0  0
    0.8048   -2.7455    6.2131 C   0  0  0  0  0  0  0  0  0  0  0  0
    1.7995   -3.9328    6.0725 C   0  0  2  0  0  0  0  0  0  0  0  0
    2.8168   -3.7435    7.2144 C   0  0  0  0  0  0  0  0  0  0  0  0
    1.1948   -5.3811    5.9307 C   0  0  1  0  0  0  0  0  0  0  0  0
   -0.2785   -5.3697    5.4449 C   0  0  0  0  0  0  0  0  0  0  0  0
    1.2602   -6.5116    6.9720 C   0  0  1  0  0  0  0  0  0  0  0  0
    0.2315   -6.4861    7.9431 O   0  0  0  0  0  0  0  0  0  0  0  0
    3.3163   -1.3924    2.3731 C   0  0  0  0  0  0  0  0  0  0  0  0
    2.9042   -1.8100    1.2416 C   0  0  0  0  0  0  0  0  0  0  0  0
    4.2136   -2.4223    1.8799 C   0  0  1  0  0  0  0  0  0  0  0  0
    5.5812   -1.8014    1.6522 C   0  0  0  0  0  0  0  0  0  0  0  0
    4.1358   -3.6921    2.7450 C   0  0  1  0  0  0  0  0  0  0  0  0
    5.3667   -4.3925    2.7199 O   0  0  0  0  0  0  0  0  0  0  0  0
    0.3864  -11.3824    2.1115 H   0  0  0  0  0  0  0  0  0  0  0  0
   -0.0967  -11.1090    3.8617 H   0  0  0  0  0  0  0  0  0  0  0  0
    2.7826   -8.7481    1.8738 H   0  0  0  0  0  0  0  0  0  0  0  0
    2.2833  -10.2531    1.1289 H   0  0  0  0  0  0  0  0  0  0  0  0
    3.6256  -10.2427    2.2890 H   0  0  0  0  0  0  0  0  0  0  0  0
    3.0891   -9.2211    4.4859 H   0  0  0  0  0  0  0  0  0  0  0  0
    0.7781  -10.6962    5.8354 H   0  0  0  0  0  0  0  0  0  0  0  0
    2.5274  -10.8332    6.0864 H   0  0  0  0  0  0  0  0  0  0  0  0
    1.6191   -9.2357    7.8879 H   0  0  0  0  0  0  0  0  0  0  0  0
    0.2745   -8.1040    4.4747 H   0  0  0  0  0  0  0  0  0  0  0  0
    2.8008   -7.0850    3.3313 H   0  0  0  0  0  0  0  0  0  0  0  0
   -0.1754   -6.4246    1.2851 H   0  0  0  0  0  0  0  0  0  0  0  0
    0.1068   -7.9210    2.1612 H   0  0  0  0  0  0  0  0  0  0  0  0
    1.4204   -7.1646    1.2115 H   0  0  0  0  0  0  0  0  0  0  0  0
    3.4289   -7.0400    5.5152 H   0  0  0  0  0  0  0  0  0  0  0  0
    1.5815   -3.9290    3.9020 H   0  0  0  0  0  0  0  0  0  0  0  0
    4.4973   -3.7639    4.8517 H   0  0  0  0  0  0  0  0  0  0  0  0
    3.7902    0.2707    5.1831 H   0  0  0  0  0  0  0  0  0  0  0  0
    4.5452    0.2717    3.6194 H   0  0  0  0  0  0  0  0  0  0  0  0
    3.3092    2.3786    4.1341 H   0  0  0  0  0  0  0  0  0  0  0  0
    2.8400    1.6706    2.6255 H   0  0  0  0  0  0  0  0  0  0  0  0
    1.3890    1.4851    5.3009 H   0  0  0  0  0  0  0  0  0  0  0  0
    0.8133    2.3668    3.9138 H   0  0  0  0  0  0  0  0  0  0  0  0
   -1.3444   -0.7520    4.2365 H   0  0  0  0  0  0  0  0  0  0  0  0
   -1.5044    0.9601    3.8933 H   0  0  0  0  0  0  0  0  0  0  0  0
   -0.8703    0.4926    5.4013 H   0  0  0  0  0  0  0  0  0  0  0  0
    1.4031    0.4022    1.6985 H   0  0  0  0  0  0  0  0  0  0  0  0
    0.2152   -0.8121    1.8476 H   0  0  0  0  0  0  0  0  0  0  0  0
   -0.5885    0.9678    0.7773 H   0  0  0  0  0  0  0  0  0  0  0  0
    0.8485   -1.9341    3.7363 H   0  0  0  0  0  0  0  0  0  0  0  0
    2.2311   -1.0928    6.2698 H   0  0  0  0  0  0  0  0  0  0  0  0
    0.6233   -0.6398    6.2537 H   0  0  0  0  0  0  0  0  0  0  0  0
    0.4590   -2.6975    7.2428 H   0  0  0  0  0  0  0  0  0  0  0  0
   -0.0944   -2.9024    5.6335 H   0  0  0  0  0  0  0  0  0  0  0  0
    2.3156   -3.7493    8.1842 H   0  0  0  0  0  0  0  0  0  0  0  0
    3.3582   -2.8016    7.1226 H   0  0  0  0  0  0  0  0  0  0  0  0
    3.5659   -4.5294    7.2295 H   0  0  0  0  0  0  0  0  0  0  0  0
   -0.9477   -4.9337    6.1912 H   0  0  0  0  0  0  0  0  0  0  0  0
   -0.6756   -6.3597    5.2371 H   0  0  0  0  0  0  0  0  0  0  0  0
   -0.3746   -4.7982    4.5256 H   0  0  0  0  0  0  0  0  0  0  0  0
    2.1879   -6.4346    7.5262 H   0  0  0  0  0  0  0  0  0  0  0  0
    0.5805   -6.8962    8.7208 H   0  0  0  0  0  0  0  0  0  0  0  0
    2.1526   -1.9548    0.4815 H   0  0  0  0  0  0  0  0  0  0  0  0
    5.4132   -0.8497    1.1547 H   0  0  0  0  0  0  0  0  0  0  0  0
    6.2252   -2.4381    1.0450 H   0  0  0  0  0  0  0  0  0  0  0  0
    6.0180   -1.6028    2.6349 H   0  0  0  0  0  0  0  0  0  0  0  0
    3.4177   -4.3640    2.2672 H   0  0  0  0  0  0  0  0  0  0  0  0
    5.2661   -5.2253    3.1546 H   0  0  0  0  0  0  0  0  0  0  0  0
  1  2  2  0
  1 40  1  0
  1 41  1  0
  2  3  1  0
  2  4  1  0
  3 42  1  0
  3 43  1  0
  3 44  1  0
  4  8  1  0
  4  5  1  0
  4 45  1  6
  5  6  1  0
  5 46  1  0
  5 47  1  0
  6  7  2  0
  6 48  1  0
  7 32  1  0
  7  8  1  0
  8  9  1  0
  8 49  1  6
  9 10  1  0
  9 12  1  0
  9 50  1  6
 10 11  1  0
 11 51  1  0
 11 52  1  0
 11 53  1  0
 12 30  1  0
 12 13  1  1
 12 14  1  0
 13 54  1  0
 14 28  1  0
 14 15  1  0
 14 55  1  6
 15 38  1  0
 15 16  1  0
 15 56  1  1
 16 17  1  0
 17 25  1  0
 17 18  1  1
 17 34  1  0
 18 19  1  0
 18 57  1  0
 18 58  1  0
 19 20  1  0
 19 59  1  0
 19 60  1  0
 20 21  1  0
 20 61  1  0
 20 62  1  0
 21 22  1  1
 21 23  1  0
 21 25  1  0
 22 63  1  0
 22 64  1  0
 22 65  1  0
 23 24  1  0
 23 66  1  0
 23 67  1  0
 24 68  1  0
 25 26  1  0
 25 69  1  6
 26 27  1  0
 26 70  1  0
 26 71  1  0
 27 28  1  0
 27 72  1  0
 27 73  1  0
 28 29  1  1
 28 30  1  0
 29 74  1  0
 29 75  1  0
 29 76  1  0
 30 31  1  6
 30 32  1  0
 31 77  1  0
 31 78  1  0
 31 79  1  0
 32 33  1  0
 32 80  1  1
 33 81  1  0
 34 36  1  0
 34 35  2  0
 35 36  1  0
 35 82  1  0
 36 37  1  6
 36 38  1  0
 37 83  1  0
 37 84  1  0
 37 85  1  0
 38 39  1  0
 38 86  1  6
 39 87  1  0
M  END
>  <i_m_ct_stereo_status>  (115) 
1

>  <s_m_source_file>  (115) 
/var/tmp/pbs.5076255.sched01/tmpwzsktf0x/40k9schvjs.sdf

>  <i_m_source_file_index>  (115) 
14

>  <i_lp_mmshare_version>  (115) 
48012

>  <i_f3d_flags>  (115) 
0

>  <s_epik_input>  (115) 
W0NIMl09QyhbQ0gzXSlbQ0BIXShbQ0gyXVtDSF09MSlbQ0BIXShbQ0BIXTJPW0NIM10pQzFbQ0BIXShbT0hdKVtDQF0zKFtDSDNdKVtDQF0yKFtPSF0pW0NASF0oW0NASF0oTzQpW0NASF0oW09IXSlDNShbQ0gzXSlDNj1bQ0hdNSlbQ0BAXTMoW0NIM10pW0NIMl1bQ0gyXVtDQEhdKFtDQEBdNDY3KVtDQF0oW0NIM10pKFtDSDJdW09IXSlbQ0gyXVtDSDJdW0NIMl03

>  <s_epik_cmdline>  (115) 
J2VwaWtfcHl0aG9uJywgJy1waHQnLCAnMi4wJywgJy1waCcsICc3LjAnLCAnLXRuJywgJzgnLCAnLW1hJywgJzIwMCcsICctaW1hZScsICc8aW5maWxlLm1hZT4nLCAnLW9tYWUnLCAnPG91dGZpbGUubWFlPic=

>  <r_lp_tautomer_probability>  (115) 
1

>  <r_epik_Ionization_Penalty>  (115) 
9.87998e-07

>  <r_epik_Ionization_Penalty_Charging>  (115) 
0

>  <r_epik_Ionization_Penalty_Neutral>  (115) 
9.87998e-07

>  <r_epik_State_Penalty>  (115) 
-0

>  <r_epik_Charging_Adjusted_Penalty>  (115) 
0

>  <i_epik_Tot_Q>  (115) 
0

>  <i_epik_Tot_abs_Q>  (115) 
0

>  <s_lp_Force_Field>  (115) 
OPLS3e

>  <r_lp_Energy>  (115) 
108.476

>  <b_lp_Chiralities_Consistent>  (115) 
1

>  <s_lp_Variant>  (115) 
39:0-2

>  <s_i_glide_gridfile>  (115) 
pfpi4k_grid

>  <i_i_glide_lignum>  (115) 
14

>  <i_i_glide_rotatable_bonds>  (115) 
7

>  <r_i_docking_score>  (115) 
-2.12261

>  <r_i_glide_ligand_efficiency>  (115) 
-0.0544259

>  <r_i_glide_ligand_efficiency_sa>  (115) 
-0.18457

>  <r_i_glide_ligand_efficiency_ln>  (115) 
-0.455147

>  <r_i_glide_gscore>  (115) 
-2.12261

>  <r_i_glide_lipo>  (115) 
-0.260104

>  <r_i_glide_hbond>  (115) 
-0.16

>  <r_i_glide_metal>  (115) 
-0

>  <r_i_glide_rewards>  (115) 
0

>  <r_i_glide_evdw>  (115) 
-23.2654

>  <r_i_glide_ecoul>  (115) 
-4.53775

>  <r_i_glide_erotb>  (115) 
0.141429

>  <r_i_glide_esite>  (115) 
0

>  <r_i_glide_emodel>  (115) 
-27.3854

>  <r_i_glide_energy>  (115) 
-27.8032

>  <r_i_glide_einternal>  (115) 
4.37411

>  <r_i_glide_intrahb_reward>  (115) 
-0

>  <i_i_glide_confnum>  (115) 
1

>  <i_i_glide_posenum>  (115) 
32

>  <r_i_glide_eff_state_penalty>  (115) 
0

>  <ligand_id>  (115) 
39

>  <original_smiles>  (115) 
C=C(C)C1CC=C2C1C(OC)C1(O)C3C4OC5(CCCC(C)(CO)C5CCC3(C)C1(C)C2O)C1=CC1(C)C4O

>  <smiles>  (115) 
[H]OC([H])([H])C1(C([H])([H])[H])C([H])([H])C([H])([H])C([H])([H])C23OC([H])(C([H])(O[H])C4(C([H])([H])[H])C([H])=C24)C2([H])C4(O[H])C([H])(OC([H])([H])[H])C5([H])C(=C([H])C([H])([H])C5([H])C(=C([H])[H])C([H])([H])[H])C([H])(O[H])C4(C([H])([H])[H])C2(C([H])([H])[H])C([H])([H])C([H])([H])C31[H]

$$$$
39:1:1
     RDKit          3D

 87 93  0  0  1  0  0  0  0  0999 V2000
    0.6109  -11.0779    3.1574 C   0  0  0  0  0  0  0  0  0  0  0  0
    1.6252  -10.1744    3.2634 C   0  0  0  0  0  0  0  0  0  0  0  0
    2.5282   -9.7853    2.0931 C   0  0  0  0  0  0  0  0  0  0  0  0
    1.9685   -9.4537    4.5641 C   0  0  2  0  0  0  0  0  0  0  0  0
    1.6756  -10.2109    5.8886 C   0  0  0  0  0  0  0  0  0  0  0  0
    1.5264   -9.1029    6.8926 C   0  0  0  0  0  0  0  0  0  0  0  0
    1.3210   -7.9236    6.3064 C   0  0  0  0  0  0  0  0  0  0  0  0
    1.3049   -8.0601    4.7640 C   0  0  1  0  0  0  0  0  0  0  0  0
    1.8973   -6.8445    3.9397 C   0  0  1  0  0  0  0  0  0  0  0  0
    0.9409   -6.2678    3.0316 O   0  0  0  0  0  0  0  0  0  0  0  0
    0.5716   -7.0186    1.8920 C   0  0  0  0  0  0  0  0  0  0  0  0
    2.3083   -5.7408    4.9237 C   0  0  1  0  0  0  0  0  0  0  0  0
    3.5434   -6.2509    5.3955 O   0  0  0  0  0  0  0  0  0  0  0  0
    2.3888   -4.2284    4.6590 C   0  0  2  0  0  0  0  0  0  0  0  0
    3.7104   -3.5299    4.2389 C   0  0  2  0  0  0  0  0  0  0  0  0
    3.6563   -2.1419    4.5923 O   0  0  0  0  0  0  0  0  0  0  0  0
    2.9419   -1.1963    3.7919 C   0  0  2  0  0  0  0  0  0  0  0  0
    3.6493    0.1436    4.0986 C   0  0  0  0  0  0  0  0  0  0  0  0
    2.8799    1.4229    3.6922 C   0  0  0  0  0  0  0  0  0  0  0  0
    1.4360    1.3879    4.2149 C   0  0  0  0  0  0  0  0  0  0  0  0
    0.6563    0.1258    3.7603 C   0  0  1  0  0  0  0  0  0  0  0  0
   -0.7813    0.1701    4.3617 C   0  0  0  0  0  0  0  0  0  0  0  0
    0.5294    0.1141    2.2190 C   0  0  0  0  0  0  0  0  0  0  0  0
   -0.3898    1.0919    1.8064 O   0  0  0  0  0  0  0  0  0  0  0  0
    1.4318   -1.1694    4.2284 C   0  0  2  0  0  0  0  0  0  0  0  0
    1.3537   -1.4019    5.7925 C   0  0  0  0  0  0  0  0  0  0  0  0
    0.8491   -2.7928    6.2360 C   0  0  0  0  0  0  0  0  0  0  0  0
    1.8289   -3.9952    6.1051 C   0  0  2  0  0  0  0  0  0  0  0  0
    2.8551   -3.8093    7.2434 C   0  0  0  0  0  0  0  0  0  0  0  0
    1.1996   -5.4358    5.9717 C   0  0  1  0  0  0  0  0  0  0  0  0
   -0.2733   -5.4100    5.4815 C   0  0  0  0  0  0  0  0  0  0  0  0
    1.2559   -6.5599    7.0201 C   0  0  1  0  0  0  0  0  0  0  0  0
    0.2257   -6.5250    7.9885 O   0  0  0  0  0  0  0  0  0  0  0  0
    3.3424   -1.5270    2.3649 C   0  0  0  0  0  0  0  0  0  0  0  0
    2.9500   -1.9331    1.2335 C   0  0  0  0  0  0  0  0  0  0  0  0
    4.2489   -2.5427    1.8872 C   0  0  1  0  0  0  0  0  0  0  0  0
    5.6152   -1.9340    1.6606 C   0  0  0  0  0  0  0  0  0  0  0  0
    4.1598   -3.8107    2.7622 C   0  0  1  0  0  0  0  0  0  0  0  0
    5.3952   -4.5027    2.7574 O   0  0  0  0  0  0  0  0  0  0  0  0
    0.4017  -11.5600    2.2150 H   0  0  0  0  0  0  0  0  0  0  0  0
   -0.0344  -11.3642    3.9895 H   0  0  0  0  0  0  0  0  0  0  0  0
    2.5289   -8.7170    1.9117 H   0  0  0  0  0  0  0  0  0  0  0  0
    2.1620  -10.2517    1.1717 H   0  0  0  0  0  0  0  0  0  0  0  0
    3.5363  -10.1871    2.2567 H   0  0  0  0  0  0  0  0  0  0  0  0
    3.0496   -9.3036    4.5494 H   0  0  0  0  0  0  0  0  0  0  0  0
    0.7220  -10.7382    5.9183 H   0  0  0  0  0  0  0  0  0  0  0  0
    2.4774  -10.9143    6.1346 H   0  0  0  0  0  0  0  0  0  0  0  0
    1.6006   -9.2957    7.9503 H   0  0  0  0  0  0  0  0  0  0  0  0
    0.2531   -8.1613    4.5252 H   0  0  0  0  0  0  0  0  0  0  0  0
    2.7892   -7.1559    3.3907 H   0  0  0  0  0  0  0  0  0  0  0  0
   -0.2060   -6.4649    1.3480 H   0  0  0  0  0  0  0  0  0  0  0  0
    0.1268   -7.9616    2.1739 H   0  0  0  0  0  0  0  0  0  0  0  0
    1.4363   -7.2377    1.2768 H   0  0  0  0  0  0  0  0  0  0  0  0
    3.8222   -5.6349    6.0485 H   0  0  0  0  0  0  0  0  0  0  0  0
    1.6178   -4.0015    3.9307 H   0  0  0  0  0  0  0  0  0  0  0  0
    4.5239   -3.8811    4.8778 H   0  0  0  0  0  0  0  0  0  0  0  0
    3.8694    0.1809    5.1708 H   0  0  0  0  0  0  0  0  0  0  0  0
    4.6181    0.1543    3.6017 H   0  0  0  0  0  0  0  0  0  0  0  0
    3.4079    2.2813    4.1093 H   0  0  0  0  0  0  0  0  0  0  0  0
    2.9164    1.5679    2.6123 H   0  0  0  0  0  0  0  0  0  0  0  0
    1.4850    1.4151    5.3027 H   0  0  0  0  0  0  0  0  0  0  0  0
    0.9143    2.2989    3.9128 H   0  0  0  0  0  0  0  0  0  0  0  0
   -1.2809   -0.7912    4.2551 H   0  0  0  0  0  0  0  0  0  0  0  0
   -1.4236    0.9172    3.9024 H   0  0  0  0  0  0  0  0  0  0  0  0
   -0.7910    0.4619    5.4074 H   0  0  0  0  0  0  0  0  0  0  0  0
    1.4676    0.3004    1.7001 H   0  0  0  0  0  0  0  0  0  0  0  0
    0.2070   -0.8591    1.8629 H   0  0  0  0  0  0  0  0  0  0  0  0
   -0.5067    0.9864    0.8620 H   0  0  0  0  0  0  0  0  0  0  0  0
    0.8955   -2.0008    3.7606 H   0  0  0  0  0  0  0  0  0  0  0  0
    2.2962   -1.1662    6.2852 H   0  0  0  0  0  0  0  0  0  0  0  0
    0.6950   -0.6905    6.2689 H   0  0  0  0  0  0  0  0  0  0  0  0
    0.4982   -2.7435    7.2646 H   0  0  0  0  0  0  0  0  0  0  0  0
   -0.0520   -2.9460    5.6580 H   0  0  0  0  0  0  0  0  0  0  0  0
    2.3516   -3.8032    8.2129 H   0  0  0  0  0  0  0  0  0  0  0  0
    3.4079   -2.8744    7.1429 H   0  0  0  0  0  0  0  0  0  0  0  0
    3.5958   -4.6020    7.2765 H   0  0  0  0  0  0  0  0  0  0  0  0
   -0.9374   -4.9637    6.2255 H   0  0  0  0  0  0  0  0  0  0  0  0
   -0.6772   -6.3978    5.2777 H   0  0  0  0  0  0  0  0  0  0  0  0
   -0.3637   -4.8423    4.5601 H   0  0  0  0  0  0  0  0  0  0  0  0
    2.1849   -6.5020    7.5753 H   0  0  0  0  0  0  0  0  0  0  0  0
    0.4903   -7.1069    8.6834 H   0  0  0  0  0  0  0  0  0  0  0  0
    2.2132   -2.0422    0.4390 H   0  0  0  0  0  0  0  0  0  0  0  0
    5.4563   -0.9797    1.1563 H   0  0  0  0  0  0  0  0  0  0  0  0
    6.2555   -2.5725    1.0497 H   0  0  0  0  0  0  0  0  0  0  0  0
    6.0612   -1.7240    2.6365 H   0  0  0  0  0  0  0  0  0  0  0  0
    3.4411   -4.4896    2.3008 H   0  0  0  0  0  0  0  0  0  0  0  0
    6.0569   -3.9381    3.1265 H   0  0  0  0  0  0  0  0  0  0  0  0
  1  2  2  0
  1 40  1  0
  1 41  1  0
  2  3  1  0
  2  4  1  0
  3 42  1  0
  3 43  1  0
  3 44  1  0
  4  8  1  0
  4  5  1  0
  4 45  1  6
  5  6  1  0
  5 46  1  0
  5 47  1  0
  6  7  2  0
  6 48  1  0
  7 32  1  0
  7  8  1  0
  8  9  1  0
  8 49  1  6
  9 10  1  0
  9 12  1  0
  9 50  1  6
 10 11  1  0
 11 51  1  0
 11 52  1  0
 11 53  1  0
 12 30  1  0
 12 13  1  1
 12 14  1  0
 13 54  1  0
 14 28  1  0
 14 15  1  0
 14 55  1  6
 15 38  1  0
 15 16  1  0
 15 56  1  1
 16 17  1  0
 17 25  1  0
 17 18  1  1
 17 34  1  0
 18 19  1  0
 18 57  1  0
 18 58  1  0
 19 20  1  0
 19 59  1  0
 19 60  1  0
 20 21  1  0
 20 61  1  0
 20 62  1  0
 21 22  1  1
 21 23  1  0
 21 25  1  0
 22 63  1  0
 22 64  1  0
 22 65  1  0
 23 24  1  0
 23 66  1  0
 23 67  1  0
 24 68  1  0
 25 26  1  0
 25 69  1  6
 26 27  1  0
 26 70  1  0
 26 71  1  0
 27 28  1  0
 27 72  1  0
 27 73  1  0
 28 29  1  1
 28 30  1  0
 29 74  1  0
 29 75  1  0
 29 76  1  0
 30 31  1  6
 30 32  1  0
 31 77  1  0
 31 78  1  0
 31 79  1  0
 32 33  1  0
 32 80  1  1
 33 81  1  0
 34 36  1  0
 34 35  2  0
 35 36  1  0
 35 82  1  0
 36 37  1  6
 36 38  1  0
 37 83  1  0
 37 84  1  0
 37 85  1  0
 38 39  1  0
 38 86  1  6
 39 87  1  0
M  END
>  <i_m_ct_stereo_status>  (116) 
1

>  <s_m_source_file>  (116) 
/var/tmp/pbs.5076255.sched01/tmpwzsktf0x/40k9schvjs.sdf

>  <i_m_source_file_index>  (116) 
14

>  <i_lp_mmshare_version>  (116) 
48012

>  <i_f3d_flags>  (116) 
0

>  <s_epik_input>  (116) 
W0NIMl09QyhbQ0gzXSlbQ0BIXShbQ0gyXVtDSF09MSlbQ0BIXShbQ0BIXTJPW0NIM10pQzFbQ0BIXShbT0hdKVtDQF0zKFtDSDNdKVtDQF0yKFtPSF0pW0NASF0oW0NASF0oTzQpW0NASF0oW09IXSlDNShbQ0gzXSlDNj1bQ0hdNSlbQ0BAXTMoW0NIM10pW0NIMl1bQ0gyXVtDQEhdKFtDQEBdNDY3KVtDQF0oW0NIM10pKFtDSDJdW09IXSlbQ0gyXVtDSDJdW0NIMl03

>  <s_epik_cmdline>  (116) 
J2VwaWtfcHl0aG9uJywgJy1waHQnLCAnMi4wJywgJy1waCcsICc3LjAnLCAnLXRuJywgJzgnLCAnLW1hJywgJzIwMCcsICctaW1hZScsICc8aW5maWxlLm1hZT4nLCAnLW9tYWUnLCAnPG91dGZpbGUubWFlPic=

>  <r_lp_tautomer_probability>  (116) 
1

>  <r_epik_Ionization_Penalty>  (116) 
9.87998e-07

>  <r_epik_Ionization_Penalty_Charging>  (116) 
0

>  <r_epik_Ionization_Penalty_Neutral>  (116) 
9.87998e-07

>  <r_epik_State_Penalty>  (116) 
-0

>  <r_epik_Charging_Adjusted_Penalty>  (116) 
0

>  <i_epik_Tot_Q>  (116) 
0

>  <i_epik_Tot_abs_Q>  (116) 
0

>  <s_lp_Force_Field>  (116) 
OPLS3e

>  <r_lp_Energy>  (116) 
108.476

>  <b_lp_Chiralities_Consistent>  (116) 
1

>  <s_lp_Variant>  (116) 
39:0-2

>  <s_i_glide_gridfile>  (116) 
pfpi4k_grid

>  <i_i_glide_lignum>  (116) 
14

>  <i_i_glide_rotatable_bonds>  (116) 
7

>  <r_i_docking_score>  (116) 
-1.92478

>  <r_i_glide_ligand_efficiency>  (116) 
-0.0493533

>  <r_i_glide_ligand_efficiency_sa>  (116) 
-0.167367

>  <r_i_glide_ligand_efficiency_ln>  (116) 
-0.412727

>  <r_i_glide_gscore>  (116) 
-1.92478

>  <r_i_glide_lipo>  (116) 
-0.270386

>  <r_i_glide_hbond>  (116) 
-0.16

>  <r_i_glide_metal>  (116) 
-0

>  <r_i_glide_rewards>  (116) 
0

>  <r_i_glide_evdw>  (116) 
-23.2446

>  <r_i_glide_ecoul>  (116) 
-3.15728

>  <r_i_glide_erotb>  (116) 
0.141429

>  <r_i_glide_esite>  (116) 
0

>  <r_i_glide_emodel>  (116) 
-25.7064

>  <r_i_glide_energy>  (116) 
-26.4019

>  <r_i_glide_einternal>  (116) 
2.75683

>  <r_i_glide_intrahb_reward>  (116) 
-0

>  <i_i_glide_confnum>  (116) 
1

>  <i_i_glide_posenum>  (116) 
1

>  <r_i_glide_eff_state_penalty>  (116) 
0

>  <ligand_id>  (116) 
39

>  <original_smiles>  (116) 
C=C(C)C1CC=C2C1C(OC)C1(O)C3C4OC5(CCCC(C)(CO)C5CCC3(C)C1(C)C2O)C1=CC1(C)C4O

>  <smiles>  (116) 
[H]OC([H])([H])C1(C([H])([H])[H])C([H])([H])C([H])([H])C([H])([H])C23OC([H])(C([H])(O[H])C4(C([H])([H])[H])C([H])=C24)C2([H])C4(O[H])C([H])(OC([H])([H])[H])C5([H])C(=C([H])C([H])([H])C5([H])C(=C([H])[H])C([H])([H])[H])C([H])(O[H])C4(C([H])([H])[H])C2(C([H])([H])[H])C([H])([H])C([H])([H])C31[H]

$$$$
39:1:2
     RDKit          3D

 87 93  0  0  1  0  0  0  0  0999 V2000
   -0.5193   -9.8260    2.4848 C   0  0  0  0  0  0  0  0  0  0  0  0
    0.6198   -9.1172    2.5826 C   0  0  0  0  0  0  0  0  0  0  0  0
    0.9563   -8.0025    1.6034 C   0  0  0  0  0  0  0  0  0  0  0  0
    1.6784   -9.3837    3.6487 C   0  0  2  0  0  0  0  0  0  0  0  0
    1.9583  -10.8701    4.0132 C   0  0  0  0  0  0  0  0  0  0  0  0
    2.4857  -10.7675    5.4203 C   0  0  0  0  0  0  0  0  0  0  0  0
    2.2102   -9.5918    5.9819 C   0  0  0  0  0  0  0  0  0  0  0  0
    1.4220   -8.7004    5.0146 C   0  0  1  0  0  0  0  0  0  0  0  0
    1.6869   -7.1448    5.0869 C   0  0  1  0  0  0  0  0  0  0  0  0
    0.5067   -6.3918    5.3684 O   0  0  0  0  0  0  0  0  0  0  0  0
   -0.5800   -6.5429    4.4789 C   0  0  0  0  0  0  0  0  0  0  0  0
    2.6730   -6.8720    6.2252 C   0  0  1  0  0  0  0  0  0  0  0  0
    3.8794   -7.2231    5.5936 O   0  0  0  0  0  0  0  0  0  0  0  0
    2.8368   -5.5968    7.0694 C   0  0  2  0  0  0  0  0  0  0  0  0
    3.8589   -4.4831    6.7157 C   0  0  2  0  0  0  0  0  0  0  0  0
    4.1731   -3.7324    7.8997 O   0  0  0  0  0  0  0  0  0  0  0  0
    3.3163   -2.7144    8.3915 C   0  0  2  0  0  0  0  0  0  0  0  0
    4.2695   -1.7962    9.1824 C   0  0  0  0  0  0  0  0  0  0  0  0
    3.5977   -0.8046   10.1608 C   0  0  0  0  0  0  0  0  0  0  0  0
    2.6090   -1.5268   11.0894 C   0  0  0  0  0  0  0  0  0  0  0  0
    1.5321   -2.3286   10.3168 C   0  0  1  0  0  0  0  0  0  0  0  0
    0.6000   -3.0484   11.3305 C   0  0  0  0  0  0  0  0  0  0  0  0
    0.6491   -1.3742    9.4660 C   0  0  0  0  0  0  0  0  0  0  0  0
   -0.1956   -0.5323   10.2187 O   0  0  0  0  0  0  0  0  0  0  0  0
    2.2347   -3.3668    9.3499 C   0  0  2  0  0  0  0  0  0  0  0  0
    2.9163   -4.5703   10.1210 C   0  0  0  0  0  0  0  0  0  0  0  0
    2.5077   -5.9892    9.6545 C   0  0  0  0  0  0  0  0  0  0  0  0
    3.1041   -6.5118    8.3130 C   0  0  2  0  0  0  0  0  0  0  0  0
    4.5660   -6.8617    8.6485 C   0  0  0  0  0  0  0  0  0  0  0  0
    2.2881   -7.6134    7.5331 C   0  0  1  0  0  0  0  0  0  0  0  0
    0.7873   -7.6479    7.9375 C   0  0  0  0  0  0  0  0  0  0  0  0
    2.6906   -9.0850    7.3501 C   0  0  1  0  0  0  0  0  0  0  0  0
    2.2237   -9.8831    8.4141 O   0  0  0  0  0  0  0  0  0  0  0  0
    2.9501   -1.9546    7.1651 C   0  0  0  0  0  0  0  0  0  0  0  0
    1.9566   -1.5645    6.4603 C   0  0  0  0  0  0  0  0  0  0  0  0
    3.3075   -2.1263    5.7881 C   0  0  1  0  0  0  0  0  0  0  0  0
    4.4526   -1.1944    5.4597 C   0  0  0  0  0  0  0  0  0  0  0  0
    3.4713   -3.6110    5.4745 C   0  0  1  0  0  0  0  0  0  0  0  0
    4.4283   -3.7958    4.4553 O   0  0  0  0  0  0  0  0  0  0  0  0
   -1.2337   -9.6368    1.6941 H   0  0  0  0  0  0  0  0  0  0  0  0
   -0.7481  -10.6102    3.1872 H   0  0  0  0  0  0  0  0  0  0  0  0
    1.1823   -7.0555    2.0887 H   0  0  0  0  0  0  0  0  0  0  0  0
    0.1360   -7.8495    0.9031 H   0  0  0  0  0  0  0  0  0  0  0  0
    1.8486   -8.2749    1.0443 H   0  0  0  0  0  0  0  0  0  0  0  0
    2.6170   -8.9935    3.2460 H   0  0  0  0  0  0  0  0  0  0  0  0
    1.0719  -11.5012    4.0698 H   0  0  0  0  0  0  0  0  0  0  0  0
    2.6700  -11.3359    3.3284 H   0  0  0  0  0  0  0  0  0  0  0  0
    3.0251  -11.5760    5.8915 H   0  0  0  0  0  0  0  0  0  0  0  0
    0.4117   -8.9435    5.3255 H   0  0  0  0  0  0  0  0  0  0  0  0
    2.1147   -6.7933    4.1420 H   0  0  0  0  0  0  0  0  0  0  0  0
   -1.3762   -5.8903    4.8239 H   0  0  0  0  0  0  0  0  0  0  0  0
   -1.0392   -7.5251    4.4791 H   0  0  0  0  0  0  0  0  0  0  0  0
   -0.3229   -6.2373    3.4708 H   0  0  0  0  0  0  0  0  0  0  0  0
    4.5144   -7.2233    6.2914 H   0  0  0  0  0  0  0  0  0  0  0  0
    1.8462   -5.1684    7.1602 H   0  0  0  0  0  0  0  0  0  0  0  0
    4.8249   -4.9362    6.4836 H   0  0  0  0  0  0  0  0  0  0  0  0
    4.9980   -2.4139    9.7220 H   0  0  0  0  0  0  0  0  0  0  0  0
    4.8642   -1.2169    8.4702 H   0  0  0  0  0  0  0  0  0  0  0  0
    4.3821   -0.3304   10.7532 H   0  0  0  0  0  0  0  0  0  0  0  0
    3.1173    0.0092    9.6174 H   0  0  0  0  0  0  0  0  0  0  0  0
    3.1964   -2.2058   11.7037 H   0  0  0  0  0  0  0  0  0  0  0  0
    2.1548   -0.8166   11.7797 H   0  0  0  0  0  0  0  0  0  0  0  0
   -0.0129   -3.8006   10.8362 H   0  0  0  0  0  0  0  0  0  0  0  0
   -0.0671   -2.3619   11.8459 H   0  0  0  0  0  0  0  0  0  0  0  0
    1.1511   -3.5290   12.1335 H   0  0  0  0  0  0  0  0  0  0  0  0
    1.2607   -0.7240    8.8410 H   0  0  0  0  0  0  0  0  0  0  0  0
    0.0253   -1.9541    8.7843 H   0  0  0  0  0  0  0  0  0  0  0  0
    0.3105   -0.0951   10.8900 H   0  0  0  0  0  0  0  0  0  0  0  0
    1.4329   -3.7973    8.7495 H   0  0  0  0  0  0  0  0  0  0  0  0
    4.0019   -4.4813   10.1502 H   0  0  0  0  0  0  0  0  0  0  0  0
    2.6842   -4.5431   11.1785 H   0  0  0  0  0  0  0  0  0  0  0  0
    2.7260   -6.7083   10.4428 H   0  0  0  0  0  0  0  0  0  0  0  0
    1.4288   -5.9543    9.6265 H   0  0  0  0  0  0  0  0  0  0  0  0
    4.6116   -7.6165    9.4399 H   0  0  0  0  0  0  0  0  0  0  0  0
    5.1295   -5.9871    8.9852 H   0  0  0  0  0  0  0  0  0  0  0  0
    5.1056   -7.2650    7.7950 H   0  0  0  0  0  0  0  0  0  0  0  0
    0.6523   -7.9859    8.9704 H   0  0  0  0  0  0  0  0  0  0  0  0
    0.1994   -8.3335    7.3320 H   0  0  0  0  0  0  0  0  0  0  0  0
    0.3138   -6.6712    7.8431 H   0  0  0  0  0  0  0  0  0  0  0  0
    3.7672   -9.1949    7.2929 H   0  0  0  0  0  0  0  0  0  0  0  0
    2.0655  -10.7695    8.0809 H   0  0  0  0  0  0  0  0  0  0  0  0
    0.8974   -1.3516    6.2670 H   0  0  0  0  0  0  0  0  0  0  0  0
    4.2037   -0.2262    5.8920 H   0  0  0  0  0  0  0  0  0  0  0  0
    4.6030   -1.0921    4.3849 H   0  0  0  0  0  0  0  0  0  0  0  0
    5.3421   -1.5714    5.9690 H   0  0  0  0  0  0  0  0  0  0  0  0
    2.5271   -3.9830    5.0707 H   0  0  0  0  0  0  0  0  0  0  0  0
    5.2669   -3.4783    4.7590 H   0  0  0  0  0  0  0  0  0  0  0  0
  1  2  2  0
  1 40  1  0
  1 41  1  0
  2  3  1  0
  2  4  1  0
  3 42  1  0
  3 43  1  0
  3 44  1  0
  4  8  1  0
  4  5  1  0
  4 45  1  6
  5  6  1  0
  5 46  1  0
  5 47  1  0
  6  7  2  0
  6 48  1  0
  7 32  1  0
  7  8  1  0
  8  9  1  0
  8 49  1  1
  9 10  1  0
  9 12  1  0
  9 50  1  6
 10 11  1  0
 11 51  1  0
 11 52  1  0
 11 53  1  0
 12 30  1  0
 12 13  1  6
 12 14  1  0
 13 54  1  0
 14 28  1  0
 14 15  1  0
 14 55  1  1
 15 38  1  0
 15 16  1  0
 15 56  1  6
 16 17  1  0
 17 25  1  0
 17 18  1  1
 17 34  1  0
 18 19  1  0
 18 57  1  0
 18 58  1  0
 19 20  1  0
 19 59  1  0
 19 60  1  0
 20 21  1  0
 20 61  1  0
 20 62  1  0
 21 22  1  1
 21 23  1  0
 21 25  1  0
 22 63  1  0
 22 64  1  0
 22 65  1  0
 23 24  1  0
 23 66  1  0
 23 67  1  0
 24 68  1  0
 25 26  1  0
 25 69  1  6
 26 27  1  0
 26 70  1  0
 26 71  1  0
 27 28  1  0
 27 72  1  0
 27 73  1  0
 28 29  1  1
 28 30  1  0
 29 74  1  0
 29 75  1  0
 29 76  1  0
 30 31  1  1
 30 32  1  0
 31 77  1  0
 31 78  1  0
 31 79  1  0
 32 33  1  0
 32 80  1  6
 33 81  1  0
 34 36  1  0
 34 35  2  0
 35 36  1  0
 35 82  1  0
 36 37  1  6
 36 38  1  0
 37 83  1  0
 37 84  1  0
 37 85  1  0
 38 39  1  0
 38 86  1  6
 39 87  1  0
M  END
>  <i_m_ct_stereo_status>  (117) 
1

>  <s_m_source_file>  (117) 
/var/tmp/pbs.5076255.sched01/tmpwzsktf0x/40k9schvjs.sdf

>  <i_m_source_file_index>  (117) 
14

>  <i_lp_mmshare_version>  (117) 
48012

>  <i_f3d_flags>  (117) 
0

>  <s_epik_input>  (117) 
W0NIMl09QyhbQ0gzXSlbQ0BIXShbQ0gyXVtDSF09MSlbQ0BIXShbQ0BIXTJPW0NIM10pQzFbQ0BIXShbT0hdKVtDQF0zKFtDSDNdKVtDQF0yKFtPSF0pW0NASF0oW0NASF0oTzQpW0NASF0oW09IXSlDNShbQ0gzXSlDNj1bQ0hdNSlbQ0BAXTMoW0NIM10pW0NIMl1bQ0gyXVtDQEhdKFtDQEBdNDY3KVtDQF0oW0NIM10pKFtDSDJdW09IXSlbQ0gyXVtDSDJdW0NIMl03

>  <s_epik_cmdline>  (117) 
J2VwaWtfcHl0aG9uJywgJy1waHQnLCAnMi4wJywgJy1waCcsICc3LjAnLCAnLXRuJywgJzgnLCAnLW1hJywgJzIwMCcsICctaW1hZScsICc8aW5maWxlLm1hZT4nLCAnLW9tYWUnLCAnPG91dGZpbGUubWFlPic=

>  <r_lp_tautomer_probability>  (117) 
1

>  <r_epik_Ionization_Penalty>  (117) 
9.87998e-07

>  <r_epik_Ionization_Penalty_Charging>  (117) 
0

>  <r_epik_Ionization_Penalty_Neutral>  (117) 
9.87998e-07

>  <r_epik_State_Penalty>  (117) 
-0

>  <r_epik_Charging_Adjusted_Penalty>  (117) 
0

>  <i_epik_Tot_Q>  (117) 
0

>  <i_epik_Tot_abs_Q>  (117) 
0

>  <s_lp_Force_Field>  (117) 
OPLS3e

>  <r_lp_Energy>  (117) 
108.476

>  <b_lp_Chiralities_Consistent>  (117) 
1

>  <s_lp_Variant>  (117) 
39:0-2

>  <s_i_glide_gridfile>  (117) 
pfpi4k_grid

>  <i_i_glide_lignum>  (117) 
14

>  <i_i_glide_rotatable_bonds>  (117) 
7

>  <r_i_docking_score>  (117) 
-1.50432

>  <r_i_glide_ligand_efficiency>  (117) 
-0.0385722

>  <r_i_glide_ligand_efficiency_sa>  (117) 
-0.130807

>  <r_i_glide_ligand_efficiency_ln>  (117) 
-0.322568

>  <r_i_glide_gscore>  (117) 
-1.50432

>  <r_i_glide_lipo>  (117) 
-0.083789

>  <r_i_glide_hbond>  (117) 
-0.16

>  <r_i_glide_metal>  (117) 
-0

>  <r_i_glide_rewards>  (117) 
0

>  <r_i_glide_evdw>  (117) 
-14.7567

>  <r_i_glide_ecoul>  (117) 
-4.42746

>  <r_i_glide_erotb>  (117) 
0.141429

>  <r_i_glide_esite>  (117) 
0

>  <r_i_glide_emodel>  (117) 
-16.6003

>  <r_i_glide_energy>  (117) 
-19.1842

>  <r_i_glide_einternal>  (117) 
3.83858

>  <r_i_glide_intrahb_reward>  (117) 
-0

>  <i_i_glide_confnum>  (117) 
1

>  <i_i_glide_posenum>  (117) 
10

>  <r_i_glide_eff_state_penalty>  (117) 
0

>  <ligand_id>  (117) 
39

>  <original_smiles>  (117) 
C=C(C)C1CC=C2C1C(OC)C1(O)C3C4OC5(CCCC(C)(CO)C5CCC3(C)C1(C)C2O)C1=CC1(C)C4O

>  <smiles>  (117) 
[H]OC([H])([H])C1(C([H])([H])[H])C([H])([H])C([H])([H])C([H])([H])C23OC([H])(C([H])(O[H])C4(C([H])([H])[H])C([H])=C24)C2([H])C4(O[H])C([H])(OC([H])([H])[H])C5([H])C(=C([H])C([H])([H])C5([H])C(=C([H])[H])C([H])([H])[H])C([H])(O[H])C4(C([H])([H])[H])C2(C([H])([H])[H])C([H])([H])C([H])([H])C31[H]

$$$$
40:0:0
     RDKit          3D

 49 52  0  0  1  0  0  0  0  0999 V2000
    3.1496   -0.1917   -5.0799 C   0  0  0  0  0  0  0  0  0  0  0  0
    3.3726   -0.9667   -3.7948 C   0  0  0  0  0  0  0  0  0  0  0  0
    4.2010   -0.5088   -2.8439 C   0  0  0  0  0  0  0  0  0  0  0  0
    4.3612   -1.2546   -1.5490 C   0  0  2  0  0  0  0  0  0  0  0  0
    5.4308   -0.8400   -0.7230 O   0  0  0  0  0  0  0  0  0  0  0  0
    5.2075   -0.9049    0.7025 C   0  0  1  0  0  0  0  0  0  0  0  0
    3.9324   -1.6860    1.1611 C   0  0  0  0  0  0  0  0  0  0  0  0
    4.1102   -3.2167    0.9681 C   0  0  2  0  0  0  0  0  0  0  0  0
    5.1686   -3.7057    2.0116 C   0  0  0  0  0  0  0  0  0  0  0  0
    4.9658   -3.2427    3.4867 C   0  0  0  0  0  0  0  0  0  0  0  0
    5.2311   -5.2573    2.1515 C   0  0  0  0  0  0  0  0  0  0  0  0
    6.4214   -3.1287    1.3105 C   0  0  1  0  0  0  0  0  0  0  0  0
    6.2703   -3.5973   -0.1307 C   0  0  0  0  0  0  0  0  0  0  0  0
    4.7432   -3.5803   -0.4373 C   0  0  1  0  0  0  0  0  0  0  0  0
    4.4088   -4.9306   -0.6940 O   0  0  0  0  0  0  0  0  0  0  0  0
    4.3646   -2.7844   -1.7534 C   0  0  2  0  0  0  0  0  0  0  0  0
    5.4038   -3.1928   -2.8607 C   0  0  0  0  0  0  0  0  0  0  0  0
    2.9439   -3.0546   -2.3162 C   0  0  0  0  0  0  0  0  0  0  0  0
    2.6490   -2.3155   -3.6449 C   0  0  0  0  0  0  0  0  0  0  0  0
    6.4481   -1.5738    1.3543 C   0  0  1  0  0  0  0  0  0  0  0  0
    7.6439   -1.0562    0.8131 O   0  0  0  0  0  0  0  0  0  0  0  0
    3.4377   -0.7954   -5.9326 H   0  0  0  0  0  0  0  0  0  0  0  0
    3.7331    0.7246   -5.1109 H   0  0  0  0  0  0  0  0  0  0  0  0
    2.0943    0.0600   -5.1873 H   0  0  0  0  0  0  0  0  0  0  0  0
    4.6907    0.4511   -2.9263 H   0  0  0  0  0  0  0  0  0  0  0  0
    3.4271   -0.9126   -1.1263 H   0  0  0  0  0  0  0  0  0  0  0  0
    5.1262    0.1235    1.0565 H   0  0  0  0  0  0  0  0  0  0  0  0
    3.7375   -1.4469    2.2040 H   0  0  0  0  0  0  0  0  0  0  0  0
    2.9957   -1.3408    0.7303 H   0  0  0  0  0  0  0  0  0  0  0  0
    3.1506   -3.7047    1.1237 H   0  0  0  0  0  0  0  0  0  0  0  0
    5.7136   -3.6861    4.1463 H   0  0  0  0  0  0  0  0  0  0  0  0
    3.9912   -3.5584    3.8619 H   0  0  0  0  0  0  0  0  0  0  0  0
    5.0389   -2.1722    3.6648 H   0  0  0  0  0  0  0  0  0  0  0  0
    5.9446   -5.5615    2.9168 H   0  0  0  0  0  0  0  0  0  0  0  0
    5.5413   -5.7897    1.2578 H   0  0  0  0  0  0  0  0  0  0  0  0
    4.2600   -5.6607    2.4402 H   0  0  0  0  0  0  0  0  0  0  0  0
    7.3389   -3.5369    1.7264 H   0  0  0  0  0  0  0  0  0  0  0  0
    6.8837   -2.9710   -0.7721 H   0  0  0  0  0  0  0  0  0  0  0  0
    6.6812   -4.5996   -0.2396 H   0  0  0  0  0  0  0  0  0  0  0  0
    3.8449   -4.9768   -1.4477 H   0  0  0  0  0  0  0  0  0  0  0  0
    5.6177   -4.2545   -2.8446 H   0  0  0  0  0  0  0  0  0  0  0  0
    6.3530   -2.6631   -2.7636 H   0  0  0  0  0  0  0  0  0  0  0  0
    5.0782   -2.9867   -3.8810 H   0  0  0  0  0  0  0  0  0  0  0  0
    2.7490   -4.0992   -2.4871 H   0  0  0  0  0  0  0  0  0  0  0  0
    2.2111   -2.7497   -1.5637 H   0  0  0  0  0  0  0  0  0  0  0  0
    1.5669   -2.2573   -3.7584 H   0  0  0  0  0  0  0  0  0  0  0  0
    2.9599   -2.9474   -4.4806 H   0  0  0  0  0  0  0  0  0  0  0  0
    6.4813   -1.2630    2.3987 H   0  0  0  0  0  0  0  0  0  0  0  0
    7.7827   -0.1729    1.1756 H   0  0  0  0  0  0  0  0  0  0  0  0
  1  2  1  0
  1 22  1  0
  1 23  1  0
  1 24  1  0
  2 19  1  0
  2  3  2  0
  3  4  1  0
  3 25  1  0
  4 16  1  0
  4  5  1  0
  4 26  1  1
  5  6  1  0
  6 20  1  0
  6  7  1  0
  6 27  1  1
  7  8  1  0
  7 28  1  0
  7 29  1  0
  8 14  1  0
  8  9  1  0
  8 30  1  1
  9 10  1  0
  9 11  1  0
  9 12  1  0
 10 31  1  0
 10 32  1  0
 10 33  1  0
 11 34  1  0
 11 35  1  0
 11 36  1  0
 12 13  1  0
 12 20  1  0
 12 37  1  1
 13 14  1  0
 13 38  1  0
 13 39  1  0
 14 15  1  6
 14 16  1  0
 15 40  1  0
 16 17  1  6
 16 18  1  0
 17 41  1  0
 17 42  1  0
 17 43  1  0
 18 19  1  0
 18 44  1  0
 18 45  1  0
 19 46  1  0
 19 47  1  0
 20 21  1  0
 20 48  1  1
 21 49  1  0
M  END
>  <i_m_ct_stereo_status>  (118) 
1

>  <s_m_source_file>  (118) 
/var/tmp/pbs.5076255.sched01/tmpwzsktf0x/40k9schvjs.sdf

>  <i_m_source_file_index>  (118) 
15

>  <i_lp_mmshare_version>  (118) 
48012

>  <i_f3d_flags>  (118) 
0

>  <s_epik_input>  (118) 
W0NIM11DKD1bQ0hdMSlbQ0gyXVtDSDJdW0NAQF0yKFtDSDNdKVtDQEhdMU9bQ0BASF0oW0NIMl1bQ0BIXTNbQ0BAXTI0W09IXSlbQ0BIXShbT0hdKVtDQEhdKFtDSDJdNClDMyhbQ0gzXSlbQ0gzXQ==

>  <s_epik_cmdline>  (118) 
J2VwaWtfcHl0aG9uJywgJy1waHQnLCAnMi4wJywgJy1waCcsICc3LjAnLCAnLXRuJywgJzgnLCAnLW1hJywgJzIwMCcsICctaW1hZScsICc8aW5maWxlLm1hZT4nLCAnLW9tYWUnLCAnPG91dGZpbGUubWFlPic=

>  <r_lp_tautomer_probability>  (118) 
1

>  <r_epik_Ionization_Penalty>  (118) 
5.68725e-07

>  <r_epik_Ionization_Penalty_Charging>  (118) 
0

>  <r_epik_Ionization_Penalty_Neutral>  (118) 
5.68725e-07

>  <r_epik_State_Penalty>  (118) 
-0

>  <r_epik_Charging_Adjusted_Penalty>  (118) 
0

>  <i_epik_Tot_Q>  (118) 
0

>  <i_epik_Tot_abs_Q>  (118) 
0

>  <s_lp_Force_Field>  (118) 
OPLS3e

>  <r_lp_Energy>  (118) 
75.542

>  <b_lp_Chiralities_Consistent>  (118) 
1

>  <s_lp_Variant>  (118) 
40:0-1

>  <s_i_glide_gridfile>  (118) 
pfpi4k_grid

>  <i_i_glide_lignum>  (118) 
15

>  <i_i_glide_rotatable_bonds>  (118) 
2

>  <r_i_docking_score>  (118) 
-5.8472

>  <r_i_glide_ligand_efficiency>  (118) 
-0.278438

>  <r_i_glide_ligand_efficiency_sa>  (118) 
-0.76819

>  <r_i_glide_ligand_efficiency_ln>  (118) 
-1.44571

>  <r_i_glide_gscore>  (118) 
-5.8472

>  <r_i_glide_lipo>  (118) 
-1.52576

>  <r_i_glide_hbond>  (118) 
-0.271459

>  <r_i_glide_metal>  (118) 
-0

>  <r_i_glide_rewards>  (118) 
-1.41537

>  <r_i_glide_evdw>  (118) 
-23.4102

>  <r_i_glide_ecoul>  (118) 
-9.76069

>  <r_i_glide_erotb>  (118) 
0

>  <r_i_glide_esite>  (118) 
0

>  <r_i_glide_emodel>  (118) 
-43.1313

>  <r_i_glide_energy>  (118) 
-33.1709

>  <r_i_glide_einternal>  (118) 
1.72306

>  <r_i_glide_intrahb_reward>  (118) 
-0

>  <i_i_glide_confnum>  (118) 
1

>  <i_i_glide_posenum>  (118) 
13

>  <r_i_glide_eff_state_penalty>  (118) 
0

>  <ligand_id>  (118) 
40

>  <original_smiles>  (118) 
CC1=CC2OC3CC4C(C)(C)C(CC4(O)C2(C)CC1)C3O

>  <smiles>  (118) 
[H]OC1([H])C2([H])OC3([H])C([H])=C(C([H])([H])[H])C([H])([H])C([H])([H])C3(C([H])([H])[H])C3(O[H])C([H])([H])C1([H])C(C([H])([H])[H])(C([H])([H])[H])C3([H])C2([H])[H]

$$$$
40:0:1
     RDKit          3D

 49 52  0  0  1  0  0  0  0  0999 V2000
    3.4194   -0.1505   -4.8954 C   0  0  0  0  0  0  0  0  0  0  0  0
    3.5223   -1.0637   -3.7116 C   0  0  0  0  0  0  0  0  0  0  0  0
    3.8554   -0.6090   -2.4827 C   0  0  0  0  0  0  0  0  0  0  0  0
    3.8289   -1.5144   -1.2970 C   0  0  2  0  0  0  0  0  0  0  0  0
    4.3047   -0.9700   -0.0728 O   0  0  0  0  0  0  0  0  0  0  0  0
    3.6787   -1.4455    1.1387 C   0  0  1  0  0  0  0  0  0  0  0  0
    2.7591   -2.6997    0.9906 C   0  0  0  0  0  0  0  0  0  0  0  0
    3.5894   -3.9823    0.7488 C   0  0  2  0  0  0  0  0  0  0  0  0
    4.3579   -4.3084    2.0663 C   0  0  0  0  0  0  0  0  0  0  0  0
    3.5281   -4.3119    3.3804 C   0  0  0  0  0  0  0  0  0  0  0  0
    5.0048   -5.7220    2.0656 C   0  0  0  0  0  0  0  0  0  0  0  0
    5.4166   -3.1920    1.9835 C   0  0  1  0  0  0  0  0  0  0  0  0
    5.9395   -3.3191    0.5498 C   0  0  0  0  0  0  0  0  0  0  0  0
    4.7167   -3.7714   -0.3194 C   0  0  1  0  0  0  0  0  0  0  0  0
    5.0169   -5.0590   -0.8197 O   0  0  0  0  0  0  0  0  0  0  0  0
    4.4914   -2.8497   -1.6073 C   0  0  2  0  0  0  0  0  0  0  0  0
    5.8973   -2.6434   -2.2436 C   0  0  0  0  0  0  0  0  0  0  0  0
    3.6048   -3.4291   -2.7343 C   0  0  0  0  0  0  0  0  0  0  0  0
    3.3694   -2.5387   -3.9465 C   0  0  0  0  0  0  0  0  0  0  0  0
    4.7904   -1.7853    2.1820 C   0  0  1  0  0  0  0  0  0  0  0  0
    5.7566   -0.7671    2.2436 O   0  0  0  0  0  0  0  0  0  0  0  0
    4.1867   -0.4249   -5.6008 H   0  0  0  0  0  0  0  0  0  0  0  0
    3.5557    0.8928   -4.6172 H   0  0  0  0  0  0  0  0  0  0  0  0
    2.4439   -0.2449   -5.3894 H   0  0  0  0  0  0  0  0  0  0  0  0
    4.0703    0.4318   -2.3274 H   0  0  0  0  0  0  0  0  0  0  0  0
    2.7591   -1.6373   -1.2448 H   0  0  0  0  0  0  0  0  0  0  0  0
    3.0728   -0.6205    1.5116 H   0  0  0  0  0  0  0  0  0  0  0  0
    2.1588   -2.7849    1.8940 H   0  0  0  0  0  0  0  0  0  0  0  0
    1.9697   -2.6326    0.2475 H   0  0  0  0  0  0  0  0  0  0  0  0
    2.9102   -4.7942    0.4705 H   0  0  0  0  0  0  0  0  0  0  0  0
    4.1490   -4.6090    4.2240 H   0  0  0  0  0  0  0  0  0  0  0  0
    2.7045   -5.0334    3.3117 H   0  0  0  0  0  0  0  0  0  0  0  0
    3.0889   -3.3619    3.6742 H   0  0  0  0  0  0  0  0  0  0  0  0
    5.5021   -5.9246    3.0134 H   0  0  0  0  0  0  0  0  0  0  0  0
    5.7739   -5.8800    1.3138 H   0  0  0  0  0  0  0  0  0  0  0  0
    4.2482   -6.4935    1.9182 H   0  0  0  0  0  0  0  0  0  0  0  0
    6.2081   -3.3461    2.7064 H   0  0  0  0  0  0  0  0  0  0  0  0
    6.3950   -2.3833    0.2534 H   0  0  0  0  0  0  0  0  0  0  0  0
    6.7358   -4.0558    0.4781 H   0  0  0  0  0  0  0  0  0  0  0  0
    4.3076   -5.3115   -1.4016 H   0  0  0  0  0  0  0  0  0  0  0  0
    6.5091   -3.5522   -2.2520 H   0  0  0  0  0  0  0  0  0  0  0  0
    6.4522   -1.8363   -1.7592 H   0  0  0  0  0  0  0  0  0  0  0  0
    5.8215   -2.3384   -3.2890 H   0  0  0  0  0  0  0  0  0  0  0  0
    4.1264   -4.2993   -3.1317 H   0  0  0  0  0  0  0  0  0  0  0  0
    2.6331   -3.7062   -2.3155 H   0  0  0  0  0  0  0  0  0  0  0  0
    2.3887   -2.7507   -4.3848 H   0  0  0  0  0  0  0  0  0  0  0  0
    4.1131   -2.8195   -4.6963 H   0  0  0  0  0  0  0  0  0  0  0  0
    4.3348   -1.7482    3.1669 H   0  0  0  0  0  0  0  0  0  0  0  0
    5.3423    0.0059    2.5772 H   0  0  0  0  0  0  0  0  0  0  0  0
  1  2  1  0
  1 22  1  0
  1 23  1  0
  1 24  1  0
  2 19  1  0
  2  3  2  0
  3  4  1  0
  3 25  1  0
  4 16  1  0
  4  5  1  0
  4 26  1  1
  5  6  1  0
  6 20  1  0
  6  7  1  0
  6 27  1  1
  7  8  1  0
  7 28  1  0
  7 29  1  0
  8 14  1  0
  8  9  1  0
  8 30  1  6
  9 10  1  0
  9 11  1  0
  9 12  1  0
 10 31  1  0
 10 32  1  0
 10 33  1  0
 11 34  1  0
 11 35  1  0
 11 36  1  0
 12 13  1  0
 12 20  1  0
 12 37  1  1
 13 14  1  0
 13 38  1  0
 13 39  1  0
 14 15  1  6
 14 16  1  0
 15 40  1  0
 16 17  1  6
 16 18  1  0
 17 41  1  0
 17 42  1  0
 17 43  1  0
 18 19  1  0
 18 44  1  0
 18 45  1  0
 19 46  1  0
 19 47  1  0
 20 21  1  0
 20 48  1  1
 21 49  1  0
M  END
>  <i_m_ct_stereo_status>  (119) 
1

>  <s_m_source_file>  (119) 
/var/tmp/pbs.5076255.sched01/tmpwzsktf0x/40k9schvjs.sdf

>  <i_m_source_file_index>  (119) 
15

>  <i_lp_mmshare_version>  (119) 
48012

>  <i_f3d_flags>  (119) 
0

>  <s_epik_input>  (119) 
W0NIM11DKD1bQ0hdMSlbQ0gyXVtDSDJdW0NAQF0yKFtDSDNdKVtDQEhdMU9bQ0BASF0oW0NIMl1bQ0BIXTNbQ0BAXTI0W09IXSlbQ0BIXShbT0hdKVtDQEhdKFtDSDJdNClDMyhbQ0gzXSlbQ0gzXQ==

>  <s_epik_cmdline>  (119) 
J2VwaWtfcHl0aG9uJywgJy1waHQnLCAnMi4wJywgJy1waCcsICc3LjAnLCAnLXRuJywgJzgnLCAnLW1hJywgJzIwMCcsICctaW1hZScsICc8aW5maWxlLm1hZT4nLCAnLW9tYWUnLCAnPG91dGZpbGUubWFlPic=

>  <r_lp_tautomer_probability>  (119) 
1

>  <r_epik_Ionization_Penalty>  (119) 
5.68725e-07

>  <r_epik_Ionization_Penalty_Charging>  (119) 
0

>  <r_epik_Ionization_Penalty_Neutral>  (119) 
5.68725e-07

>  <r_epik_State_Penalty>  (119) 
-0

>  <r_epik_Charging_Adjusted_Penalty>  (119) 
0

>  <i_epik_Tot_Q>  (119) 
0

>  <i_epik_Tot_abs_Q>  (119) 
0

>  <s_lp_Force_Field>  (119) 
OPLS3e

>  <r_lp_Energy>  (119) 
75.542

>  <b_lp_Chiralities_Consistent>  (119) 
1

>  <s_lp_Variant>  (119) 
40:0-1

>  <s_i_glide_gridfile>  (119) 
pfpi4k_grid

>  <i_i_glide_lignum>  (119) 
15

>  <i_i_glide_rotatable_bonds>  (119) 
2

>  <r_i_docking_score>  (119) 
-4.08919

>  <r_i_glide_ligand_efficiency>  (119) 
-0.194723

>  <r_i_glide_ligand_efficiency_sa>  (119) 
-0.537227

>  <r_i_glide_ligand_efficiency_ln>  (119) 
-1.01104

>  <r_i_glide_gscore>  (119) 
-4.08919

>  <r_i_glide_lipo>  (119) 
-0.761541

>  <r_i_glide_hbond>  (119) 
-0.32

>  <r_i_glide_metal>  (119) 
-0

>  <r_i_glide_rewards>  (119) 
-1.41537

>  <r_i_glide_evdw>  (119) 
-23.9462

>  <r_i_glide_ecoul>  (119) 
-2.63318

>  <r_i_glide_erotb>  (119) 
0

>  <r_i_glide_esite>  (119) 
0

>  <r_i_glide_emodel>  (119) 
-33.8039

>  <r_i_glide_energy>  (119) 
-26.5793

>  <r_i_glide_einternal>  (119) 
0.465568

>  <r_i_glide_intrahb_reward>  (119) 
-0

>  <i_i_glide_confnum>  (119) 
2

>  <i_i_glide_posenum>  (119) 
17

>  <r_i_glide_eff_state_penalty>  (119) 
0

>  <ligand_id>  (119) 
40

>  <original_smiles>  (119) 
CC1=CC2OC3CC4C(C)(C)C(CC4(O)C2(C)CC1)C3O

>  <smiles>  (119) 
[H]OC1([H])C2([H])OC3([H])C([H])=C(C([H])([H])[H])C([H])([H])C([H])([H])C3(C([H])([H])[H])C3(O[H])C([H])([H])C1([H])C(C([H])([H])[H])(C([H])([H])[H])C3([H])C2([H])[H]

$$$$
40:0:2
     RDKit          3D

 49 52  0  0  1  0  0  0  0  0999 V2000
    3.7328   -0.5073   -4.8016 C   0  0  0  0  0  0  0  0  0  0  0  0
    3.8230   -1.2647   -3.5200 C   0  0  0  0  0  0  0  0  0  0  0  0
    4.0534   -0.6410   -2.3431 C   0  0  0  0  0  0  0  0  0  0  0  0
    4.0186   -1.4286   -1.0488 C   0  0  2  0  0  0  0  0  0  0  0  0
    4.4231   -0.7332    0.1236 O   0  0  0  0  0  0  0  0  0  0  0  0
    3.7326   -1.0954    1.3469 C   0  0  1  0  0  0  0  0  0  0  0  0
    2.8386   -2.3781    1.2937 C   0  0  0  0  0  0  0  0  0  0  0  0
    3.6975   -3.6676    1.2332 C   0  0  2  0  0  0  0  0  0  0  0  0
    4.3963   -3.8351    2.6222 C   0  0  0  0  0  0  0  0  0  0  0  0
    3.5012   -3.6993    3.8886 C   0  0  0  0  0  0  0  0  0  0  0  0
    5.0680   -5.2264    2.8202 C   0  0  0  0  0  0  0  0  0  0  0  0
    5.4359   -2.7041    2.4633 C   0  0  1  0  0  0  0  0  0  0  0  0
    6.0472   -2.9952    1.0852 C   0  0  0  0  0  0  0  0  0  0  0  0
    4.8847   -3.5541    0.1979 C   0  0  1  0  0  0  0  0  0  0  0  0
    5.2402   -4.8774   -0.1607 O   0  0  0  0  0  0  0  0  0  0  0  0
    4.7351   -2.7758   -1.1866 C   0  0  2  0  0  0  0  0  0  0  0  0
    6.1585   -2.6050   -1.7830 C   0  0  0  0  0  0  0  0  0  0  0  0
    3.8817   -3.4987   -2.2490 C   0  0  0  0  0  0  0  0  0  0  0  0
    3.7210   -2.7721   -3.6065 C   0  0  0  0  0  0  0  0  0  0  0  0
    4.7877   -1.2892    2.4708 C   0  0  1  0  0  0  0  0  0  0  0  0
    5.7527   -0.2650    2.4593 O   0  0  0  0  0  0  0  0  0  0  0  0
    4.4899   -0.9366   -5.4605 H   0  0  0  0  0  0  0  0  0  0  0  0
    3.9367    0.5481   -4.6635 H   0  0  0  0  0  0  0  0  0  0  0  0
    2.7494   -0.5912   -5.2562 H   0  0  0  0  0  0  0  0  0  0  0  0
    4.1927    0.4128   -2.3168 H   0  0  0  0  0  0  0  0  0  0  0  0
    2.9531   -1.5611   -1.0299 H   0  0  0  0  0  0  0  0  0  0  0  0
    3.0942   -0.2462    1.5991 H   0  0  0  0  0  0  0  0  0  0  0  0
    2.1972   -2.3823    2.1673 H   0  0  0  0  0  0  0  0  0  0  0  0
    2.0819   -2.3807    0.5214 H   0  0  0  0  0  0  0  0  0  0  0  0
    3.0447   -4.5182    1.0200 H   0  0  0  0  0  0  0  0  0  0  0  0
    4.0788   -3.8832    4.7964 H   0  0  0  0  0  0  0  0  0  0  0  0
    2.6920   -4.4309    3.8721 H   0  0  0  0  0  0  0  0  0  0  0  0
    3.0429   -2.7263    4.0472 H   0  0  0  0  0  0  0  0  0  0  0  0
    5.5050   -5.3137    3.8151 H   0  0  0  0  0  0  0  0  0  0  0  0
    5.8856   -5.4529    2.1453 H   0  0  0  0  0  0  0  0  0  0  0  0
    4.3318   -6.0252    2.7254 H   0  0  0  0  0  0  0  0  0  0  0  0
    6.1849   -2.7488    3.2463 H   0  0  0  0  0  0  0  0  0  0  0  0
    6.5112   -2.0942    0.7067 H   0  0  0  0  0  0  0  0  0  0  0  0
    6.8613   -3.7157    1.1650 H   0  0  0  0  0  0  0  0  0  0  0  0
    5.2904   -5.3952    0.6365 H   0  0  0  0  0  0  0  0  0  0  0  0
    6.7817   -3.4893   -1.6487 H   0  0  0  0  0  0  0  0  0  0  0  0
    6.6707   -1.7498   -1.3495 H   0  0  0  0  0  0  0  0  0  0  0  0
    6.1448   -2.4265   -2.8525 H   0  0  0  0  0  0  0  0  0  0  0  0
    4.3382   -4.4626   -2.4502 H   0  0  0  0  0  0  0  0  0  0  0  0
    2.8868   -3.7008   -1.8465 H   0  0  0  0  0  0  0  0  0  0  0  0
    2.7883   -3.0672   -4.0844 H   0  0  0  0  0  0  0  0  0  0  0  0
    4.5170   -3.1163   -4.2660 H   0  0  0  0  0  0  0  0  0  0  0  0
    4.2863   -1.1423    3.4275 H   0  0  0  0  0  0  0  0  0  0  0  0
    6.2874   -0.3685    1.6762 H   0  0  0  0  0  0  0  0  0  0  0  0
  1  2  1  0
  1 22  1  0
  1 23  1  0
  1 24  1  0
  2 19  1  0
  2  3  2  0
  3  4  1  0
  3 25  1  0
  4 16  1  0
  4  5  1  0
  4 26  1  1
  5  6  1  0
  6 20  1  0
  6  7  1  0
  6 27  1  1
  7  8  1  0
  7 28  1  0
  7 29  1  0
  8 14  1  0
  8  9  1  0
  8 30  1  6
  9 10  1  0
  9 11  1  0
  9 12  1  0
 10 31  1  0
 10 32  1  0
 10 33  1  0
 11 34  1  0
 11 35  1  0
 11 36  1  0
 12 13  1  0
 12 20  1  0
 12 37  1  1
 13 14  1  0
 13 38  1  0
 13 39  1  0
 14 15  1  6
 14 16  1  0
 15 40  1  0
 16 17  1  6
 16 18  1  0
 17 41  1  0
 17 42  1  0
 17 43  1  0
 18 19  1  0
 18 44  1  0
 18 45  1  0
 19 46  1  0
 19 47  1  0
 20 21  1  0
 20 48  1  1
 21 49  1  0
M  END
>  <i_m_ct_stereo_status>  (120) 
1

>  <s_m_source_file>  (120) 
/var/tmp/pbs.5076255.sched01/tmpwzsktf0x/40k9schvjs.sdf

>  <i_m_source_file_index>  (120) 
15

>  <i_lp_mmshare_version>  (120) 
48012

>  <i_f3d_flags>  (120) 
0

>  <s_epik_input>  (120) 
W0NIM11DKD1bQ0hdMSlbQ0gyXVtDSDJdW0NAQF0yKFtDSDNdKVtDQEhdMU9bQ0BASF0oW0NIMl1bQ0BIXTNbQ0BAXTI0W09IXSlbQ0BIXShbT0hdKVtDQEhdKFtDSDJdNClDMyhbQ0gzXSlbQ0gzXQ==

>  <s_epik_cmdline>  (120) 
J2VwaWtfcHl0aG9uJywgJy1waHQnLCAnMi4wJywgJy1waCcsICc3LjAnLCAnLXRuJywgJzgnLCAnLW1hJywgJzIwMCcsICctaW1hZScsICc8aW5maWxlLm1hZT4nLCAnLW9tYWUnLCAnPG91dGZpbGUubWFlPic=

>  <r_lp_tautomer_probability>  (120) 
1

>  <r_epik_Ionization_Penalty>  (120) 
5.68725e-07

>  <r_epik_Ionization_Penalty_Charging>  (120) 
0

>  <r_epik_Ionization_Penalty_Neutral>  (120) 
5.68725e-07

>  <r_epik_State_Penalty>  (120) 
-0

>  <r_epik_Charging_Adjusted_Penalty>  (120) 
0

>  <i_epik_Tot_Q>  (120) 
0

>  <i_epik_Tot_abs_Q>  (120) 
0

>  <s_lp_Force_Field>  (120) 
OPLS3e

>  <r_lp_Energy>  (120) 
75.542

>  <b_lp_Chiralities_Consistent>  (120) 
1

>  <s_lp_Variant>  (120) 
40:0-1

>  <s_i_glide_gridfile>  (120) 
pfpi4k_grid

>  <i_i_glide_lignum>  (120) 
15

>  <i_i_glide_rotatable_bonds>  (120) 
2

>  <r_i_docking_score>  (120) 
-3.63981

>  <r_i_glide_ligand_efficiency>  (120) 
-0.173324

>  <r_i_glide_ligand_efficiency_sa>  (120) 
-0.478189

>  <r_i_glide_ligand_efficiency_ln>  (120) 
-0.899936

>  <r_i_glide_gscore>  (120) 
-3.63981

>  <r_i_glide_lipo>  (120) 
-0.928171

>  <r_i_glide_hbond>  (120) 
0

>  <r_i_glide_metal>  (120) 
-0

>  <r_i_glide_rewards>  (120) 
-1.41537

>  <r_i_glide_evdw>  (120) 
-22.233

>  <r_i_glide_ecoul>  (120) 
-1.23085

>  <r_i_glide_erotb>  (120) 
0

>  <r_i_glide_esite>  (120) 
0

>  <r_i_glide_emodel>  (120) 
-30.3102

>  <r_i_glide_energy>  (120) 
-23.4638

>  <r_i_glide_einternal>  (120) 
0.098983

>  <r_i_glide_intrahb_reward>  (120) 
-0

>  <i_i_glide_confnum>  (120) 
1

>  <i_i_glide_posenum>  (120) 
29

>  <r_i_glide_eff_state_penalty>  (120) 
0

>  <ligand_id>  (120) 
40

>  <original_smiles>  (120) 
CC1=CC2OC3CC4C(C)(C)C(CC4(O)C2(C)CC1)C3O

>  <smiles>  (120) 
[H]OC1([H])C2([H])OC3([H])C([H])=C(C([H])([H])[H])C([H])([H])C([H])([H])C3(C([H])([H])[H])C3(O[H])C([H])([H])C1([H])C(C([H])([H])[H])(C([H])([H])[H])C3([H])C2([H])[H]

$$$$
42:0:0
     RDKit          3D

 68 72  0  0  1  0  0  0  0  0999 V2000
    5.4111   -2.1382   -2.6277 C   0  0  0  0  0  0  0  0  0  0  0  0
    4.0209   -1.5033   -2.6774 C   0  0  0  0  0  0  0  0  0  0  0  0
    4.0273   -0.1619   -3.4151 C   0  0  0  0  0  0  0  0  0  0  0  0
    3.1125   -2.4587   -3.4178 C   0  0  0  0  0  0  0  0  0  0  0  0
    2.8016   -3.4544   -2.3416 C   0  0  0  0  0  0  0  0  0  0  0  0
    2.7634   -2.7675   -1.0060 C   0  0  2  0  0  0  0  0  0  0  0  0
    3.4099   -1.3996   -1.2669 C   0  0  1  0  0  0  0  0  0  0  0  0
    4.3042   -1.0931   -0.0201 C   0  0  0  0  0  0  0  0  0  0  0  0
    3.7694   -2.0848    1.0496 C   0  0  2  0  0  0  0  0  0  0  0  0
    2.4589   -1.5221    1.6693 C   0  0  0  0  0  0  0  0  0  0  0  0
    2.7131   -0.4888    2.7444 C   0  0  0  0  0  0  0  0  0  0  0  0
    3.4087   -1.1182    3.9764 C   0  0  2  0  0  0  0  0  0  0  0  0
    3.5169   -0.0772    5.1719 C   0  0  0  0  0  0  0  0  0  0  0  0
    2.1710    0.6643    5.3802 C   0  0  0  0  0  0  0  0  0  0  0  0
    3.8031   -0.7741    6.5367 C   0  0  0  0  0  0  0  0  0  0  0  0
    4.6160    0.9728    4.8509 C   0  0  1  0  0  0  0  0  0  0  0  0
    4.8352    1.8612    5.9336 O   0  0  0  0  0  0  0  0  0  0  0  0
    5.9501    0.3240    4.4369 C   0  0  0  0  0  0  0  0  0  0  0  0
    5.7668   -0.6413    3.2397 C   0  0  0  0  0  0  0  0  0  0  0  0
    4.7570   -1.8023    3.5131 C   0  0  1  0  0  0  0  0  0  0  0  0
    5.2600   -2.7389    4.6704 C   0  0  0  0  0  0  0  0  0  0  0  0
    4.6201   -2.7036    2.1936 C   0  0  2  0  0  0  0  0  0  0  0  0
    6.0222   -3.1154    1.6610 C   0  0  0  0  0  0  0  0  0  0  0  0
    3.8341   -4.0427    2.4319 C   0  0  0  0  0  0  0  0  0  0  0  0
    3.0960   -4.4141    1.1148 C   0  0  0  0  0  0  0  0  0  0  0  0
    3.5443   -3.3098    0.1620 C   0  0  1  0  0  0  0  0  0  0  0  0
    5.7147   -2.4144   -3.6339 H   0  0  0  0  0  0  0  0  0  0  0  0
    5.4838   -3.0312   -2.0222 H   0  0  0  0  0  0  0  0  0  0  0  0
    6.1457   -1.4212   -2.2448 H   0  0  0  0  0  0  0  0  0  0  0  0
    3.0096    0.2287   -3.5277 H   0  0  0  0  0  0  0  0  0  0  0  0
    4.4424   -0.2690   -4.4213 H   0  0  0  0  0  0  0  0  0  0  0  0
    4.6145    0.5850   -2.8679 H   0  0  0  0  0  0  0  0  0  0  0  0
    2.2225   -1.9711   -3.7970 H   0  0  0  0  0  0  0  0  0  0  0  0
    3.5912   -2.9243   -4.2615 H   0  0  0  0  0  0  0  0  0  0  0  0
    1.8674   -3.9583   -2.5641 H   0  0  0  0  0  0  0  0  0  0  0  0
    3.5755   -4.2380   -2.3486 H   0  0  0  0  0  0  0  0  0  0  0  0
    1.7535   -2.6675   -0.7016 H   0  0  0  0  0  0  0  0  0  0  0  0
    2.6127   -0.6626   -1.3212 H   0  0  0  0  0  0  0  0  0  0  0  0
    5.3634   -1.2759   -0.2106 H   0  0  0  0  0  0  0  0  0  0  0  0
    4.2256   -0.0456    0.2857 H   0  0  0  0  0  0  0  0  0  0  0  0
    1.8575   -1.0396    0.9073 H   0  0  0  0  0  0  0  0  0  0  0  0
    1.8299   -2.3078    2.0896 H   0  0  0  0  0  0  0  0  0  0  0  0
    3.2848    0.3421    2.3372 H   0  0  0  0  0  0  0  0  0  0  0  0
    1.7384   -0.0881    2.9982 H   0  0  0  0  0  0  0  0  0  0  0  0
    2.7330   -1.9033    4.3227 H   0  0  0  0  0  0  0  0  0  0  0  0
    2.1607    1.2386    6.3080 H   0  0  0  0  0  0  0  0  0  0  0  0
    1.3382   -0.0400    5.4152 H   0  0  0  0  0  0  0  0  0  0  0  0
    1.9820    1.3880    4.5811 H   0  0  0  0  0  0  0  0  0  0  0  0
    3.5374   -0.1348    7.3783 H   0  0  0  0  0  0  0  0  0  0  0  0
    4.8528   -1.0138    6.6807 H   0  0  0  0  0  0  0  0  0  0  0  0
    3.2214   -1.6915    6.6399 H   0  0  0  0  0  0  0  0  0  0  0  0
    4.2720    1.5919    4.0195 H   0  0  0  0  0  0  0  0  0  0  0  0
    5.1180    1.3545    6.6766 H   0  0  0  0  0  0  0  0  0  0  0  0
    6.6786    1.0758    4.1433 H   0  0  0  0  0  0  0  0  0  0  0  0
    6.4157   -0.1613    5.2937 H   0  0  0  0  0  0  0  0  0  0  0  0
    5.4193   -0.0506    2.3906 H   0  0  0  0  0  0  0  0  0  0  0  0
    6.7291   -1.0077    2.8934 H   0  0  0  0  0  0  0  0  0  0  0  0
    5.7927   -3.6189    4.3352 H   0  0  0  0  0  0  0  0  0  0  0  0
    4.4368   -3.1445    5.2564 H   0  0  0  0  0  0  0  0  0  0  0  0
    5.9446   -2.2443    5.3543 H   0  0  0  0  0  0  0  0  0  0  0  0
    6.5888   -3.4950    2.4893 H   0  0  0  0  0  0  0  0  0  0  0  0
    6.5833   -2.3016    1.2001 H   0  0  0  0  0  0  0  0  0  0  0  0
    6.0315   -3.9456    0.9579 H   0  0  0  0  0  0  0  0  0  0  0  0
    4.4966   -4.8532    2.7524 H   0  0  0  0  0  0  0  0  0  0  0  0
    3.1031   -3.9275    3.2337 H   0  0  0  0  0  0  0  0  0  0  0  0
    3.3832   -5.3954    0.7512 H   0  0  0  0  0  0  0  0  0  0  0  0
    2.0207   -4.4159    1.2692 H   0  0  0  0  0  0  0  0  0  0  0  0
    4.4770   -3.6588   -0.2723 H   0  0  0  0  0  0  0  0  0  0  0  0
  1  2  1  0
  1 27  1  0
  1 28  1  0
  1 29  1  0
  2  7  1  0
  2  3  1  0
  2  4  1  0
  3 30  1  0
  3 31  1  0
  3 32  1  0
  4  5  1  0
  4 33  1  0
  4 34  1  0
  5  6  1  0
  5 35  1  0
  5 36  1  0
  6 26  1  0
  6  7  1  0
  6 37  1  1
  7  8  1  0
  7 38  1  6
  9  8  1  6
  8 39  1  0
  8 40  1  0
  9 22  1  0
  9 26  1  0
  9 10  1  0
 10 11  1  0
 10 41  1  0
 10 42  1  0
 11 12  1  0
 11 43  1  0
 11 44  1  0
 12 20  1  0
 12 13  1  0
 12 45  1  1
 13 14  1  0
 13 15  1  0
 13 16  1  0
 14 46  1  0
 14 47  1  0
 14 48  1  0
 15 49  1  0
 15 50  1  0
 15 51  1  0
 16 17  1  0
 16 18  1  0
 16 52  1  6
 17 53  1  0
 18 19  1  0
 18 54  1  0
 18 55  1  0
 19 20  1  0
 19 56  1  0
 19 57  1  0
 20 21  1  1
 20 22  1  0
 21 58  1  0
 21 59  1  0
 21 60  1  0
 22 23  1  6
 22 24  1  0
 23 61  1  0
 23 62  1  0
 23 63  1  0
 24 25  1  0
 24 64  1  0
 24 65  1  0
 25 26  1  0
 25 66  1  0
 25 67  1  0
 26 68  1  6
M  END
>  <i_m_ct_stereo_status>  (121) 
1

>  <s_m_source_file>  (121) 
/var/tmp/pbs.5076255.sched01/tmpwzsktf0x/40k9schvjs.sdf

>  <i_m_source_file_index>  (121) 
17

>  <i_lp_mmshare_version>  (121) 
48012

>  <i_f3d_flags>  (121) 
0

>  <s_epik_input>  (121) 
W0NIMl0xW0NIMl1DKFtDSDNdKShbQ0gzXSlbQ0BIXShbQ0gyXTIpW0NAQEhdMVtDQEBIXTNbQ0gyXVtDSDJdW0NAXShbQ0BAXTIzNCkoW0NIM10pW0NAXTUoW0NIM10pW0NASF0oW0NIMl1bQ0gyXTQpQyhbQ0gzXSkoW0NIM10pW0NAQEhdKFtPSF0pW0NIMl1bQ0gyXTU=

>  <s_epik_cmdline>  (121) 
J2VwaWtfcHl0aG9uJywgJy1waHQnLCAnMi4wJywgJy1waCcsICc3LjAnLCAnLXRuJywgJzgnLCAnLW1hJywgJzIwMCcsICctaW1hZScsICc8aW5maWxlLm1hZT4nLCAnLW9tYWUnLCAnPG91dGZpbGUubWFlPic=

>  <r_lp_tautomer_probability>  (121) 
1

>  <r_epik_Ionization_Penalty>  (121) 
3.18206e-06

>  <r_epik_Ionization_Penalty_Charging>  (121) 
0

>  <r_epik_Ionization_Penalty_Neutral>  (121) 
3.18206e-06

>  <r_epik_State_Penalty>  (121) 
-0

>  <r_epik_Charging_Adjusted_Penalty>  (121) 
0

>  <i_epik_Tot_Q>  (121) 
0

>  <i_epik_Tot_abs_Q>  (121) 
0

>  <s_lp_Force_Field>  (121) 
OPLS3e

>  <r_lp_Energy>  (121) 
78.2536

>  <b_lp_Chiralities_Consistent>  (121) 
1

>  <s_lp_Variant>  (121) 
42:0-1

>  <s_i_glide_gridfile>  (121) 
pfpi4k_grid

>  <i_i_glide_lignum>  (121) 
17

>  <i_i_glide_rotatable_bonds>  (121) 
1

>  <r_i_docking_score>  (121) 
-2.48173

>  <r_i_glide_ligand_efficiency>  (121) 
-0.095451

>  <r_i_glide_ligand_efficiency_sa>  (121) 
-0.282773

>  <r_i_glide_ligand_efficiency_ln>  (121) 
-0.582825

>  <r_i_glide_gscore>  (121) 
-2.48173

>  <r_i_glide_lipo>  (121) 
-0.88223

>  <r_i_glide_hbond>  (121) 
0

>  <r_i_glide_metal>  (121) 
-0

>  <r_i_glide_rewards>  (121) 
-0.964088

>  <r_i_glide_evdw>  (121) 
-10.4027

>  <r_i_glide_ecoul>  (121) 
-0.76849

>  <r_i_glide_erotb>  (121) 
0

>  <r_i_glide_esite>  (121) 
0

>  <r_i_glide_emodel>  (121) 
-13.5634

>  <r_i_glide_energy>  (121) 
-11.1712

>  <r_i_glide_einternal>  (121) 
0.00113106

>  <r_i_glide_intrahb_reward>  (121) 
-0

>  <i_i_glide_confnum>  (121) 
2

>  <i_i_glide_posenum>  (121) 
39

>  <r_i_glide_eff_state_penalty>  (121) 
0

>  <ligand_id>  (121) 
42

>  <original_smiles>  (121) 
CC1(C)CCC2C1CC13CCC4C(C)(C)C(O)CCC4(C)C1(C)CCC23

>  <smiles>  (121) 
[H]OC1([H])C([H])([H])C([H])([H])C2(C([H])([H])[H])C([H])(C([H])([H])C([H])([H])C34C([H])([H])C5([H])C([H])(C([H])([H])C([H])([H])C5(C([H])([H])[H])C([H])([H])[H])C3([H])C([H])([H])C([H])([H])C24C([H])([H])[H])C1(C([H])([H])[H])C([H])([H])[H]

$$$$
42:0:1
     RDKit          3D

 68 72  0  0  1  0  0  0  0  0999 V2000
    6.6573   -4.0031    0.9807 C   0  0  0  0  0  0  0  0  0  0  0  0
    5.7708   -3.2490   -0.0349 C   0  0  0  0  0  0  0  0  0  0  0  0
    6.6861   -2.4332   -0.9616 C   0  0  0  0  0  0  0  0  0  0  0  0
    4.9405   -4.2676   -0.8306 C   0  0  0  0  0  0  0  0  0  0  0  0
    3.7167   -4.5786    0.0313 C   0  0  0  0  0  0  0  0  0  0  0  0
    3.3957   -3.2598    0.7398 C   0  0  2  0  0  0  0  0  0  0  0  0
    4.6552   -2.3666    0.5965 C   0  0  1  0  0  0  0  0  0  0  0  0
    4.9055   -1.6890    1.9842 C   0  0  0  0  0  0  0  0  0  0  0  0
    3.5718   -1.8985    2.7436 C   0  0  2  0  0  0  0  0  0  0  0  0
    2.5328   -0.8552    2.2413 C   0  0  0  0  0  0  0  0  0  0  0  0
    2.6904    0.4831    2.9373 C   0  0  0  0  0  0  0  0  0  0  0  0
    2.3913    0.3884    4.4551 C   0  0  2  0  0  0  0  0  0  0  0  0
    2.3790    1.8232    5.1338 C   0  0  0  0  0  0  0  0  0  0  0  0
    1.5730    2.8367    4.2751 C   0  0  0  0  0  0  0  0  0  0  0  0
    1.6649    1.8177    6.5135 C   0  0  0  0  0  0  0  0  0  0  0  0
    3.8359    2.3444    5.2562 C   0  0  1  0  0  0  0  0  0  0  0  0
    3.8855    3.5622    5.9745 O   0  0  0  0  0  0  0  0  0  0  0  0
    4.7869    1.3455    5.9282 C   0  0  0  0  0  0  0  0  0  0  0  0
    4.7589   -0.0420    5.2648 C   0  0  0  0  0  0  0  0  0  0  0  0
    3.3434   -0.6884    5.1308 C   0  0  1  0  0  0  0  0  0  0  0  0
    2.8011   -1.0499    6.5479 C   0  0  0  0  0  0  0  0  0  0  0  0
    3.4508   -2.0594    4.3033 C   0  0  2  0  0  0  0  0  0  0  0  0
    4.6080   -2.9468    4.8836 C   0  0  0  0  0  0  0  0  0  0  0  0
    2.1384   -2.9245    4.3609 C   0  0  0  0  0  0  0  0  0  0  0  0
    1.9937   -3.7074    3.0267 C   0  0  0  0  0  0  0  0  0  0  0  0
    3.2464   -3.3070    2.2578 C   0  0  1  0  0  0  0  0  0  0  0  0
    7.2943   -4.7328    0.4812 H   0  0  0  0  0  0  0  0  0  0  0  0
    6.0690   -4.5428    1.7223 H   0  0  0  0  0  0  0  0  0  0  0  0
    7.3235   -3.3249    1.5131 H   0  0  0  0  0  0  0  0  0  0  0  0
    6.1216   -1.9197   -1.7411 H   0  0  0  0  0  0  0  0  0  0  0  0
    7.4201   -3.0677   -1.4589 H   0  0  0  0  0  0  0  0  0  0  0  0
    7.2323   -1.6822   -0.3918 H   0  0  0  0  0  0  0  0  0  0  0  0
    4.6126   -3.8295   -1.7744 H   0  0  0  0  0  0  0  0  0  0  0  0
    5.4859   -5.1738   -1.0811 H   0  0  0  0  0  0  0  0  0  0  0  0
    2.8837   -4.9249   -0.5804 H   0  0  0  0  0  0  0  0  0  0  0  0
    3.9580   -5.3721    0.7394 H   0  0  0  0  0  0  0  0  0  0  0  0
    2.5379   -2.7797    0.2665 H   0  0  0  0  0  0  0  0  0  0  0  0
    4.3912   -1.5873   -0.1216 H   0  0  0  0  0  0  0  0  0  0  0  0
    5.7289   -2.1565    2.5129 H   0  0  0  0  0  0  0  0  0  0  0  0
    5.1670   -0.6388    1.8667 H   0  0  0  0  0  0  0  0  0  0  0  0
    2.6201   -0.6827    1.1704 H   0  0  0  0  0  0  0  0  0  0  0  0
    1.5069   -1.1895    2.3901 H   0  0  0  0  0  0  0  0  0  0  0  0
    3.6838    0.8890    2.7499 H   0  0  0  0  0  0  0  0  0  0  0  0
    1.9945    1.1537    2.4363 H   0  0  0  0  0  0  0  0  0  0  0  0
    1.3661    0.0187    4.5235 H   0  0  0  0  0  0  0  0  0  0  0  0
    1.3916    3.7690    4.8107 H   0  0  0  0  0  0  0  0  0  0  0  0
    0.5980    2.4302    3.9945 H   0  0  0  0  0  0  0  0  0  0  0  0
    2.1028    3.1217    3.3645 H   0  0  0  0  0  0  0  0  0  0  0  0
    1.3616    2.8218    6.8125 H   0  0  0  0  0  0  0  0  0  0  0  0
    2.3003    1.4690    7.3230 H   0  0  0  0  0  0  0  0  0  0  0  0
    0.7590    1.2130    6.4940 H   0  0  0  0  0  0  0  0  0  0  0  0
    4.2125    2.5477    4.2555 H   0  0  0  0  0  0  0  0  0  0  0  0
    4.7705    3.8921    5.9462 H   0  0  0  0  0  0  0  0  0  0  0  0
    5.8036    1.7349    5.8864 H   0  0  0  0  0  0  0  0  0  0  0  0
    4.5576    1.2673    6.9892 H   0  0  0  0  0  0  0  0  0  0  0  0
    5.2173    0.0463    4.2812 H   0  0  0  0  0  0  0  0  0  0  0  0
    5.4255   -0.6797    5.8433 H   0  0  0  0  0  0  0  0  0  0  0  0
    3.0037   -2.0706    6.8615 H   0  0  0  0  0  0  0  0  0  0  0  0
    1.7166   -0.9582    6.5988 H   0  0  0  0  0  0  0  0  0  0  0  0
    3.2308   -0.4382    7.3350 H   0  0  0  0  0  0  0  0  0  0  0  0
    4.6201   -2.9880    5.9668 H   0  0  0  0  0  0  0  0  0  0  0  0
    5.5914   -2.5876    4.5962 H   0  0  0  0  0  0  0  0  0  0  0  0
    4.5435   -3.9897    4.5825 H   0  0  0  0  0  0  0  0  0  0  0  0
    2.1342   -3.6025    5.2141 H   0  0  0  0  0  0  0  0  0  0  0  0
    1.2587   -2.2936    4.4817 H   0  0  0  0  0  0  0  0  0  0  0  0
    1.9540   -4.7857    3.1860 H   0  0  0  0  0  0  0  0  0  0  0  0
    1.0899   -3.4101    2.4969 H   0  0  0  0  0  0  0  0  0  0  0  0
    4.0262   -3.9948    2.5813 H   0  0  0  0  0  0  0  0  0  0  0  0
  1  2  1  0
  1 27  1  0
  1 28  1  0
  1 29  1  0
  2  7  1  0
  2  3  1  0
  2  4  1  0
  3 30  1  0
  3 31  1  0
  3 32  1  0
  4  5  1  0
  4 33  1  0
  4 34  1  0
  5  6  1  0
  5 35  1  0
  5 36  1  0
  6 26  1  0
  6  7  1  0
  6 37  1  6
  7  8  1  0
  7 38  1  6
  9  8  1  1
  8 39  1  0
  8 40  1  0
  9 22  1  0
  9 26  1  0
  9 10  1  0
 10 11  1  0
 10 41  1  0
 10 42  1  0
 11 12  1  0
 11 43  1  0
 11 44  1  0
 12 20  1  0
 12 13  1  0
 12 45  1  6
 13 14  1  0
 13 15  1  0
 13 16  1  0
 14 46  1  0
 14 47  1  0
 14 48  1  0
 15 49  1  0
 15 50  1  0
 15 51  1  0
 16 17  1  0
 16 18  1  0
 16 52  1  6
 17 53  1  0
 18 19  1  0
 18 54  1  0
 18 55  1  0
 19 20  1  0
 19 56  1  0
 19 57  1  0
 20 21  1  1
 20 22  1  0
 21 58  1  0
 21 59  1  0
 21 60  1  0
 22 23  1  1
 22 24  1  0
 23 61  1  0
 23 62  1  0
 23 63  1  0
 24 25  1  0
 24 64  1  0
 24 65  1  0
 25 26  1  0
 25 66  1  0
 25 67  1  0
 26 68  1  1
M  END
>  <i_m_ct_stereo_status>  (122) 
1

>  <s_m_source_file>  (122) 
/var/tmp/pbs.5076255.sched01/tmpwzsktf0x/40k9schvjs.sdf

>  <i_m_source_file_index>  (122) 
17

>  <i_lp_mmshare_version>  (122) 
48012

>  <i_f3d_flags>  (122) 
0

>  <s_epik_input>  (122) 
W0NIMl0xW0NIMl1DKFtDSDNdKShbQ0gzXSlbQ0BIXShbQ0gyXTIpW0NAQEhdMVtDQEBIXTNbQ0gyXVtDSDJdW0NAXShbQ0BAXTIzNCkoW0NIM10pW0NAXTUoW0NIM10pW0NASF0oW0NIMl1bQ0gyXTQpQyhbQ0gzXSkoW0NIM10pW0NAQEhdKFtPSF0pW0NIMl1bQ0gyXTU=

>  <s_epik_cmdline>  (122) 
J2VwaWtfcHl0aG9uJywgJy1waHQnLCAnMi4wJywgJy1waCcsICc3LjAnLCAnLXRuJywgJzgnLCAnLW1hJywgJzIwMCcsICctaW1hZScsICc8aW5maWxlLm1hZT4nLCAnLW9tYWUnLCAnPG91dGZpbGUubWFlPic=

>  <r_lp_tautomer_probability>  (122) 
1

>  <r_epik_Ionization_Penalty>  (122) 
3.18206e-06

>  <r_epik_Ionization_Penalty_Charging>  (122) 
0

>  <r_epik_Ionization_Penalty_Neutral>  (122) 
3.18206e-06

>  <r_epik_State_Penalty>  (122) 
-0

>  <r_epik_Charging_Adjusted_Penalty>  (122) 
0

>  <i_epik_Tot_Q>  (122) 
0

>  <i_epik_Tot_abs_Q>  (122) 
0

>  <s_lp_Force_Field>  (122) 
OPLS3e

>  <r_lp_Energy>  (122) 
78.2536

>  <b_lp_Chiralities_Consistent>  (122) 
1

>  <s_lp_Variant>  (122) 
42:0-1

>  <s_i_glide_gridfile>  (122) 
pfpi4k_grid

>  <i_i_glide_lignum>  (122) 
17

>  <i_i_glide_rotatable_bonds>  (122) 
1

>  <r_i_docking_score>  (122) 
-2.39275

>  <r_i_glide_ligand_efficiency>  (122) 
-0.0920287

>  <r_i_glide_ligand_efficiency_sa>  (122) 
-0.272635

>  <r_i_glide_ligand_efficiency_ln>  (122) 
-0.561928

>  <r_i_glide_gscore>  (122) 
-2.39275

>  <r_i_glide_lipo>  (122) 
-0.290053

>  <r_i_glide_hbond>  (122) 
0

>  <r_i_glide_metal>  (122) 
-0

>  <r_i_glide_rewards>  (122) 
-0.964088

>  <r_i_glide_evdw>  (122) 
-21.4626

>  <r_i_glide_ecoul>  (122) 
-0.436483

>  <r_i_glide_erotb>  (122) 
0

>  <r_i_glide_esite>  (122) 
0

>  <r_i_glide_emodel>  (122) 
-24.803

>  <r_i_glide_energy>  (122) 
-21.8991

>  <r_i_glide_einternal>  (122) 
0.328897

>  <r_i_glide_intrahb_reward>  (122) 
-0

>  <i_i_glide_confnum>  (122) 
2

>  <i_i_glide_posenum>  (122) 
38

>  <r_i_glide_eff_state_penalty>  (122) 
0

>  <ligand_id>  (122) 
42

>  <original_smiles>  (122) 
CC1(C)CCC2C1CC13CCC4C(C)(C)C(O)CCC4(C)C1(C)CCC23

>  <smiles>  (122) 
[H]OC1([H])C([H])([H])C([H])([H])C2(C([H])([H])[H])C([H])(C([H])([H])C([H])([H])C34C([H])([H])C5([H])C([H])(C([H])([H])C([H])([H])C5(C([H])([H])[H])C([H])([H])[H])C3([H])C([H])([H])C([H])([H])C24C([H])([H])[H])C1(C([H])([H])[H])C([H])([H])[H]

$$$$
43:0:0
     RDKit          3D

 49 49  0  0  1  0  0  0  0  0999 V2000
   -3.6762    3.1101    2.4222 C   0  0  0  0  0  0  0  0  0  0  0  0
   -2.3399    3.7010    2.8881 C   0  0  0  0  0  0  0  0  0  0  0  0
   -2.1923    4.9138    2.9560 O   0  0  0  0  0  0  0  0  0  0  0  0
   -1.3943    2.8063    3.2223 O   0  0  0  0  0  0  0  0  0  0  0  0
   -1.5271    1.4219    2.9678 C   0  0  0  0  0  0  0  0  0  0  0  0
   -0.1640    0.7630    2.9074 C   0  0  0  0  0  0  0  0  0  0  0  0
    0.7299    1.1099    1.9773 C   0  0  0  0  0  0  0  0  0  0  0  0
    2.0157    0.4452    1.8819 C   0  0  0  0  0  0  0  0  0  0  0  0
    2.2950   -0.6491    2.5920 C   0  0  0  0  0  0  0  0  0  0  0  0
    3.6236   -1.3946    2.4337 C   0  0  0  0  0  0  0  0  0  0  0  0
    4.0080   -1.5107    1.0728 O   0  0  0  0  0  0  0  0  0  0  0  0
    3.5213   -2.4967    0.3005 C   0  0  0  0  0  0  0  0  0  0  0  0
    2.7880   -3.4183    0.6973 O   0  0  0  0  0  0  0  0  0  0  0  0
    3.9611   -2.3157   -0.9865 N   0  0  0  0  0  0  0  0  0  0  0  0
    3.6441   -3.2350   -2.0754 C   0  0  0  0  0  0  0  0  0  0  0  0
    4.4865   -2.9594   -3.3259 C   0  0  0  0  0  0  0  0  0  0  0  0
    4.2393   -1.7411   -3.8083 F   0  0  0  0  0  0  0  0  0  0  0  0
    5.7795   -3.0523   -3.0280 F   0  0  0  0  0  0  0  0  0  0  0  0
    4.2046   -3.8533   -4.2707 F   0  0  0  0  0  0  0  0  0  0  0  0
    1.2863   -1.2716    3.5571 C   0  0  1  0  0  0  0  0  0  0  0  0
    1.9217   -1.7712    4.7297 O   0  0  0  0  0  0  0  0  0  0  0  0
    1.4590   -2.8030    5.4758 C   0  0  0  0  0  0  0  0  0  0  0  0
    0.2374   -3.5427    4.9182 C   0  0  0  0  0  0  0  0  0  0  0  0
    1.9602   -3.1540    6.5368 O   0  0  0  0  0  0  0  0  0  0  0  0
    0.0851   -0.3414    3.9131 C   0  0  1  0  0  0  0  0  0  0  0  0
    0.2818    0.2674    5.1804 O   0  0  0  0  0  0  0  0  0  0  0  0
   -0.6682    0.2610    6.1330 C   0  0  0  0  0  0  0  0  0  0  0  0
   -0.2085    0.9930    7.3786 C   0  0  0  0  0  0  0  0  0  0  0  0
   -1.7802   -0.2649    6.0734 O   0  0  0  0  0  0  0  0  0  0  0  0
   -4.1223    2.5431    3.2387 H   0  0  0  0  0  0  0  0  0  0  0  0
   -3.5566    2.4601    1.5514 H   0  0  0  0  0  0  0  0  0  0  0  0
   -4.3788    3.9018    2.1496 H   0  0  0  0  0  0  0  0  0  0  0  0
   -2.1566    0.9704    3.7365 H   0  0  0  0  0  0  0  0  0  0  0  0
   -1.9621    1.2290    1.9905 H   0  0  0  0  0  0  0  0  0  0  0  0
    0.4760    1.8693    1.2668 H   0  0  0  0  0  0  0  0  0  0  0  0
    2.7340    0.8426    1.1798 H   0  0  0  0  0  0  0  0  0  0  0  0
    4.3674   -0.8231    2.9786 H   0  0  0  0  0  0  0  0  0  0  0  0
    3.5826   -2.3855    2.8849 H   0  0  0  0  0  0  0  0  0  0  0  0
    4.5027   -1.4787   -1.1758 H   0  0  0  0  0  0  0  0  0  0  0  0
    3.8204   -4.2571   -1.7461 H   0  0  0  0  0  0  0  0  0  0  0  0
    2.5817   -3.1515   -2.3246 H   0  0  0  0  0  0  0  0  0  0  0  0
    0.9114   -2.0861    2.9459 H   0  0  0  0  0  0  0  0  0  0  0  0
   -0.6147   -2.8712    4.8133 H   0  0  0  0  0  0  0  0  0  0  0  0
   -0.0742   -4.3484    5.5928 H   0  0  0  0  0  0  0  0  0  0  0  0
    0.4682   -3.9877    3.9496 H   0  0  0  0  0  0  0  0  0  0  0  0
   -0.8138   -0.9554    3.9050 H   0  0  0  0  0  0  0  0  0  0  0  0
    0.6926    0.5165    7.7578 H   0  0  0  0  0  0  0  0  0  0  0  0
   -0.9766    0.9787    8.1483 H   0  0  0  0  0  0  0  0  0  0  0  0
    0.0240    2.0233    7.1209 H   0  0  0  0  0  0  0  0  0  0  0  0
  1  2  1  0
  1 30  1  0
  1 31  1  0
  1 32  1  0
  2  3  2  0
  2  4  1  0
  4  5  1  0
  5  6  1  0
  5 33  1  0
  5 34  1  0
  6 25  1  0
  6  7  2  0
  7  8  1  0
  7 35  1  0
  8  9  2  0
  8 36  1  0
  9 10  1  0
  9 20  1  0
 10 11  1  0
 10 37  1  0
 10 38  1  0
 11 12  1  0
 12 13  2  0
 12 14  1  0
 14 15  1  0
 14 39  1  0
 15 16  1  0
 15 40  1  0
 15 41  1  0
 16 17  1  0
 16 18  1  0
 16 19  1  0
 20 21  1  0
 20 25  1  0
 20 42  1  6
 21 22  1  0
 22 23  1  0
 22 24  2  0
 23 43  1  0
 23 44  1  0
 23 45  1  0
 25 26  1  0
 25 46  1  1
 26 27  1  0
 27 28  1  0
 27 29  2  0
 28 47  1  0
 28 48  1  0
 28 49  1  0
M  END
>  <i_m_ct_stereo_status>  (123) 
1

>  <s_m_source_file>  (123) 
/var/tmp/pbs.5076255.sched01/tmpwzsktf0x/40k9schvjs.sdf

>  <i_m_source_file_index>  (123) 
18

>  <i_lp_mmshare_version>  (123) 
48012

>  <i_f3d_flags>  (123) 
0

>  <s_epik_input>  (123) 
W0NIM11DKD1PKU9bQ0gyXUMxPVtDSF1bQ0hdPUMoW0NAQEhdKE9DKD1PKVtDSDNdKVtDQEhdMU9DKD1PKVtDSDNdKVtDSDJdT0MoPU8pW05IXVtDSDJdQyhGKShGKUY=

>  <s_epik_cmdline>  (123) 
J2VwaWtfcHl0aG9uJywgJy1waHQnLCAnMi4wJywgJy1waCcsICc3LjAnLCAnLXRuJywgJzgnLCAnLW1hJywgJzIwMCcsICctaW1hZScsICc8aW5maWxlLm1hZT4nLCAnLW9tYWUnLCAnPG91dGZpbGUubWFlPic=

>  <r_lp_tautomer_probability>  (123) 
1

>  <r_epik_Ionization_Penalty>  (123) 
3.11361e-06

>  <r_epik_Ionization_Penalty_Charging>  (123) 
0

>  <r_epik_Ionization_Penalty_Neutral>  (123) 
3.11361e-06

>  <r_epik_State_Penalty>  (123) 
-0

>  <r_epik_Charging_Adjusted_Penalty>  (123) 
0

>  <i_epik_Tot_Q>  (123) 
0

>  <i_epik_Tot_abs_Q>  (123) 
0

>  <s_epik_Chemistry_Notes>  (123) 
This compound has an ester and may undergo hydrolysis at high or low pH.

>  <s_lp_Force_Field>  (123) 
OPLS3e

>  <r_lp_Energy>  (123) 
-0.557465

>  <b_lp_Chiralities_Consistent>  (123) 
1

>  <s_lp_Variant>  (123) 
43:0-1

>  <s_i_glide_gridfile>  (123) 
pfpi4k_grid

>  <i_i_glide_lignum>  (123) 
18

>  <i_i_glide_rotatable_bonds>  (123) 
13

>  <r_i_docking_score>  (123) 
-3.60253

>  <r_i_glide_ligand_efficiency>  (123) 
-0.124225

>  <r_i_glide_ligand_efficiency_sa>  (123) 
-0.381659

>  <r_i_glide_ligand_efficiency_ln>  (123) 
-0.824887

>  <r_i_glide_gscore>  (123) 
-3.60253

>  <r_i_glide_lipo>  (123) 
-0.183302

>  <r_i_glide_hbond>  (123) 
-0.301798

>  <r_i_glide_metal>  (123) 
-0

>  <r_i_glide_rewards>  (123) 
-0.846983

>  <r_i_glide_evdw>  (123) 
-30.7149

>  <r_i_glide_ecoul>  (123) 
-9.99949

>  <r_i_glide_erotb>  (123) 
0.995267

>  <r_i_glide_esite>  (123) 
-0.230042

>  <r_i_glide_emodel>  (123) 
-42.1029

>  <r_i_glide_energy>  (123) 
-40.7144

>  <r_i_glide_einternal>  (123) 
16.3444

>  <r_i_glide_intrahb_reward>  (123) 
-0

>  <i_i_glide_confnum>  (123) 
29

>  <i_i_glide_posenum>  (123) 
29

>  <r_i_glide_eff_state_penalty>  (123) 
0

>  <ligand_id>  (123) 
43

>  <original_smiles>  (123) 
CC(=O)OCC1=CC=C(COC(=O)NCC(F)(F)F)C(OC(C)=O)C1OC(C)=O

>  <smiles>  (123) 
[H]C1=C(C([H])([H])OC(=O)N([H])C([H])([H])C(F)(F)F)C([H])(OC(=O)C([H])([H])[H])C([H])(OC(=O)C([H])([H])[H])C(C([H])([H])OC(=O)C([H])([H])[H])=C1[H]

$$$$
43:0:1
     RDKit          3D

 49 49  0  0  1  0  0  0  0  0999 V2000
   -3.6736    3.1068    2.4180 C   0  0  0  0  0  0  0  0  0  0  0  0
   -2.3512    3.7066    2.8871 C   0  0  0  0  0  0  0  0  0  0  0  0
   -2.1922    4.9314    2.9055 O   0  0  0  0  0  0  0  0  0  0  0  0
   -1.4214    2.8156    3.2923 O   0  0  0  0  0  0  0  0  0  0  0  0
   -1.6026    1.4102    3.1642 C   0  0  0  0  0  0  0  0  0  0  0  0
   -0.2730    0.6970    3.0879 C   0  0  0  0  0  0  0  0  0  0  0  0
    0.5847    0.9617    2.0949 C   0  0  0  0  0  0  0  0  0  0  0  0
    1.8372    0.2649    1.9688 C   0  0  0  0  0  0  0  0  0  0  0  0
    2.1329   -0.8068    2.7198 C   0  0  0  0  0  0  0  0  0  0  0  0
    3.4535   -1.5457    2.5560 C   0  0  0  0  0  0  0  0  0  0  0  0
    3.8629   -1.6173    1.1969 O   0  0  0  0  0  0  0  0  0  0  0  0
    3.4810   -2.6518    0.4244 C   0  0  0  0  0  0  0  0  0  0  0  0
    2.8120   -3.6135    0.8002 O   0  0  0  0  0  0  0  0  0  0  0  0
    3.9823   -2.4539   -0.8495 N   0  0  0  0  0  0  0  0  0  0  0  0
    3.8376   -3.4420   -1.9129 C   0  0  0  0  0  0  0  0  0  0  0  0
    4.7207   -3.1175   -3.1224 C   0  0  0  0  0  0  0  0  0  0  0  0
    4.3670   -1.9517   -3.6629 F   0  0  0  0  0  0  0  0  0  0  0  0
    5.9943   -3.0550   -2.7410 F   0  0  0  0  0  0  0  0  0  0  0  0
    4.6048   -4.0649   -4.0501 F   0  0  0  0  0  0  0  0  0  0  0  0
    1.1826   -1.3254    3.7955 C   0  0  1  0  0  0  0  0  0  0  0  0
    1.9184   -1.7110    4.9535 O   0  0  0  0  0  0  0  0  0  0  0  0
    1.4286   -2.6146    5.8262 C   0  0  0  0  0  0  0  0  0  0  0  0
    2.3883   -2.8492    6.9849 C   0  0  0  0  0  0  0  0  0  0  0  0
    0.3411   -3.1867    5.7498 O   0  0  0  0  0  0  0  0  0  0  0  0
    0.0154   -0.3487    4.1545 C   0  0  1  0  0  0  0  0  0  0  0  0
    0.3123    0.3281    5.3702 O   0  0  0  0  0  0  0  0  0  0  0  0
   -0.6240    0.5275    6.3201 C   0  0  0  0  0  0  0  0  0  0  0  0
   -0.0629    1.3078    7.4956 C   0  0  0  0  0  0  0  0  0  0  0  0
   -1.7900    0.1384    6.3020 O   0  0  0  0  0  0  0  0  0  0  0  0
   -4.1411    2.5596    3.2372 H   0  0  0  0  0  0  0  0  0  0  0  0
   -3.5244    2.4201    1.5804 H   0  0  0  0  0  0  0  0  0  0  0  0
   -4.3630    3.8915    2.1054 H   0  0  0  0  0  0  0  0  0  0  0  0
   -2.1916    1.0322    4.0007 H   0  0  0  0  0  0  0  0  0  0  0  0
   -2.1029    1.1670    2.2296 H   0  0  0  0  0  0  0  0  0  0  0  0
    0.3184    1.6948    1.3553 H   0  0  0  0  0  0  0  0  0  0  0  0
    2.5352    0.6223    1.2309 H   0  0  0  0  0  0  0  0  0  0  0  0
    4.2032   -1.0028    3.1276 H   0  0  0  0  0  0  0  0  0  0  0  0
    3.3899   -2.5461    2.9831 H   0  0  0  0  0  0  0  0  0  0  0  0
    4.4574   -1.5831   -1.0349 H   0  0  0  0  0  0  0  0  0  0  0  0
    4.1255   -4.4201   -1.5251 H   0  0  0  0  0  0  0  0  0  0  0  0
    2.7919   -3.5045   -2.2229 H   0  0  0  0  0  0  0  0  0  0  0  0
    0.7426   -2.2202    3.3559 H   0  0  0  0  0  0  0  0  0  0  0  0
    3.3565   -3.1670    6.6053 H   0  0  0  0  0  0  0  0  0  0  0  0
    2.0095   -3.6097    7.6627 H   0  0  0  0  0  0  0  0  0  0  0  0
    2.5288   -1.9245    7.5400 H   0  0  0  0  0  0  0  0  0  0  0  0
   -0.8838   -0.9566    4.2677 H   0  0  0  0  0  0  0  0  0  0  0  0
    0.7931    0.7782    7.9090 H   0  0  0  0  0  0  0  0  0  0  0  0
   -0.8163    1.4299    8.2707 H   0  0  0  0  0  0  0  0  0  0  0  0
    0.2613    2.2892    7.1564 H   0  0  0  0  0  0  0  0  0  0  0  0
  1  2  1  0
  1 30  1  0
  1 31  1  0
  1 32  1  0
  2  3  2  0
  2  4  1  0
  4  5  1  0
  5  6  1  0
  5 33  1  0
  5 34  1  0
  6 25  1  0
  6  7  2  0
  7  8  1  0
  7 35  1  0
  8  9  2  0
  8 36  1  0
  9 10  1  0
  9 20  1  0
 10 11  1  0
 10 37  1  0
 10 38  1  0
 11 12  1  0
 12 13  2  0
 12 14  1  0
 14 15  1  0
 14 39  1  0
 15 16  1  0
 15 40  1  0
 15 41  1  0
 16 17  1  0
 16 18  1  0
 16 19  1  0
 20 21  1  0
 20 25  1  0
 20 42  1  6
 21 22  1  0
 22 23  1  0
 22 24  2  0
 23 43  1  0
 23 44  1  0
 23 45  1  0
 25 26  1  0
 25 46  1  1
 26 27  1  0
 27 28  1  0
 27 29  2  0
 28 47  1  0
 28 48  1  0
 28 49  1  0
M  END
>  <i_m_ct_stereo_status>  (124) 
1

>  <s_m_source_file>  (124) 
/var/tmp/pbs.5076255.sched01/tmpwzsktf0x/40k9schvjs.sdf

>  <i_m_source_file_index>  (124) 
18

>  <i_lp_mmshare_version>  (124) 
48012

>  <i_f3d_flags>  (124) 
0

>  <s_epik_input>  (124) 
W0NIM11DKD1PKU9bQ0gyXUMxPVtDSF1bQ0hdPUMoW0NAQEhdKE9DKD1PKVtDSDNdKVtDQEhdMU9DKD1PKVtDSDNdKVtDSDJdT0MoPU8pW05IXVtDSDJdQyhGKShGKUY=

>  <s_epik_cmdline>  (124) 
J2VwaWtfcHl0aG9uJywgJy1waHQnLCAnMi4wJywgJy1waCcsICc3LjAnLCAnLXRuJywgJzgnLCAnLW1hJywgJzIwMCcsICctaW1hZScsICc8aW5maWxlLm1hZT4nLCAnLW9tYWUnLCAnPG91dGZpbGUubWFlPic=

>  <r_lp_tautomer_probability>  (124) 
1

>  <r_epik_Ionization_Penalty>  (124) 
3.11361e-06

>  <r_epik_Ionization_Penalty_Charging>  (124) 
0

>  <r_epik_Ionization_Penalty_Neutral>  (124) 
3.11361e-06

>  <r_epik_State_Penalty>  (124) 
-0

>  <r_epik_Charging_Adjusted_Penalty>  (124) 
0

>  <i_epik_Tot_Q>  (124) 
0

>  <i_epik_Tot_abs_Q>  (124) 
0

>  <s_epik_Chemistry_Notes>  (124) 
This compound has an ester and may undergo hydrolysis at high or low pH.

>  <s_lp_Force_Field>  (124) 
OPLS3e

>  <r_lp_Energy>  (124) 
-0.557465

>  <b_lp_Chiralities_Consistent>  (124) 
1

>  <s_lp_Variant>  (124) 
43:0-1

>  <s_i_glide_gridfile>  (124) 
pfpi4k_grid

>  <i_i_glide_lignum>  (124) 
18

>  <i_i_glide_rotatable_bonds>  (124) 
13

>  <r_i_docking_score>  (124) 
-3.59455

>  <r_i_glide_ligand_efficiency>  (124) 
-0.12395

>  <r_i_glide_ligand_efficiency_sa>  (124) 
-0.380814

>  <r_i_glide_ligand_efficiency_ln>  (124) 
-0.823061

>  <r_i_glide_gscore>  (124) 
-3.59455

>  <r_i_glide_lipo>  (124) 
-0.187152

>  <r_i_glide_hbond>  (124) 
-0.32

>  <r_i_glide_metal>  (124) 
-0

>  <r_i_glide_rewards>  (124) 
-0.960459

>  <r_i_glide_evdw>  (124) 
-29.4628

>  <r_i_glide_ecoul>  (124) 
-9.64114

>  <r_i_glide_erotb>  (124) 
0.995267

>  <r_i_glide_esite>  (124) 
-0.202898

>  <r_i_glide_emodel>  (124) 
-43.0027

>  <r_i_glide_energy>  (124) 
-39.1039

>  <r_i_glide_einternal>  (124) 
11.1996

>  <r_i_glide_intrahb_reward>  (124) 
-0

>  <i_i_glide_confnum>  (124) 
29

>  <i_i_glide_posenum>  (124) 
25

>  <r_i_glide_eff_state_penalty>  (124) 
0

>  <ligand_id>  (124) 
43

>  <original_smiles>  (124) 
CC(=O)OCC1=CC=C(COC(=O)NCC(F)(F)F)C(OC(C)=O)C1OC(C)=O

>  <smiles>  (124) 
[H]C1=C(C([H])([H])OC(=O)N([H])C([H])([H])C(F)(F)F)C([H])(OC(=O)C([H])([H])[H])C([H])(OC(=O)C([H])([H])[H])C(C([H])([H])OC(=O)C([H])([H])[H])=C1[H]

$$$$
43:0:2
     RDKit          3D

 49 49  0  0  1  0  0  0  0  0999 V2000
   -3.7935    2.9968    2.3636 C   0  0  0  0  0  0  0  0  0  0  0  0
   -2.5345    3.6918    2.8775 C   0  0  0  0  0  0  0  0  0  0  0  0
   -2.4642    4.9199    2.8901 O   0  0  0  0  0  0  0  0  0  0  0  0
   -1.5405    2.8714    3.2608 O   0  0  0  0  0  0  0  0  0  0  0  0
   -1.5648    1.4790    3.0003 C   0  0  0  0  0  0  0  0  0  0  0  0
   -0.1553    0.9290    2.9725 C   0  0  0  0  0  0  0  0  0  0  0  0
    0.7211    1.3467    2.0501 C   0  0  0  0  0  0  0  0  0  0  0  0
    2.0647    0.8152    1.9806 C   0  0  0  0  0  0  0  0  0  0  0  0
    2.4386   -0.2418    2.7190 C   0  0  0  0  0  0  0  0  0  0  0  0
    3.8334   -0.8528    2.6051 C   0  0  0  0  0  0  0  0  0  0  0  0
    4.3846   -0.6846    1.3105 O   0  0  0  0  0  0  0  0  0  0  0  0
    4.0708   -1.5433    0.3221 C   0  0  0  0  0  0  0  0  0  0  0  0
    3.4236   -2.5817    0.4643 O   0  0  0  0  0  0  0  0  0  0  0  0
    4.5804   -1.0415   -0.8628 N   0  0  0  0  0  0  0  0  0  0  0  0
    4.4167   -1.7049   -2.1545 C   0  0  0  0  0  0  0  0  0  0  0  0
    5.3021   -2.9536   -2.2947 C   0  0  0  0  0  0  0  0  0  0  0  0
    5.1913   -3.4392   -3.5266 F   0  0  0  0  0  0  0  0  0  0  0  0
    6.5767   -2.6326   -2.0757 F   0  0  0  0  0  0  0  0  0  0  0  0
    4.9576   -3.9155   -1.4420 F   0  0  0  0  0  0  0  0  0  0  0  0
    1.4791   -0.9428    3.6781 C   0  0  1  0  0  0  0  0  0  0  0  0
    2.1502   -1.3477    4.8715 O   0  0  0  0  0  0  0  0  0  0  0  0
    1.8234   -2.4527    5.5809 C   0  0  0  0  0  0  0  0  0  0  0  0
    0.7404   -3.3398    4.9688 C   0  0  0  0  0  0  0  0  0  0  0  0
    2.3480   -2.7536    6.6487 O   0  0  0  0  0  0  0  0  0  0  0  0
    0.1886   -0.1236    4.0089 C   0  0  1  0  0  0  0  0  0  0  0  0
    0.3208    0.5179    5.2695 O   0  0  0  0  0  0  0  0  0  0  0  0
   -0.6761    0.5285    6.1770 C   0  0  0  0  0  0  0  0  0  0  0  0
   -0.2904    1.3259    7.4089 C   0  0  0  0  0  0  0  0  0  0  0  0
   -1.7734   -0.0293    6.0814 O   0  0  0  0  0  0  0  0  0  0  0  0
   -4.1911    2.4059    3.1806 H   0  0  0  0  0  0  0  0  0  0  0  0
   -3.5855    2.3385    1.5140 H   0  0  0  0  0  0  0  0  0  0  0  0
   -4.5510    3.7218    2.0603 H   0  0  0  0  0  0  0  0  0  0  0  0
   -2.1789    0.9760    3.7508 H   0  0  0  0  0  0  0  0  0  0  0  0
   -1.9724    1.2708    2.0123 H   0  0  0  0  0  0  0  0  0  0  0  0
    0.4107    2.0727    1.3263 H   0  0  0  0  0  0  0  0  0  0  0  0
    2.7456    1.2678    1.2811 H   0  0  0  0  0  0  0  0  0  0  0  0
    4.4730   -0.3748    3.3416 H   0  0  0  0  0  0  0  0  0  0  0  0
    3.8052   -1.9153    2.8475 H   0  0  0  0  0  0  0  0  0  0  0  0
    4.9906   -0.1204   -0.8267 H   0  0  0  0  0  0  0  0  0  0  0  0
    3.3691   -1.9530   -2.3241 H   0  0  0  0  0  0  0  0  0  0  0  0
    4.6862   -0.9903   -2.9326 H   0  0  0  0  0  0  0  0  0  0  0  0
    1.1787   -1.8209    3.1033 H   0  0  0  0  0  0  0  0  0  0  0  0
   -0.1925   -2.7952    4.8430 H   0  0  0  0  0  0  0  0  0  0  0  0
    0.5270   -4.1918    5.6218 H   0  0  0  0  0  0  0  0  0  0  0  0
    1.0672   -3.7208    4.0027 H   0  0  0  0  0  0  0  0  0  0  0  0
   -0.6413   -0.8319    4.0300 H   0  0  0  0  0  0  0  0  0  0  0  0
    0.6047    0.8925    7.8527 H   0  0  0  0  0  0  0  0  0  0  0  0
   -1.0919    1.3271    8.1457 H   0  0  0  0  0  0  0  0  0  0  0  0
   -0.0703    2.3529    7.1219 H   0  0  0  0  0  0  0  0  0  0  0  0
  1  2  1  0
  1 30  1  0
  1 31  1  0
  1 32  1  0
  2  3  2  0
  2  4  1  0
  4  5  1  0
  5  6  1  0
  5 33  1  0
  5 34  1  0
  6 25  1  0
  6  7  2  0
  7  8  1  0
  7 35  1  0
  8  9  2  0
  8 36  1  0
  9 10  1  0
  9 20  1  0
 10 11  1  0
 10 37  1  0
 10 38  1  0
 11 12  1  0
 12 13  2  0
 12 14  1  0
 14 15  1  0
 14 39  1  0
 15 16  1  0
 15 40  1  0
 15 41  1  0
 16 17  1  0
 16 18  1  0
 16 19  1  0
 20 21  1  0
 20 25  1  0
 20 42  1  6
 21 22  1  0
 22 23  1  0
 22 24  2  0
 23 43  1  0
 23 44  1  0
 23 45  1  0
 25 26  1  0
 25 46  1  1
 26 27  1  0
 27 28  1  0
 27 29  2  0
 28 47  1  0
 28 48  1  0
 28 49  1  0
M  END
>  <i_m_ct_stereo_status>  (125) 
1

>  <s_m_source_file>  (125) 
/var/tmp/pbs.5076255.sched01/tmpwzsktf0x/40k9schvjs.sdf

>  <i_m_source_file_index>  (125) 
18

>  <i_lp_mmshare_version>  (125) 
48012

>  <i_f3d_flags>  (125) 
0

>  <s_epik_input>  (125) 
W0NIM11DKD1PKU9bQ0gyXUMxPVtDSF1bQ0hdPUMoW0NAQEhdKE9DKD1PKVtDSDNdKVtDQEhdMU9DKD1PKVtDSDNdKVtDSDJdT0MoPU8pW05IXVtDSDJdQyhGKShGKUY=

>  <s_epik_cmdline>  (125) 
J2VwaWtfcHl0aG9uJywgJy1waHQnLCAnMi4wJywgJy1waCcsICc3LjAnLCAnLXRuJywgJzgnLCAnLW1hJywgJzIwMCcsICctaW1hZScsICc8aW5maWxlLm1hZT4nLCAnLW9tYWUnLCAnPG91dGZpbGUubWFlPic=

>  <r_lp_tautomer_probability>  (125) 
1

>  <r_epik_Ionization_Penalty>  (125) 
3.11361e-06

>  <r_epik_Ionization_Penalty_Charging>  (125) 
0

>  <r_epik_Ionization_Penalty_Neutral>  (125) 
3.11361e-06

>  <r_epik_State_Penalty>  (125) 
-0

>  <r_epik_Charging_Adjusted_Penalty>  (125) 
0

>  <i_epik_Tot_Q>  (125) 
0

>  <i_epik_Tot_abs_Q>  (125) 
0

>  <s_epik_Chemistry_Notes>  (125) 
This compound has an ester and may undergo hydrolysis at high or low pH.

>  <s_lp_Force_Field>  (125) 
OPLS3e

>  <r_lp_Energy>  (125) 
-0.557465

>  <b_lp_Chiralities_Consistent>  (125) 
1

>  <s_lp_Variant>  (125) 
43:0-1

>  <s_i_glide_gridfile>  (125) 
pfpi4k_grid

>  <i_i_glide_lignum>  (125) 
18

>  <i_i_glide_rotatable_bonds>  (125) 
13

>  <r_i_docking_score>  (125) 
-3.54284

>  <r_i_glide_ligand_efficiency>  (125) 
-0.122167

>  <r_i_glide_ligand_efficiency_sa>  (125) 
-0.375335

>  <r_i_glide_ligand_efficiency_ln>  (125) 
-0.81122

>  <r_i_glide_gscore>  (125) 
-3.54284

>  <r_i_glide_lipo>  (125) 
-0.162142

>  <r_i_glide_hbond>  (125) 
-0.511806

>  <r_i_glide_metal>  (125) 
-0

>  <r_i_glide_rewards>  (125) 
-0.850428

>  <r_i_glide_evdw>  (125) 
-30.607

>  <r_i_glide_ecoul>  (125) 
-8.45425

>  <r_i_glide_erotb>  (125) 
0.995267

>  <r_i_glide_esite>  (125) 
-0.215241

>  <r_i_glide_emodel>  (125) 
-40.4757

>  <r_i_glide_energy>  (125) 
-39.0613

>  <r_i_glide_einternal>  (125) 
15.7491

>  <r_i_glide_intrahb_reward>  (125) 
-0

>  <i_i_glide_confnum>  (125) 
30

>  <i_i_glide_posenum>  (125) 
31

>  <r_i_glide_eff_state_penalty>  (125) 
0

>  <ligand_id>  (125) 
43

>  <original_smiles>  (125) 
CC(=O)OCC1=CC=C(COC(=O)NCC(F)(F)F)C(OC(C)=O)C1OC(C)=O

>  <smiles>  (125) 
[H]C1=C(C([H])([H])OC(=O)N([H])C([H])([H])C(F)(F)F)C([H])(OC(=O)C([H])([H])[H])C([H])(OC(=O)C([H])([H])[H])C(C([H])([H])OC(=O)C([H])([H])[H])=C1[H]

$$$$
44:0:0
     RDKit          3D

 37 42  0  0  1  0  0  0  0  0999 V2000
    3.2236    0.1552   -4.5994 C   0  0  0  0  0  0  0  0  0  0  0  0
    3.7287   -1.0082   -3.7669 C   0  0  0  0  0  0  0  0  0  0  0  0
    4.2176   -1.9853   -4.3138 O   0  0  0  0  0  0  0  0  0  0  0  0
    3.5739   -0.8358   -2.4282 O   0  0  0  0  0  0  0  0  0  0  0  0
    4.1463   -1.7518   -1.4337 C   0  0  2  0  0  0  0  0  0  0  0  0
    3.8380   -3.3047   -1.6587 C   0  0  2  0  0  0  0  0  0  0  0  0
    2.5889   -3.4356   -0.7845 C   0  0  1  0  0  0  0  0  0  0  0  0
    1.9660   -4.6887   -0.7108 O   0  0  0  0  0  0  0  0  0  0  0  0
    3.0631   -2.7906    0.5329 C   0  0  1  0  0  0  0  0  0  0  0  0
    4.3923   -3.4569    1.0845 C   0  0  1  0  0  0  0  0  0  0  0  0
    4.8954   -4.6791    0.2816 C   0  0  1  0  0  0  0  0  0  0  0  0
    4.1481   -5.8709    0.4292 O   0  0  0  0  0  0  0  0  0  0  0  0
    5.0265   -4.2138   -1.1910 C   0  0  2  0  0  0  0  0  0  0  0  0
    6.3601   -3.4380   -1.2493 C   0  0  0  0  0  0  0  0  0  0  0  0
    6.2335   -2.1682   -0.3944 C   0  0  2  0  0  0  0  0  0  0  0  0
    5.4841   -2.3539    0.9132 C   0  0  1  0  0  0  0  0  0  0  0  0
    4.7021   -1.2660    0.2962 C   0  0  2  0  0  0  0  0  0  0  0  0
    3.5690   -1.3854   -0.0010 C   0  0  1  0  0  0  0  0  0  0  0  0
    5.1398   -1.2252   -0.9470 C   0  0  2  0  0  0  0  0  0  0  0  0
    2.1595    0.3158   -4.4325 H   0  0  0  0  0  0  0  0  0  0  0  0
    3.3736   -0.0719   -5.6543 H   0  0  0  0  0  0  0  0  0  0  0  0
    3.7739    1.0656   -4.3545 H   0  0  0  0  0  0  0  0  0  0  0  0
    3.5747   -3.5762   -2.6772 H   0  0  0  0  0  0  0  0  0  0  0  0
    1.8242   -2.8079   -1.2403 H   0  0  0  0  0  0  0  0  0  0  0  0
    2.1889   -5.1566   -1.5250 H   0  0  0  0  0  0  0  0  0  0  0  0
    2.2742   -2.7012    1.2812 H   0  0  0  0  0  0  0  0  0  0  0  0
    4.2755   -3.7236    2.1382 H   0  0  0  0  0  0  0  0  0  0  0  0
    5.8812   -4.9619    0.6693 H   0  0  0  0  0  0  0  0  0  0  0  0
    3.3299   -5.7536   -0.0551 H   0  0  0  0  0  0  0  0  0  0  0  0
    5.0637   -5.0884   -1.8389 H   0  0  0  0  0  0  0  0  0  0  0  0
    7.1884   -4.0310   -0.8607 H   0  0  0  0  0  0  0  0  0  0  0  0
    6.6032   -3.1727   -2.2792 H   0  0  0  0  0  0  0  0  0  0  0  0
    7.1910   -1.6588   -0.2496 H   0  0  0  0  0  0  0  0  0  0  0  0
    6.0256   -2.0644    1.8114 H   0  0  0  0  0  0  0  0  0  0  0  0
    4.7187   -0.2764    0.8530 H   0  0  0  0  0  0  0  0  0  0  0  0
    2.9433   -0.4989    0.1711 H   0  0  0  0  0  0  0  0  0  0  0  0
    5.4585   -0.2869   -1.4681 H   0  0  0  0  0  0  0  0  0  0  0  0
  1  2  1  0
  1 20  1  0
  1 21  1  0
  1 22  1  0
  2  3  2  0
  2  4  1  0
  5  4  1  6
  5 17  1  0
  5 19  1  0
  5  6  1  0
  6 13  1  0
  6  7  1  0
  6 23  1  6
  7  8  1  0
  7  9  1  0
  7 24  1  6
  8 25  1  0
  9 18  1  0
  9 10  1  0
  9 26  1  1
 10 16  1  0
 10 11  1  0
 10 27  1  1
 11 12  1  0
 11 13  1  0
 11 28  1  1
 12 29  1  0
 13 14  1  0
 13 30  1  6
 14 15  1  0
 14 31  1  0
 14 32  1  0
 15 19  1  0
 15 16  1  0
 15 33  1  1
 16 17  1  0
 16 34  1  1
 17 18  1  0
 17 35  1  6
 18 19  1  0
 18 36  1  6
 19 37  1  6
M  END
>  <i_m_ct_stereo_status>  (126) 
1

>  <s_m_source_file>  (126) 
/var/tmp/pbs.5076255.sched01/tmpwzsktf0x/40k9schvjs.sdf

>  <i_m_source_file_index>  (126) 
19

>  <i_lp_mmshare_version>  (126) 
48012

>  <i_f3d_flags>  (126) 
2

>  <s_epik_input>  (126) 
W0NIM11DKD1PKU9bQ0BdMTJbQ0BIXTNbQ0BASF00W0NASF0oW09IXSlbQ0BASF01W0NASF0oW0NAQEhdM1tPSF0pW0NAQEhdNltDSF0xW0NAQEhdNVtDQEBIXShbQ0gyXTQpW0NAQEhdMjY=

>  <s_epik_cmdline>  (126) 
J2VwaWtfcHl0aG9uJywgJy1waHQnLCAnMi4wJywgJy1waCcsICc3LjAnLCAnLXRuJywgJzgnLCAnLW1hJywgJzIwMCcsICctaW1hZScsICc8aW5maWxlLm1hZT4nLCAnLW9tYWUnLCAnPG91dGZpbGUubWFlPic=

>  <r_lp_tautomer_probability>  (126) 
1

>  <r_epik_Ionization_Penalty>  (126) 
1.20242e-06

>  <r_epik_Ionization_Penalty_Charging>  (126) 
0

>  <r_epik_Ionization_Penalty_Neutral>  (126) 
1.20242e-06

>  <r_epik_State_Penalty>  (126) 
-0

>  <r_epik_Charging_Adjusted_Penalty>  (126) 
0

>  <i_epik_Tot_Q>  (126) 
0

>  <i_epik_Tot_abs_Q>  (126) 
0

>  <s_epik_Chemistry_Notes>  (126) 
This compound has an ester and may undergo hydrolysis at high or low pH.

>  <s_lp_Force_Field>  (126) 
OPLS3e

>  <r_lp_Energy>  (126) 
407.787

>  <b_lp_Chiralities_Consistent>  (126) 
0

>  <s_lp_Variant>  (126) 
44:0-1

>  <s_i_glide_gridfile>  (126) 
pfpi4k_grid

>  <i_i_glide_lignum>  (126) 
19

>  <i_i_glide_rotatable_bonds>  (126) 
4

>  <r_i_docking_score>  (126) 
-4.95495

>  <r_i_glide_ligand_efficiency>  (126) 
-0.260787

>  <r_i_glide_ligand_efficiency_sa>  (126) 
-0.695885

>  <r_i_glide_ligand_efficiency_ln>  (126) 
-1.25619

>  <r_i_glide_gscore>  (126) 
-4.95495

>  <r_i_glide_lipo>  (126) 
-0.362716

>  <r_i_glide_hbond>  (126) 
-0.304

>  <r_i_glide_metal>  (126) 
-0

>  <r_i_glide_rewards>  (126) 
-1.89848

>  <r_i_glide_evdw>  (126) 
-24.1145

>  <r_i_glide_ecoul>  (126) 
-9.61227

>  <r_i_glide_erotb>  (126) 
0.257808

>  <r_i_glide_esite>  (126) 
0

>  <r_i_glide_emodel>  (126) 
-41.2168

>  <r_i_glide_energy>  (126) 
-33.7268

>  <r_i_glide_einternal>  (126) 
3.69818

>  <r_i_glide_intrahb_reward>  (126) 
-0

>  <i_i_glide_confnum>  (126) 
1

>  <i_i_glide_posenum>  (126) 
1

>  <r_i_glide_eff_state_penalty>  (126) 
0

>  <ligand_id>  (126) 
44

>  <original_smiles>  (126) 
CC(=O)OC12C3C(O)C4C5C(O)C3CC3C5C1C4C32

>  <smiles>  (126) 
[H]OC1([H])C2([H])C([H])([H])C3([H])C4([H])C1([H])C1([H])C([H])(O[H])C2([H])C2(OC(=O)C([H])([H])[H])C3([H])C1([H])C42[H]

$$$$
44:0:1
     RDKit          3D

 37 42  0  0  1  0  0  0  0  0999 V2000
    3.7569   -0.2574   -4.3029 C   0  0  0  0  0  0  0  0  0  0  0  0
    4.2124   -1.3709   -3.3472 C   0  0  0  0  0  0  0  0  0  0  0  0
    4.1652   -2.5464   -3.6891 O   0  0  0  0  0  0  0  0  0  0  0  0
    4.6568   -0.8901   -2.1491 O   0  0  0  0  0  0  0  0  0  0  0  0
    4.8940   -1.7829   -1.0014 C   0  0  2  0  0  0  0  0  0  0  0  0
    3.5436   -2.2979   -0.3695 C   0  0  2  0  0  0  0  0  0  0  0  0
    3.3553   -1.2257    0.7172 C   0  0  1  0  0  0  0  0  0  0  0  0
    2.2098   -1.3267    1.5557 O   0  0  0  0  0  0  0  0  0  0  0  0
    4.7437   -1.1928    1.3606 C   0  0  1  0  0  0  0  0  0  0  0  0
    5.1827   -2.6276    1.8923 C   0  0  1  0  0  0  0  0  0  0  0  0
    4.1126   -3.7299    1.7466 C   0  0  1  0  0  0  0  0  0  0  0  0
    3.0330   -3.5865    2.6535 O   0  0  0  0  0  0  0  0  0  0  0  0
    3.6988   -3.7483    0.2584 C   0  0  2  0  0  0  0  0  0  0  0  0
    4.8121   -4.5198   -0.4663 C   0  0  0  0  0  0  0  0  0  0  0  0
    6.1198   -3.7000   -0.3790 C   0  0  2  0  0  0  0  0  0  0  0  0
    6.3622   -3.0298    0.9528 C   0  0  1  0  0  0  0  0  0  0  0  0
    6.4293   -1.8760    0.0604 C   0  0  2  0  0  0  0  0  0  0  0  0
    5.6483   -0.9782    0.1142 C   0  0  1  0  0  0  0  0  0  0  0  0
    5.9913   -2.3378   -1.0684 C   0  0  2  0  0  0  0  0  0  0  0  0
    2.9430    0.3132   -3.8382 H   0  0  0  0  0  0  0  0  0  0  0  0
    3.3820   -0.6782   -5.2314 H   0  0  0  0  0  0  0  0  0  0  0  0
    4.5655    0.4243   -4.5348 H   0  0  0  0  0  0  0  0  0  0  0  0
    2.7261   -2.3013   -1.0957 H   0  0  0  0  0  0  0  0  0  0  0  0
    3.2131   -0.2573    0.2201 H   0  0  0  0  0  0  0  0  0  0  0  0
    1.4749   -1.0606    1.0078 H   0  0  0  0  0  0  0  0  0  0  0  0
    4.8512   -0.4086    2.1307 H   0  0  0  0  0  0  0  0  0  0  0  0
    5.5258   -2.5655    2.9294 H   0  0  0  0  0  0  0  0  0  0  0  0
    4.5607   -4.6853    2.0161 H   0  0  0  0  0  0  0  0  0  0  0  0
    2.6391   -2.7476    2.4787 H   0  0  0  0  0  0  0  0  0  0  0  0
    2.7460   -4.3000    0.1585 H   0  0  0  0  0  0  0  0  0  0  0  0
    4.9507   -5.5113   -0.0306 H   0  0  0  0  0  0  0  0  0  0  0  0
    4.5587   -4.6735   -1.5190 H   0  0  0  0  0  0  0  0  0  0  0  0
    6.9971   -4.2472   -0.7193 H   0  0  0  0  0  0  0  0  0  0  0  0
    7.3045   -3.2885    1.4420 H   0  0  0  0  0  0  0  0  0  0  0  0
    7.4257   -1.3475    0.0280 H   0  0  0  0  0  0  0  0  0  0  0  0
    6.1029    0.0189   -0.0499 H   0  0  0  0  0  0  0  0  0  0  0  0
    6.4968   -2.1961   -2.0672 H   0  0  0  0  0  0  0  0  0  0  0  0
  1  2  1  0
  1 20  1  0
  1 21  1  0
  1 22  1  0
  2  3  2  0
  2  4  1  0
  5  4  1  6
  5 17  1  0
  5 19  1  0
  5  6  1  0
  6 13  1  0
  6  7  1  0
  6 23  1  6
  7  8  1  0
  7  9  1  0
  7 24  1  6
  8 25  1  0
  9 18  1  0
  9 10  1  0
  9 26  1  1
 10 16  1  0
 10 11  1  0
 10 27  1  1
 11 12  1  0
 11 13  1  0
 11 28  1  1
 12 29  1  0
 13 14  1  0
 13 30  1  1
 14 15  1  0
 14 31  1  0
 14 32  1  0
 15 19  1  0
 15 16  1  0
 15 33  1  6
 16 17  1  0
 16 34  1  1
 17 18  1  0
 17 35  1  6
 18 19  1  0
 18 36  1  6
 19 37  1  6
M  END
>  <i_m_ct_stereo_status>  (127) 
1

>  <s_m_source_file>  (127) 
/var/tmp/pbs.5076255.sched01/tmpwzsktf0x/40k9schvjs.sdf

>  <i_m_source_file_index>  (127) 
19

>  <i_lp_mmshare_version>  (127) 
48012

>  <i_f3d_flags>  (127) 
2

>  <s_epik_input>  (127) 
W0NIM11DKD1PKU9bQ0BdMTJbQ0BIXTNbQ0BASF00W0NASF0oW09IXSlbQ0BASF01W0NASF0oW0NAQEhdM1tPSF0pW0NAQEhdNltDSF0xW0NAQEhdNVtDQEBIXShbQ0gyXTQpW0NAQEhdMjY=

>  <s_epik_cmdline>  (127) 
J2VwaWtfcHl0aG9uJywgJy1waHQnLCAnMi4wJywgJy1waCcsICc3LjAnLCAnLXRuJywgJzgnLCAnLW1hJywgJzIwMCcsICctaW1hZScsICc8aW5maWxlLm1hZT4nLCAnLW9tYWUnLCAnPG91dGZpbGUubWFlPic=

>  <r_lp_tautomer_probability>  (127) 
1

>  <r_epik_Ionization_Penalty>  (127) 
1.20242e-06

>  <r_epik_Ionization_Penalty_Charging>  (127) 
0

>  <r_epik_Ionization_Penalty_Neutral>  (127) 
1.20242e-06

>  <r_epik_State_Penalty>  (127) 
-0

>  <r_epik_Charging_Adjusted_Penalty>  (127) 
0

>  <i_epik_Tot_Q>  (127) 
0

>  <i_epik_Tot_abs_Q>  (127) 
0

>  <s_epik_Chemistry_Notes>  (127) 
This compound has an ester and may undergo hydrolysis at high or low pH.

>  <s_lp_Force_Field>  (127) 
OPLS3e

>  <r_lp_Energy>  (127) 
407.787

>  <b_lp_Chiralities_Consistent>  (127) 
0

>  <s_lp_Variant>  (127) 
44:0-1

>  <s_i_glide_gridfile>  (127) 
pfpi4k_grid

>  <i_i_glide_lignum>  (127) 
19

>  <i_i_glide_rotatable_bonds>  (127) 
4

>  <r_i_docking_score>  (127) 
-4.43531

>  <r_i_glide_ligand_efficiency>  (127) 
-0.233437

>  <r_i_glide_ligand_efficiency_sa>  (127) 
-0.622905

>  <r_i_glide_ligand_efficiency_ln>  (127) 
-1.12445

>  <r_i_glide_gscore>  (127) 
-4.43531

>  <r_i_glide_lipo>  (127) 
-0.596033

>  <r_i_glide_hbond>  (127) 
0

>  <r_i_glide_metal>  (127) 
-0

>  <r_i_glide_rewards>  (127) 
-2.28059

>  <r_i_glide_evdw>  (127) 
-26.2022

>  <r_i_glide_ecoul>  (127) 
-3.37593

>  <r_i_glide_erotb>  (127) 
0.257808

>  <r_i_glide_esite>  (127) 
0

>  <r_i_glide_emodel>  (127) 
-43.1441

>  <r_i_glide_energy>  (127) 
-29.5781

>  <r_i_glide_einternal>  (127) 
0.980005

>  <r_i_glide_intrahb_reward>  (127) 
-0.5

>  <i_i_glide_confnum>  (127) 
4

>  <i_i_glide_posenum>  (127) 
7

>  <r_i_glide_eff_state_penalty>  (127) 
0

>  <ligand_id>  (127) 
44

>  <original_smiles>  (127) 
CC(=O)OC12C3C(O)C4C5C(O)C3CC3C5C1C4C32

>  <smiles>  (127) 
[H]OC1([H])C2([H])C([H])([H])C3([H])C4([H])C1([H])C1([H])C([H])(O[H])C2([H])C2(OC(=O)C([H])([H])[H])C3([H])C1([H])C42[H]

$$$$
44:0:2
     RDKit          3D

 37 42  0  0  1  0  0  0  0  0999 V2000
    3.4141   -1.0192   -4.7298 C   0  0  0  0  0  0  0  0  0  0  0  0
    4.0464   -0.9288   -3.3677 C   0  0  0  0  0  0  0  0  0  0  0  0
    4.2330    0.1653   -2.8864 O   0  0  0  0  0  0  0  0  0  0  0  0
    4.3692   -2.1351   -2.8126 O   0  0  0  0  0  0  0  0  0  0  0  0
    4.7457   -2.3548   -1.3936 C   0  0  2  0  0  0  0  0  0  0  0  0
    4.5816   -3.8969   -0.9993 C   0  0  2  0  0  0  0  0  0  0  0  0
    3.1506   -3.8425   -0.4156 C   0  0  1  0  0  0  0  0  0  0  0  0
    2.6050   -5.0542    0.0833 O   0  0  0  0  0  0  0  0  0  0  0  0
    3.2692   -2.6450    0.5645 C   0  0  1  0  0  0  0  0  0  0  0  0
    4.4403   -2.7891    1.6128 C   0  0  1  0  0  0  0  0  0  0  0  0
    5.1458   -4.1561    1.5618 C   0  0  1  0  0  0  0  0  0  0  0  0
    4.3564   -5.2120    2.0670 O   0  0  0  0  0  0  0  0  0  0  0  0
    5.6260   -4.3714    0.0994 C   0  0  2  0  0  0  0  0  0  0  0  0
    6.9260   -3.5499   -0.0004 C   0  0  0  0  0  0  0  0  0  0  0  0
    6.5584   -2.0664    0.1607 C   0  0  2  0  0  0  0  0  0  0  0  0
    5.4973   -1.7123    1.1842 C   0  0  1  0  0  0  0  0  0  0  0  0
    4.8481   -1.1023   -0.0085 C   0  0  2  0  0  0  0  0  0  0  0  0
    3.8457   -1.5592   -0.4128 C   0  0  1  0  0  0  0  0  0  0  0  0
    5.6212   -1.6159   -0.9614 C   0  0  2  0  0  0  0  0  0  0  0  0
    4.1074   -1.4504   -5.4371 H   0  0  0  0  0  0  0  0  0  0  0  0
    3.1484   -0.0221   -5.0820 H   0  0  0  0  0  0  0  0  0  0  0  0
    2.4953   -1.6082   -4.6799 H   0  0  0  0  0  0  0  0  0  0  0  0
    4.6432   -4.5279   -1.8863 H   0  0  0  0  0  0  0  0  0  0  0  0
    2.4672   -3.5623   -1.2220 H   0  0  0  0  0  0  0  0  0  0  0  0
    2.6151   -5.6801   -0.6292 H   0  0  0  0  0  0  0  0  0  0  0  0
    2.3121   -2.3377    0.9925 H   0  0  0  0  0  0  0  0  0  0  0  0
    4.0625   -2.5708    2.6153 H   0  0  0  0  0  0  0  0  0  0  0  0
    5.9983   -4.1129    2.2342 H   0  0  0  0  0  0  0  0  0  0  0  0
    3.5949   -5.2820    1.4972 H   0  0  0  0  0  0  0  0  0  0  0  0
    5.8531   -5.4286   -0.0366 H   0  0  0  0  0  0  0  0  0  0  0  0
    7.6509   -3.8421    0.7666 H   0  0  0  0  0  0  0  0  0  0  0  0
    7.4061   -3.7046   -0.9689 H   0  0  0  0  0  0  0  0  0  0  0  0
    7.4385   -1.4225    0.2258 H   0  0  0  0  0  0  0  0  0  0  0  0
    5.8016   -0.9906    1.9480 H   0  0  0  0  0  0  0  0  0  0  0  0
    4.7101    0.0237   -0.0037 H   0  0  0  0  0  0  0  0  0  0  0  0
    3.1435   -0.7900   -0.7600 H   0  0  0  0  0  0  0  0  0  0  0  0
    6.1044   -1.0400   -1.7845 H   0  0  0  0  0  0  0  0  0  0  0  0
  1  2  1  0
  1 20  1  0
  1 21  1  0
  1 22  1  0
  2  3  2  0
  2  4  1  0
  5  4  1  6
  5 17  1  0
  5 19  1  0
  5  6  1  0
  6 13  1  0
  6  7  1  0
  6 23  1  6
  7  8  1  0
  7  9  1  0
  7 24  1  6
  8 25  1  0
  9 18  1  0
  9 10  1  0
  9 26  1  1
 10 16  1  0
 10 11  1  0
 10 27  1  1
 11 12  1  0
 11 13  1  0
 11 28  1  1
 12 29  1  0
 13 14  1  0
 13 30  1  6
 14 15  1  0
 14 31  1  0
 14 32  1  0
 15 19  1  0
 15 16  1  0
 15 33  1  1
 16 17  1  0
 16 34  1  1
 17 18  1  0
 17 35  1  6
 18 19  1  0
 18 36  1  6
 19 37  1  6
M  END
>  <i_m_ct_stereo_status>  (128) 
1

>  <s_m_source_file>  (128) 
/var/tmp/pbs.5076255.sched01/tmpwzsktf0x/40k9schvjs.sdf

>  <i_m_source_file_index>  (128) 
19

>  <i_lp_mmshare_version>  (128) 
48012

>  <i_f3d_flags>  (128) 
2

>  <s_epik_input>  (128) 
W0NIM11DKD1PKU9bQ0BdMTJbQ0BIXTNbQ0BASF00W0NASF0oW09IXSlbQ0BASF01W0NASF0oW0NAQEhdM1tPSF0pW0NAQEhdNltDSF0xW0NAQEhdNVtDQEBIXShbQ0gyXTQpW0NAQEhdMjY=

>  <s_epik_cmdline>  (128) 
J2VwaWtfcHl0aG9uJywgJy1waHQnLCAnMi4wJywgJy1waCcsICc3LjAnLCAnLXRuJywgJzgnLCAnLW1hJywgJzIwMCcsICctaW1hZScsICc8aW5maWxlLm1hZT4nLCAnLW9tYWUnLCAnPG91dGZpbGUubWFlPic=

>  <r_lp_tautomer_probability>  (128) 
1

>  <r_epik_Ionization_Penalty>  (128) 
1.20242e-06

>  <r_epik_Ionization_Penalty_Charging>  (128) 
0

>  <r_epik_Ionization_Penalty_Neutral>  (128) 
1.20242e-06

>  <r_epik_State_Penalty>  (128) 
-0

>  <r_epik_Charging_Adjusted_Penalty>  (128) 
0

>  <i_epik_Tot_Q>  (128) 
0

>  <i_epik_Tot_abs_Q>  (128) 
0

>  <s_epik_Chemistry_Notes>  (128) 
This compound has an ester and may undergo hydrolysis at high or low pH.

>  <s_lp_Force_Field>  (128) 
OPLS3e

>  <r_lp_Energy>  (128) 
407.787

>  <b_lp_Chiralities_Consistent>  (128) 
0

>  <s_lp_Variant>  (128) 
44:0-1

>  <s_i_glide_gridfile>  (128) 
pfpi4k_grid

>  <i_i_glide_lignum>  (128) 
19

>  <i_i_glide_rotatable_bonds>  (128) 
4

>  <r_i_docking_score>  (128) 
-3.90266

>  <r_i_glide_ligand_efficiency>  (128) 
-0.205403

>  <r_i_glide_ligand_efficiency_sa>  (128) 
-0.548098

>  <r_i_glide_ligand_efficiency_ln>  (128) 
-0.989408

>  <r_i_glide_gscore>  (128) 
-3.90266

>  <r_i_glide_lipo>  (128) 
-0.356085

>  <r_i_glide_hbond>  (128) 
0

>  <r_i_glide_metal>  (128) 
-0

>  <r_i_glide_rewards>  (128) 
-2.37378

>  <r_i_glide_evdw>  (128) 
-23.2432

>  <r_i_glide_ecoul>  (128) 
-1.78964

>  <r_i_glide_erotb>  (128) 
0.257808

>  <r_i_glide_esite>  (128) 
0

>  <r_i_glide_emodel>  (128) 
-32.5788

>  <r_i_glide_energy>  (128) 
-25.0328

>  <r_i_glide_einternal>  (128) 
10.4598

>  <r_i_glide_intrahb_reward>  (128) 
-0.5

>  <i_i_glide_confnum>  (128) 
6

>  <i_i_glide_posenum>  (128) 
13

>  <r_i_glide_eff_state_penalty>  (128) 
0

>  <ligand_id>  (128) 
44

>  <original_smiles>  (128) 
CC(=O)OC12C3C(O)C4C5C(O)C3CC3C5C1C4C32

>  <smiles>  (128) 
[H]OC1([H])C2([H])C([H])([H])C3([H])C4([H])C1([H])C1([H])C([H])(O[H])C2([H])C2(OC(=O)C([H])([H])[H])C3([H])C1([H])C42[H]

$$$$
45:0:0
     RDKit          3D

 40 43  0  0  1  0  0  0  0  0999 V2000
   -1.8280   -8.0708    3.8723 C   0  0  0  0  0  0  0  0  0  0  0  0
   -0.5539   -8.0004    3.2090 N   0  0  0  0  0  0  0  0  0  0  0  0
    0.5194   -8.8632    3.2914 C   0  0  0  0  0  0  0  0  0  0  0  0
    1.4649   -8.3399    2.4736 C   0  0  0  0  0  0  0  0  0  0  0  0
    3.0212   -9.0203    2.1639 Cl  0  0  0  0  0  0  0  0  0  0  0  0
    0.8995   -7.1544    1.9261 C   0  0  0  0  0  0  0  0  0  0  0  0
    1.6149   -6.2898    0.9332 C   0  0  0  0  0  0  0  0  0  0  0  0
    1.0141   -5.8552   -0.0475 O   0  0  0  0  0  0  0  0  0  0  0  0
    2.8740   -5.9724    1.2547 N   0  0  0  0  0  0  0  0  0  0  0  0
    3.7666   -5.1106    0.4821 C   0  0  2  0  0  0  0  0  0  0  0  0
    5.1495   -5.0293    1.1774 C   0  0  2  0  0  0  0  0  0  0  0  0
    5.0189   -4.3573    2.5667 C   0  0  0  0  0  0  0  0  0  0  0  0
    4.4410   -2.9336    2.3963 C   0  0  1  0  0  0  0  0  0  0  0  0
    5.3968   -2.0959    1.5209 C   0  0  0  0  0  0  0  0  0  0  0  0
    5.5494   -2.7647    0.1377 C   0  0  1  0  0  0  0  0  0  0  0  0
    6.1075   -4.1950    0.2985 C   0  0  0  0  0  0  0  0  0  0  0  0
    4.1708   -2.8390   -0.5470 C   0  0  0  0  0  0  0  0  0  0  0  0
    3.2090   -3.6684    0.3252 C   0  0  2  0  0  0  0  0  0  0  0  0
    3.0578   -3.0016    1.7127 C   0  0  0  0  0  0  0  0  0  0  0  0
   -0.3326   -6.9654    2.3669 N   0  0  0  0  0  0  0  0  0  0  0  0
   -1.8587   -8.9604    4.5016 H   0  0  0  0  0  0  0  0  0  0  0  0
   -2.6169   -8.1295    3.1221 H   0  0  0  0  0  0  0  0  0  0  0  0
   -1.9710   -7.1801    4.4878 H   0  0  0  0  0  0  0  0  0  0  0  0
    0.5063   -9.7567    3.9023 H   0  0  0  0  0  0  0  0  0  0  0  0
    3.2269   -6.3243    2.1328 H   0  0  0  0  0  0  0  0  0  0  0  0
    3.8941   -5.5652   -0.5004 H   0  0  0  0  0  0  0  0  0  0  0  0
    5.5615   -6.0336    1.2951 H   0  0  0  0  0  0  0  0  0  0  0  0
    4.3787   -4.9448    3.2266 H   0  0  0  0  0  0  0  0  0  0  0  0
    5.9925   -4.3160    3.0566 H   0  0  0  0  0  0  0  0  0  0  0  0
    4.3422   -2.4658    3.3767 H   0  0  0  0  0  0  0  0  0  0  0  0
    4.9971   -1.0871    1.4004 H   0  0  0  0  0  0  0  0  0  0  0  0
    6.3659   -1.9956    2.0090 H   0  0  0  0  0  0  0  0  0  0  0  0
    6.2329   -2.1780   -0.4784 H   0  0  0  0  0  0  0  0  0  0  0  0
    7.1055   -4.1695    0.7370 H   0  0  0  0  0  0  0  0  0  0  0  0
    6.2093   -4.6548   -0.6851 H   0  0  0  0  0  0  0  0  0  0  0  0
    3.7682   -1.8370   -0.7022 H   0  0  0  0  0  0  0  0  0  0  0  0
    4.2619   -3.2869   -1.5382 H   0  0  0  0  0  0  0  0  0  0  0  0
    2.2438   -3.6662   -0.1832 H   0  0  0  0  0  0  0  0  0  0  0  0
    2.3574   -3.5586    2.3350 H   0  0  0  0  0  0  0  0  0  0  0  0
    2.6304   -2.0033    1.6038 H   0  0  0  0  0  0  0  0  0  0  0  0
  1  2  1  0
  1 21  1  0
  1 22  1  0
  1 23  1  0
  2 20  1  0
  2  3  1  0
  3  4  2  0
  3 24  1  0
  4  5  1  0
  4  6  1  0
  6  7  1  0
  6 20  2  0
  7  8  2  0
  7  9  1  0
  9 10  1  0
  9 25  1  0
 10 18  1  0
 10 11  1  0
 10 26  1  6
 11 16  1  0
 11 12  1  0
 11 27  1  1
 12 13  1  0
 12 28  1  0
 12 29  1  0
 13 19  1  0
 13 14  1  0
 13 30  1  1
 14 15  1  0
 14 31  1  0
 14 32  1  0
 15 16  1  0
 15 17  1  0
 15 33  1  6
 16 34  1  0
 16 35  1  0
 17 18  1  0
 17 36  1  0
 17 37  1  0
 18 19  1  0
 18 38  1  6
 19 39  1  0
 19 40  1  0
M  END
>  <i_m_ct_stereo_status>  (129) 
1

>  <s_m_source_file>  (129) 
/var/tmp/pbs.5076255.sched01/tmpwzsktf0x/40k9schvjs.sdf

>  <i_m_source_file_index>  (129) 
20

>  <i_lp_mmshare_version>  (129) 
48012

>  <i_f3d_flags>  (129) 
0

>  <s_epik_input>  (129) 
W0NIM11uMVtjSF1jKENsKWMobjEpQyg9TylbTkhdW0NASF0oW0NAQEhdMjMpW0NASF00W0NIMl1bQ0BASF0oW0NIMl0zKVtDSDJdW0NAQEhdKFtDSDJdMilbQ0gyXTQ=

>  <s_epik_cmdline>  (129) 
J2VwaWtfcHl0aG9uJywgJy1waHQnLCAnMi4wJywgJy1waCcsICc3LjAnLCAnLXRuJywgJzgnLCAnLW1hJywgJzIwMCcsICctaW1hZScsICc8aW5maWxlLm1hZT4nLCAnLW9tYWUnLCAnPG91dGZpbGUubWFlPic=

>  <r_lp_tautomer_probability>  (129) 
1

>  <r_epik_Ionization_Penalty>  (129) 
1.50704e-06

>  <r_epik_Ionization_Penalty_Charging>  (129) 
0

>  <r_epik_Ionization_Penalty_Neutral>  (129) 
1.50704e-06

>  <r_epik_State_Penalty>  (129) 
-0

>  <r_epik_Charging_Adjusted_Penalty>  (129) 
0

>  <i_epik_Tot_Q>  (129) 
0

>  <i_epik_Tot_abs_Q>  (129) 
0

>  <s_lp_Force_Field>  (129) 
OPLS3e

>  <r_lp_Energy>  (129) 
7.74576

>  <b_lp_Chiralities_Consistent>  (129) 
1

>  <s_lp_Variant>  (129) 
45:0-1

>  <s_i_glide_gridfile>  (129) 
pfpi4k_grid

>  <i_i_glide_lignum>  (129) 
20

>  <i_i_glide_rotatable_bonds>  (129) 
3

>  <r_i_docking_score>  (129) 
-3.74735

>  <r_i_glide_ligand_efficiency>  (129) 
-0.187367

>  <r_i_glide_ligand_efficiency_sa>  (129) 
-0.508593

>  <r_i_glide_ligand_efficiency_ln>  (129) 
-0.937838

>  <r_i_glide_gscore>  (129) 
-3.74735

>  <r_i_glide_lipo>  (129) 
-0.293075

>  <r_i_glide_hbond>  (129) 
-0.591619

>  <r_i_glide_metal>  (129) 
-0

>  <r_i_glide_rewards>  (129) 
-1.40597

>  <r_i_glide_evdw>  (129) 
-21.3322

>  <r_i_glide_ecoul>  (129) 
-6.05537

>  <r_i_glide_erotb>  (129) 
0.635304

>  <r_i_glide_esite>  (129) 
-0.117076

>  <r_i_glide_emodel>  (129) 
-34.909

>  <r_i_glide_energy>  (129) 
-27.3876

>  <r_i_glide_einternal>  (129) 
0.963093

>  <r_i_glide_intrahb_reward>  (129) 
-0

>  <i_i_glide_confnum>  (129) 
1

>  <i_i_glide_posenum>  (129) 
1

>  <r_i_glide_eff_state_penalty>  (129) 
0

>  <ligand_id>  (129) 
45

>  <original_smiles>  (129) 
Cn1cc(Cl)c(C(=O)NC2C3CC4CC(C3)CC2C4)n1

>  <smiles>  (129) 
[H]c1c(Cl)c(C(=O)N([H])C2([H])C3([H])C([H])([H])C4([H])C([H])([H])C([H])(C3([H])[H])C([H])([H])C2([H])C4([H])[H])nn1C([H])([H])[H]

$$$$
45:0:1
     RDKit          3D

 40 43  0  0  1  0  0  0  0  0999 V2000
    2.3719  -11.2413    3.3983 C   0  0  0  0  0  0  0  0  0  0  0  0
    1.5416  -10.1110    3.0643 N   0  0  0  0  0  0  0  0  0  0  0  0
    0.2077   -9.8997    3.3523 C   0  0  0  0  0  0  0  0  0  0  0  0
   -0.0991   -8.6883    2.8152 C   0  0  0  0  0  0  0  0  0  0  0  0
   -1.6405   -7.9162    2.8837 Cl  0  0  0  0  0  0  0  0  0  0  0  0
    1.1001   -8.2194    2.2022 C   0  0  0  0  0  0  0  0  0  0  0  0
    1.1995   -6.9145    1.4550 C   0  0  0  0  0  0  0  0  0  0  0  0
    0.2159   -6.2681    1.0940 O   0  0  0  0  0  0  0  0  0  0  0  0
    2.4624   -6.5370    1.2461 N   0  0  0  0  0  0  0  0  0  0  0  0
    2.9139   -5.3258    0.5694 C   0  0  2  0  0  0  0  0  0  0  0  0
    4.3777   -5.4923    0.0856 C   0  0  2  0  0  0  0  0  0  0  0  0
    5.3313   -5.6878    1.2895 C   0  0  0  0  0  0  0  0  0  0  0  0
    5.2300   -4.4644    2.2282 C   0  0  1  0  0  0  0  0  0  0  0  0
    5.6494   -3.1956    1.4577 C   0  0  0  0  0  0  0  0  0  0  0  0
    4.7145   -2.9985    0.2439 C   0  0  1  0  0  0  0  0  0  0  0  0
    4.7940   -4.2250   -0.6917 C   0  0  0  0  0  0  0  0  0  0  0  0
    3.2629   -2.8318    0.7371 C   0  0  0  0  0  0  0  0  0  0  0  0
    2.8392   -4.0976    1.5125 C   0  0  2  0  0  0  0  0  0  0  0  0
    3.7780   -4.2987    2.7265 C   0  0  0  0  0  0  0  0  0  0  0  0
    2.0945   -9.0818    2.3800 N   0  0  0  0  0  0  0  0  0  0  0  0
    1.7916  -11.9802    3.9565 H   0  0  0  0  0  0  0  0  0  0  0  0
    3.2107  -10.9053    4.0112 H   0  0  0  0  0  0  0  0  0  0  0  0
    2.7588  -11.6979    2.4835 H   0  0  0  0  0  0  0  0  0  0  0  0
   -0.3930  -10.6061    3.8954 H   0  0  0  0  0  0  0  0  0  0  0  0
    3.1698   -7.1582    1.6225 H   0  0  0  0  0  0  0  0  0  0  0  0
    2.2771   -5.1668   -0.3029 H   0  0  0  0  0  0  0  0  0  0  0  0
    4.4514   -6.3542   -0.5801 H   0  0  0  0  0  0  0  0  0  0  0  0
    5.0879   -6.6004    1.8365 H   0  0  0  0  0  0  0  0  0  0  0  0
    6.3577   -5.8181    0.9421 H   0  0  0  0  0  0  0  0  0  0  0  0
    5.8941   -4.6106    3.0806 H   0  0  0  0  0  0  0  0  0  0  0  0
    5.5911   -2.3276    2.1174 H   0  0  0  0  0  0  0  0  0  0  0  0
    6.6892   -3.2735    1.1386 H   0  0  0  0  0  0  0  0  0  0  0  0
    5.0172   -2.1044   -0.3038 H   0  0  0  0  0  0  0  0  0  0  0  0
    5.8015   -4.3321   -1.0936 H   0  0  0  0  0  0  0  0  0  0  0  0
    4.1330   -4.0834   -1.5488 H   0  0  0  0  0  0  0  0  0  0  0  0
    3.1807   -1.9517    1.3752 H   0  0  0  0  0  0  0  0  0  0  0  0
    2.5967   -2.6569   -0.1097 H   0  0  0  0  0  0  0  0  0  0  0  0
    1.8166   -3.9625    1.8687 H   0  0  0  0  0  0  0  0  0  0  0  0
    3.4802   -5.1710    3.3096 H   0  0  0  0  0  0  0  0  0  0  0  0
    3.7016   -3.4498    3.4057 H   0  0  0  0  0  0  0  0  0  0  0  0
  1  2  1  0
  1 21  1  0
  1 22  1  0
  1 23  1  0
  2 20  1  0
  2  3  1  0
  3  4  2  0
  3 24  1  0
  4  5  1  0
  4  6  1  0
  6  7  1  0
  6 20  2  0
  7  8  2  0
  7  9  1  0
  9 10  1  0
  9 25  1  0
 10 18  1  0
 10 11  1  0
 10 26  1  6
 11 16  1  0
 11 12  1  0
 11 27  1  6
 12 13  1  0
 12 28  1  0
 12 29  1  0
 13 19  1  0
 13 14  1  0
 13 30  1  1
 14 15  1  0
 14 31  1  0
 14 32  1  0
 15 16  1  0
 15 17  1  0
 15 33  1  6
 16 34  1  0
 16 35  1  0
 17 18  1  0
 17 36  1  0
 17 37  1  0
 18 19  1  0
 18 38  1  1
 19 39  1  0
 19 40  1  0
M  END
>  <i_m_ct_stereo_status>  (130) 
1

>  <s_m_source_file>  (130) 
/var/tmp/pbs.5076255.sched01/tmpwzsktf0x/40k9schvjs.sdf

>  <i_m_source_file_index>  (130) 
20

>  <i_lp_mmshare_version>  (130) 
48012

>  <i_f3d_flags>  (130) 
0

>  <s_epik_input>  (130) 
W0NIM11uMVtjSF1jKENsKWMobjEpQyg9TylbTkhdW0NASF0oW0NAQEhdMjMpW0NASF00W0NIMl1bQ0BASF0oW0NIMl0zKVtDSDJdW0NAQEhdKFtDSDJdMilbQ0gyXTQ=

>  <s_epik_cmdline>  (130) 
J2VwaWtfcHl0aG9uJywgJy1waHQnLCAnMi4wJywgJy1waCcsICc3LjAnLCAnLXRuJywgJzgnLCAnLW1hJywgJzIwMCcsICctaW1hZScsICc8aW5maWxlLm1hZT4nLCAnLW9tYWUnLCAnPG91dGZpbGUubWFlPic=

>  <r_lp_tautomer_probability>  (130) 
1

>  <r_epik_Ionization_Penalty>  (130) 
1.50704e-06

>  <r_epik_Ionization_Penalty_Charging>  (130) 
0

>  <r_epik_Ionization_Penalty_Neutral>  (130) 
1.50704e-06

>  <r_epik_State_Penalty>  (130) 
-0

>  <r_epik_Charging_Adjusted_Penalty>  (130) 
0

>  <i_epik_Tot_Q>  (130) 
0

>  <i_epik_Tot_abs_Q>  (130) 
0

>  <s_lp_Force_Field>  (130) 
OPLS3e

>  <r_lp_Energy>  (130) 
7.74576

>  <b_lp_Chiralities_Consistent>  (130) 
1

>  <s_lp_Variant>  (130) 
45:0-1

>  <s_i_glide_gridfile>  (130) 
pfpi4k_grid

>  <i_i_glide_lignum>  (130) 
20

>  <i_i_glide_rotatable_bonds>  (130) 
3

>  <r_i_docking_score>  (130) 
-3.57262

>  <r_i_glide_ligand_efficiency>  (130) 
-0.178631

>  <r_i_glide_ligand_efficiency_sa>  (130) 
-0.48488

>  <r_i_glide_ligand_efficiency_ln>  (130) 
-0.89411

>  <r_i_glide_gscore>  (130) 
-3.57262

>  <r_i_glide_lipo>  (130) 
-0.250711

>  <r_i_glide_hbond>  (130) 
-0.178389

>  <r_i_glide_metal>  (130) 
-0

>  <r_i_glide_rewards>  (130) 
-1.52568

>  <r_i_glide_evdw>  (130) 
-23.502

>  <r_i_glide_ecoul>  (130) 
-6.71824

>  <r_i_glide_erotb>  (130) 
0.635304

>  <r_i_glide_esite>  (130) 
-0.070313

>  <r_i_glide_emodel>  (130) 
-37.3466

>  <r_i_glide_energy>  (130) 
-30.2202

>  <r_i_glide_einternal>  (130) 
0.993367

>  <r_i_glide_intrahb_reward>  (130) 
-0

>  <i_i_glide_confnum>  (130) 
1

>  <i_i_glide_posenum>  (130) 
33

>  <r_i_glide_eff_state_penalty>  (130) 
0

>  <ligand_id>  (130) 
45

>  <original_smiles>  (130) 
Cn1cc(Cl)c(C(=O)NC2C3CC4CC(C3)CC2C4)n1

>  <smiles>  (130) 
[H]c1c(Cl)c(C(=O)N([H])C2([H])C3([H])C([H])([H])C4([H])C([H])([H])C([H])(C3([H])[H])C([H])([H])C2([H])C4([H])[H])nn1C([H])([H])[H]

$$$$
45:0:2
     RDKit          3D

 40 43  0  0  1  0  0  0  0  0999 V2000
    1.1969   -0.0146    2.1149 C   0  0  0  0  0  0  0  0  0  0  0  0
    0.1993    0.6980    2.8816 N   0  0  0  0  0  0  0  0  0  0  0  0
   -0.6014    1.7464    2.4862 C   0  0  0  0  0  0  0  0  0  0  0  0
   -1.3337    2.0747    3.5844 C   0  0  0  0  0  0  0  0  0  0  0  0
   -2.5312    3.3196    3.6740 Cl  0  0  0  0  0  0  0  0  0  0  0  0
   -0.9435    1.1633    4.6085 C   0  0  0  0  0  0  0  0  0  0  0  0
   -1.5549    1.1779    5.9766 C   0  0  0  0  0  0  0  0  0  0  0  0
   -1.9956    0.1492    6.4785 O   0  0  0  0  0  0  0  0  0  0  0  0
   -1.5042    2.3506    6.6189 N   0  0  0  0  0  0  0  0  0  0  0  0
   -1.9472    2.5879    7.9891 C   0  0  2  0  0  0  0  0  0  0  0  0
   -2.3468    4.0648    8.1432 C   0  0  2  0  0  0  0  0  0  0  0  0
   -1.1248    4.9879    7.9133 C   0  0  0  0  0  0  0  0  0  0  0  0
   -0.0283    4.6435    8.9425 C   0  0  1  0  0  0  0  0  0  0  0  0
   -0.5809    4.8803   10.3639 C   0  0  0  0  0  0  0  0  0  0  0  0
   -1.8109    3.9751   10.5996 C   0  0  1  0  0  0  0  0  0  0  0  0
   -2.9082    4.2955    9.5619 C   0  0  0  0  0  0  0  0  0  0  0  0
   -1.3915    2.4984   10.4525 C   0  0  0  0  0  0  0  0  0  0  0  0
   -0.8430    2.2566    9.0239 C   0  0  2  0  0  0  0  0  0  0  0  0
    0.3910    3.1635    8.7954 C   0  0  0  0  0  0  0  0  0  0  0  0
   -0.0196    0.3198    4.1609 N   0  0  0  0  0  0  0  0  0  0  0  0
    1.2499    0.4003    1.1077 H   0  0  0  0  0  0  0  0  0  0  0  0
    0.9325   -1.0724    2.0636 H   0  0  0  0  0  0  0  0  0  0  0  0
    2.1708    0.0914    2.5968 H   0  0  0  0  0  0  0  0  0  0  0  0
   -0.5745    2.1525    1.4829 H   0  0  0  0  0  0  0  0  0  0  0  0
   -1.0517    3.1164    6.1417 H   0  0  0  0  0  0  0  0  0  0  0  0
   -2.8249    1.9754    8.1946 H   0  0  0  0  0  0  0  0  0  0  0  0
   -3.1184    4.2890    7.4129 H   0  0  0  0  0  0  0  0  0  0  0  0
   -0.7355    4.8799    6.9003 H   0  0  0  0  0  0  0  0  0  0  0  0
   -1.4164    6.0349    8.0116 H   0  0  0  0  0  0  0  0  0  0  0  0
    0.8335    5.2912    8.7748 H   0  0  0  0  0  0  0  0  0  0  0  0
    0.1906    4.6544   11.1012 H   0  0  0  0  0  0  0  0  0  0  0  0
   -0.8447    5.9306   10.4957 H   0  0  0  0  0  0  0  0  0  0  0  0
   -2.2028    4.1459   11.6043 H   0  0  0  0  0  0  0  0  0  0  0  0
   -3.2483    5.3260    9.6750 H   0  0  0  0  0  0  0  0  0  0  0  0
   -3.7798    3.6587    9.7310 H   0  0  0  0  0  0  0  0  0  0  0  0
   -0.6407    2.2507   11.2045 H   0  0  0  0  0  0  0  0  0  0  0  0
   -2.2450    1.8531   10.6650 H   0  0  0  0  0  0  0  0  0  0  0  0
   -0.5461    1.2101    8.9413 H   0  0  0  0  0  0  0  0  0  0  0  0
    0.8237    2.9901    7.8102 H   0  0  0  0  0  0  0  0  0  0  0  0
    1.1769    2.9216    9.5121 H   0  0  0  0  0  0  0  0  0  0  0  0
  1  2  1  0
  1 21  1  0
  1 22  1  0
  1 23  1  0
  2 20  1  0
  2  3  1  0
  3  4  2  0
  3 24  1  0
  4  5  1  0
  4  6  1  0
  6  7  1  0
  6 20  2  0
  7  8  2  0
  7  9  1  0
  9 10  1  0
  9 25  1  0
 10 18  1  0
 10 11  1  0
 10 26  1  1
 11 16  1  0
 11 12  1  0
 11 27  1  6
 12 13  1  0
 12 28  1  0
 12 29  1  0
 13 19  1  0
 13 14  1  0
 13 30  1  6
 14 15  1  0
 14 31  1  0
 14 32  1  0
 15 16  1  0
 15 17  1  0
 15 33  1  1
 16 34  1  0
 16 35  1  0
 17 18  1  0
 17 36  1  0
 17 37  1  0
 18 19  1  0
 18 38  1  1
 19 39  1  0
 19 40  1  0
M  END
>  <i_m_ct_stereo_status>  (131) 
1

>  <s_m_source_file>  (131) 
/var/tmp/pbs.5076255.sched01/tmpwzsktf0x/40k9schvjs.sdf

>  <i_m_source_file_index>  (131) 
20

>  <i_lp_mmshare_version>  (131) 
48012

>  <i_f3d_flags>  (131) 
0

>  <s_epik_input>  (131) 
W0NIM11uMVtjSF1jKENsKWMobjEpQyg9TylbTkhdW0NASF0oW0NAQEhdMjMpW0NASF00W0NIMl1bQ0BASF0oW0NIMl0zKVtDSDJdW0NAQEhdKFtDSDJdMilbQ0gyXTQ=

>  <s_epik_cmdline>  (131) 
J2VwaWtfcHl0aG9uJywgJy1waHQnLCAnMi4wJywgJy1waCcsICc3LjAnLCAnLXRuJywgJzgnLCAnLW1hJywgJzIwMCcsICctaW1hZScsICc8aW5maWxlLm1hZT4nLCAnLW9tYWUnLCAnPG91dGZpbGUubWFlPic=

>  <r_lp_tautomer_probability>  (131) 
1

>  <r_epik_Ionization_Penalty>  (131) 
1.50704e-06

>  <r_epik_Ionization_Penalty_Charging>  (131) 
0

>  <r_epik_Ionization_Penalty_Neutral>  (131) 
1.50704e-06

>  <r_epik_State_Penalty>  (131) 
-0

>  <r_epik_Charging_Adjusted_Penalty>  (131) 
0

>  <i_epik_Tot_Q>  (131) 
0

>  <i_epik_Tot_abs_Q>  (131) 
0

>  <s_lp_Force_Field>  (131) 
OPLS3e

>  <r_lp_Energy>  (131) 
7.74576

>  <b_lp_Chiralities_Consistent>  (131) 
1

>  <s_lp_Variant>  (131) 
45:0-1

>  <s_i_glide_gridfile>  (131) 
pfpi4k_grid

>  <i_i_glide_lignum>  (131) 
20

>  <i_i_glide_rotatable_bonds>  (131) 
3

>  <r_i_docking_score>  (131) 
-2.83759

>  <r_i_glide_ligand_efficiency>  (131) 
-0.141879

>  <r_i_glide_ligand_efficiency_sa>  (131) 
-0.38512

>  <r_i_glide_ligand_efficiency_ln>  (131) 
-0.710155

>  <r_i_glide_gscore>  (131) 
-2.83759

>  <r_i_glide_lipo>  (131) 
-0.056629

>  <r_i_glide_hbond>  (131) 
-0.16

>  <r_i_glide_metal>  (131) 
-0

>  <r_i_glide_rewards>  (131) 
-1.40597

>  <r_i_glide_evdw>  (131) 
-19.1679

>  <r_i_glide_ecoul>  (131) 
-5.43609

>  <r_i_glide_erotb>  (131) 
0.635304

>  <r_i_glide_esite>  (131) 
-0.0764873

>  <r_i_glide_emodel>  (131) 
-30.1842

>  <r_i_glide_energy>  (131) 
-24.604

>  <r_i_glide_einternal>  (131) 
0.852441

>  <r_i_glide_intrahb_reward>  (131) 
-0

>  <i_i_glide_confnum>  (131) 
1

>  <i_i_glide_posenum>  (131) 
34

>  <r_i_glide_eff_state_penalty>  (131) 
0

>  <ligand_id>  (131) 
45

>  <original_smiles>  (131) 
Cn1cc(Cl)c(C(=O)NC2C3CC4CC(C3)CC2C4)n1

>  <smiles>  (131) 
[H]c1c(Cl)c(C(=O)N([H])C2([H])C3([H])C([H])([H])C4([H])C([H])([H])C([H])(C3([H])[H])C([H])([H])C2([H])C4([H])[H])nn1C([H])([H])[H]

$$$$
46:0:0
     RDKit          3D

 61 65  0  0  1  0  0  0  0  0999 V2000
    0.1680   -7.9328    2.7371 C   0  0  0  0  0  0  0  0  0  0  0  0
    1.0279   -6.9621    1.9414 C   0  0  0  0  0  0  0  0  0  0  0  0
    0.8163   -6.5092    0.7275 C   0  0  0  0  0  0  0  0  0  0  0  0
    1.9762   -5.6343    0.2618 C   0  0  1  0  0  0  0  0  0  0  0  0
    1.8910   -4.5852   -0.8691 C   0  0  0  0  0  0  0  0  0  0  0  0
    3.3204   -3.9920   -1.1295 C   0  0  1  0  0  0  0  0  0  0  0  0
    3.1081   -3.0870   -2.1963 O   0  0  0  0  0  0  0  0  0  0  0  0
    3.8185   -3.4057    0.2046 C   0  0  2  0  0  0  0  0  0  0  0  0
    4.8066   -2.1806    0.2269 C   0  0  2  0  0  0  0  0  0  0  0  0
    4.2348   -0.9427   -0.5709 C   0  0  0  0  0  0  0  0  0  0  0  0
    4.4857   -0.9177   -1.9742 O   0  0  0  0  0  0  0  0  0  0  0  0
    6.2943   -2.5075   -0.1445 C   0  0  1  0  0  0  0  0  0  0  0  0
    6.6970   -2.6301   -1.6268 C   0  0  0  0  0  0  0  0  0  0  0  0
    7.1376   -1.5006    0.6352 C   0  0  0  0  0  0  0  0  0  0  0  0
    6.2639   -0.9826    1.7842 C   0  0  0  0  0  0  0  0  0  0  0  0
    4.8915   -1.6465    1.7047 C   0  0  2  0  0  0  0  0  0  0  0  0
    4.6755   -2.6153    2.9167 C   0  0  1  0  0  0  0  0  0  0  0  0
    3.4614   -2.3710    3.5949 O   0  0  0  0  0  0  0  0  0  0  0  0
    4.8485   -4.0544    2.4559 C   0  0  1  0  0  0  0  0  0  0  0  0
    5.2732   -5.2628    3.2410 C   0  0  0  0  0  0  0  0  0  0  0  0
    5.4406   -5.2469    4.7556 C   0  0  0  0  0  0  0  0  0  0  0  0
    5.4457   -6.2345    2.3842 C   0  0  0  0  0  0  0  0  0  0  0  0
    5.0196   -5.8221    0.9618 C   0  0  0  0  0  0  0  0  0  0  0  0
    4.0556   -4.5995    1.2599 C   0  0  2  0  0  0  0  0  0  0  0  0
    2.6140   -5.2008    1.5893 C   0  0  1  0  0  0  0  0  0  0  0  0
    1.7783   -4.1988    2.1759 O   0  0  0  0  0  0  0  0  0  0  0  0
    2.3366   -6.4230    2.5192 C   0  0  0  0  0  0  0  0  0  0  0  0
   -0.1817   -7.4543    3.6458 H   0  0  0  0  0  0  0  0  0  0  0  0
    0.7427   -8.8159    2.9935 H   0  0  0  0  0  0  0  0  0  0  0  0
   -0.6927   -8.2431    2.1482 H   0  0  0  0  0  0  0  0  0  0  0  0
   -0.0238   -6.8095    0.0940 H   0  0  0  0  0  0  0  0  0  0  0  0
    2.6691   -6.3433   -0.1580 H   0  0  0  0  0  0  0  0  0  0  0  0
    1.4003   -5.0565   -1.7415 H   0  0  0  0  0  0  0  0  0  0  0  0
    1.2553   -3.7026   -0.7207 H   0  0  0  0  0  0  0  0  0  0  0  0
    4.1103   -4.6954   -1.4125 H   0  0  0  0  0  0  0  0  0  0  0  0
    2.2407   -2.7095   -2.0948 H   0  0  0  0  0  0  0  0  0  0  0  0
    2.9417   -2.8451    0.5514 H   0  0  0  0  0  0  0  0  0  0  0  0
    3.1499   -0.8724   -0.4038 H   0  0  0  0  0  0  0  0  0  0  0  0
    4.6366   -0.0043   -0.1933 H   0  0  0  0  0  0  0  0  0  0  0  0
    4.1570   -1.7284   -2.3166 H   0  0  0  0  0  0  0  0  0  0  0  0
    6.5569   -3.4796    0.2537 H   0  0  0  0  0  0  0  0  0  0  0  0
    6.5738   -1.6705   -2.1265 H   0  0  0  0  0  0  0  0  0  0  0  0
    6.0657   -3.3294   -2.1648 H   0  0  0  0  0  0  0  0  0  0  0  0
    7.7175   -3.0290   -1.7336 H   0  0  0  0  0  0  0  0  0  0  0  0
    8.0943   -1.9441    0.9097 H   0  0  0  0  0  0  0  0  0  0  0  0
    7.3744   -0.6053    0.0775 H   0  0  0  0  0  0  0  0  0  0  0  0
    6.7321   -1.0614    2.7675 H   0  0  0  0  0  0  0  0  0  0  0  0
    6.0929    0.0778    1.6260 H   0  0  0  0  0  0  0  0  0  0  0  0
    4.1502   -0.8637    1.8342 H   0  0  0  0  0  0  0  0  0  0  0  0
    5.4254   -2.4297    3.6867 H   0  0  0  0  0  0  0  0  0  0  0  0
    2.7401   -2.6026    3.0320 H   0  0  0  0  0  0  0  0  0  0  0  0
    5.8550   -3.8817    2.0980 H   0  0  0  0  0  0  0  0  0  0  0  0
    4.4756   -5.0282    5.2031 H   0  0  0  0  0  0  0  0  0  0  0  0
    6.1559   -4.4913    5.0640 H   0  0  0  0  0  0  0  0  0  0  0  0
    5.7710   -6.2252    5.1014 H   0  0  0  0  0  0  0  0  0  0  0  0
    5.7666   -7.2551    2.6271 H   0  0  0  0  0  0  0  0  0  0  0  0
    5.9111   -5.5670    0.4076 H   0  0  0  0  0  0  0  0  0  0  0  0
    4.5884   -6.6716    0.4608 H   0  0  0  0  0  0  0  0  0  0  0  0
    1.8646   -3.4485    1.6219 H   0  0  0  0  0  0  0  0  0  0  0  0
    2.2396   -6.1594    3.5734 H   0  0  0  0  0  0  0  0  0  0  0  0
    3.0638   -7.2300    2.4134 H   0  0  0  0  0  0  0  0  0  0  0  0
  1  2  1  0
  1 28  1  0
  1 29  1  0
  1 30  1  0
  2 27  1  0
  2  3  2  0
  3  4  1  0
  3 31  1  0
  4 25  1  0
  4  5  1  0
  4 32  1  6
  5  6  1  0
  5 33  1  0
  5 34  1  0
  6  7  1  0
  6  8  1  0
  6 35  1  6
  7 36  1  0
  8 24  1  0
  8  9  1  0
  8 37  1  1
  9 16  1  0
  9 10  1  6
  9 12  1  0
 10 11  1  0
 10 38  1  0
 10 39  1  0
 11 40  1  0
 12 13  1  0
 12 14  1  0
 12 41  1  1
 13 42  1  0
 13 43  1  0
 13 44  1  0
 14 15  1  0
 14 45  1  0
 14 46  1  0
 15 16  1  0
 15 47  1  0
 15 48  1  0
 16 17  1  0
 16 49  1  6
 17 18  1  0
 17 19  1  0
 17 50  1  1
 18 51  1  0
 19 24  1  0
 19 20  1  0
 19 52  1  6
 20 21  1  0
 20 22  2  0
 21 53  1  0
 21 54  1  0
 21 55  1  0
 22 23  1  0
 22 56  1  0
 24 23  1  6
 23 57  1  0
 23 58  1  0
 24 25  1  0
 25 26  1  1
 25 27  1  0
 26 59  1  0
 27 60  1  0
 27 61  1  0
M  END
>  <i_m_ct_stereo_status>  (132) 
1

>  <s_m_source_file>  (132) 
/var/tmp/pbs.5076255.sched01/tmpwzsktf0x/40k9schvjs.sdf

>  <i_m_source_file_index>  (132) 
21

>  <i_lp_mmshare_version>  (132) 
48012

>  <i_f3d_flags>  (132) 
0

>  <s_epik_input>  (132) 
W0NIM11DKD1bQ0hdMSlbQ0gyXVtDQF0yKFtPSF0pW0NAQEhdMVtDSDJdW0NAQEhdKFtPSF0pW0NAQEhdKFtDQF0yMzQpW0NAQF01KFtDSDJdW09IXSlbQ0BIXShbQ0gyXVtDSDJdW0NAQEhdNVtDSDNdKVtDQEBIXShbT0hdKVtDQEhdM0MoW0NIM10pPVtDSF1bQ0gyXTQ=

>  <s_epik_cmdline>  (132) 
J2VwaWtfcHl0aG9uJywgJy1waHQnLCAnMi4wJywgJy1waCcsICc3LjAnLCAnLXRuJywgJzgnLCAnLW1hJywgJzIwMCcsICctaW1hZScsICc8aW5maWxlLm1hZT4nLCAnLW9tYWUnLCAnPG91dGZpbGUubWFlPic=

>  <r_lp_tautomer_probability>  (132) 
1

>  <r_epik_Ionization_Penalty>  (132) 
2.7707e-06

>  <r_epik_Ionization_Penalty_Charging>  (132) 
0

>  <r_epik_Ionization_Penalty_Neutral>  (132) 
2.7707e-06

>  <r_epik_State_Penalty>  (132) 
-0

>  <r_epik_Charging_Adjusted_Penalty>  (132) 
0

>  <i_epik_Tot_Q>  (132) 
0

>  <i_epik_Tot_abs_Q>  (132) 
0

>  <s_lp_Force_Field>  (132) 
OPLS3e

>  <r_lp_Energy>  (132) 
68.2426

>  <b_lp_Chiralities_Consistent>  (132) 
1

>  <s_lp_Variant>  (132) 
46:0-1

>  <s_i_glide_gridfile>  (132) 
pfpi4k_grid

>  <i_i_glide_lignum>  (132) 
21

>  <i_i_glide_rotatable_bonds>  (132) 
5

>  <r_i_docking_score>  (132) 
-2.66204

>  <r_i_glide_ligand_efficiency>  (132) 
-0.098594

>  <r_i_glide_ligand_efficiency_sa>  (132) 
-0.295782

>  <r_i_glide_ligand_efficiency_ln>  (132) 
-0.619679

>  <r_i_glide_gscore>  (132) 
-2.66204

>  <r_i_glide_lipo>  (132) 
-0.3363

>  <r_i_glide_hbond>  (132) 
0

>  <r_i_glide_metal>  (132) 
-0

>  <r_i_glide_rewards>  (132) 
-1.35559

>  <r_i_glide_evdw>  (132) 
-15.0212

>  <r_i_glide_ecoul>  (132) 
-2.3797

>  <r_i_glide_erotb>  (132) 
0.137864

>  <r_i_glide_esite>  (132) 
0

>  <r_i_glide_emodel>  (132) 
-22.3108

>  <r_i_glide_energy>  (132) 
-17.4009

>  <r_i_glide_einternal>  (132) 
7.20258

>  <r_i_glide_intrahb_reward>  (132) 
-0.5

>  <i_i_glide_confnum>  (132) 
6

>  <i_i_glide_posenum>  (132) 
2

>  <r_i_glide_eff_state_penalty>  (132) 
0

>  <ligand_id>  (132) 
46

>  <original_smiles>  (132) 
CC1=CC2CC(O)C3C4(CO)C(C)CCC4C(O)C4C(C)=CCC43C2(O)C1

>  <smiles>  (132) 
[H]OC([H])([H])C12C([H])(C([H])([H])[H])C([H])([H])C([H])([H])C1([H])C([H])(O[H])C1([H])C(C([H])([H])[H])=C([H])C([H])([H])C13C2([H])C([H])(O[H])C([H])([H])C1([H])C([H])=C(C([H])([H])[H])C([H])([H])C13O[H]

$$$$
46:0:1
     RDKit          3D

 61 65  0  0  1  0  0  0  0  0999 V2000
    4.2482   -2.9825   -3.7723 C   0  0  0  0  0  0  0  0  0  0  0  0
    4.2512   -2.5898   -2.3163 C   0  0  0  0  0  0  0  0  0  0  0  0
    4.1319   -1.3595   -1.7996 C   0  0  0  0  0  0  0  0  0  0  0  0
    4.3421   -1.4224   -0.3079 C   0  0  1  0  0  0  0  0  0  0  0  0
    3.7329   -0.3842    0.6365 C   0  0  0  0  0  0  0  0  0  0  0  0
    4.2071   -0.7076    2.0777 C   0  0  1  0  0  0  0  0  0  0  0  0
    3.6940    0.3383    2.8687 O   0  0  0  0  0  0  0  0  0  0  0  0
    3.7341   -2.1486    2.4565 C   0  0  2  0  0  0  0  0  0  0  0  0
    3.3479   -2.5930    3.9343 C   0  0  2  0  0  0  0  0  0  0  0  0
    2.3655   -1.5887    4.6369 C   0  0  0  0  0  0  0  0  0  0  0  0
    1.2060   -1.3033    3.8755 O   0  0  0  0  0  0  0  0  0  0  0  0
    4.5622   -2.8346    4.8861 C   0  0  1  0  0  0  0  0  0  0  0  0
    5.2233   -1.6020    5.5333 C   0  0  0  0  0  0  0  0  0  0  0  0
    4.0859   -3.8659    5.9191 C   0  0  0  0  0  0  0  0  0  0  0  0
    2.8788   -4.5960    5.3123 C   0  0  0  0  0  0  0  0  0  0  0  0
    2.5855   -3.9873    3.9238 C   0  0  2  0  0  0  0  0  0  0  0  0
    2.8855   -4.9978    2.7592 C   0  0  1  0  0  0  0  0  0  0  0  0
    1.8203   -5.1158    1.8468 O   0  0  0  0  0  0  0  0  0  0  0  0
    4.1881   -4.6232    2.0704 C   0  0  1  0  0  0  0  0  0  0  0  0
    5.1260   -5.5224    1.3401 C   0  0  0  0  0  0  0  0  0  0  0  0
    4.8201   -6.9638    1.0051 C   0  0  0  0  0  0  0  0  0  0  0  0
    6.2223   -4.8041    1.0736 C   0  0  0  0  0  0  0  0  0  0  0  0
    6.0238   -3.3407    1.4777 C   0  0  0  0  0  0  0  0  0  0  0  0
    4.4560   -3.2116    1.5239 C   0  0  2  0  0  0  0  0  0  0  0  0
    3.9745   -2.8863    0.0451 C   0  0  1  0  0  0  0  0  0  0  0  0
    2.5683   -3.0486   -0.0508 O   0  0  0  0  0  0  0  0  0  0  0  0
    4.4725   -3.6271   -1.2295 C   0  0  0  0  0  0  0  0  0  0  0  0
    3.4329   -3.6775   -3.9678 H   0  0  0  0  0  0  0  0  0  0  0  0
    5.1868   -3.4768   -4.0216 H   0  0  0  0  0  0  0  0  0  0  0  0
    4.1253   -2.1051   -4.4040 H   0  0  0  0  0  0  0  0  0  0  0  0
    4.0086   -0.4432   -2.3544 H   0  0  0  0  0  0  0  0  0  0  0  0
    5.4134   -1.2540   -0.2334 H   0  0  0  0  0  0  0  0  0  0  0  0
    4.0632    0.6161    0.3667 H   0  0  0  0  0  0  0  0  0  0  0  0
    2.6401   -0.3874    0.5763 H   0  0  0  0  0  0  0  0  0  0  0  0
    5.2956   -0.6595    2.1271 H   0  0  0  0  0  0  0  0  0  0  0  0
    4.0582    1.1620    2.5674 H   0  0  0  0  0  0  0  0  0  0  0  0
    2.7105   -2.1189    2.0959 H   0  0  0  0  0  0  0  0  0  0  0  0
    2.0299   -1.9852    5.5966 H   0  0  0  0  0  0  0  0  0  0  0  0
    2.8391   -0.6406    4.8869 H   0  0  0  0  0  0  0  0  0  0  0  0
    1.4865   -0.8398    3.0961 H   0  0  0  0  0  0  0  0  0  0  0  0
    5.3643   -3.3070    4.3358 H   0  0  0  0  0  0  0  0  0  0  0  0
    4.5724   -1.0978    6.2477 H   0  0  0  0  0  0  0  0  0  0  0  0
    5.5247   -0.8774    4.7786 H   0  0  0  0  0  0  0  0  0  0  0  0
    6.1206   -1.8948    6.0812 H   0  0  0  0  0  0  0  0  0  0  0  0
    4.8841   -4.5646    6.1761 H   0  0  0  0  0  0  0  0  0  0  0  0
    3.7805   -3.3826    6.8500 H   0  0  0  0  0  0  0  0  0  0  0  0
    3.0384   -5.6756    5.2863 H   0  0  0  0  0  0  0  0  0  0  0  0
    2.0149   -4.4366    5.9598 H   0  0  0  0  0  0  0  0  0  0  0  0
    1.5064   -3.8173    3.8862 H   0  0  0  0  0  0  0  0  0  0  0  0
    2.9820   -6.0036    3.1635 H   0  0  0  0  0  0  0  0  0  0  0  0
    2.1388   -5.6118    1.1062 H   0  0  0  0  0  0  0  0  0  0  0  0
    4.7557   -4.6976    2.9909 H   0  0  0  0  0  0  0  0  0  0  0  0
    3.9608   -6.9964    0.3347 H   0  0  0  0  0  0  0  0  0  0  0  0
    4.5903   -7.5358    1.9047 H   0  0  0  0  0  0  0  0  0  0  0  0
    5.6642   -7.4279    0.4972 H   0  0  0  0  0  0  0  0  0  0  0  0
    7.1083   -5.1618    0.5698 H   0  0  0  0  0  0  0  0  0  0  0  0
    6.4771   -3.1819    2.4517 H   0  0  0  0  0  0  0  0  0  0  0  0
    6.5355   -2.6833    0.7827 H   0  0  0  0  0  0  0  0  0  0  0  0
    2.2009   -2.2704   -0.4714 H   0  0  0  0  0  0  0  0  0  0  0  0
    3.9287   -4.5499   -1.4165 H   0  0  0  0  0  0  0  0  0  0  0  0
    5.5379   -3.8489   -1.2195 H   0  0  0  0  0  0  0  0  0  0  0  0
  1  2  1  0
  1 28  1  0
  1 29  1  0
  1 30  1  0
  2 27  1  0
  2  3  2  0
  3  4  1  0
  3 31  1  0
  4 25  1  0
  4  5  1  0
  4 32  1  6
  5  6  1  0
  5 33  1  0
  5 34  1  0
  6  7  1  0
  6  8  1  0
  6 35  1  6
  7 36  1  0
  8 24  1  0
  8  9  1  0
  8 37  1  6
  9 16  1  0
  9 10  1  1
  9 12  1  0
 10 11  1  0
 10 38  1  0
 10 39  1  0
 11 40  1  0
 12 13  1  0
 12 14  1  0
 12 41  1  6
 13 42  1  0
 13 43  1  0
 13 44  1  0
 14 15  1  0
 14 45  1  0
 14 46  1  0
 15 16  1  0
 15 47  1  0
 15 48  1  0
 16 17  1  0
 16 49  1  1
 17 18  1  0
 17 19  1  0
 17 50  1  1
 18 51  1  0
 19 24  1  0
 19 20  1  0
 19 52  1  1
 20 21  1  0
 20 22  2  0
 21 53  1  0
 21 54  1  0
 21 55  1  0
 22 23  1  0
 22 56  1  0
 24 23  1  6
 23 57  1  0
 23 58  1  0
 24 25  1  0
 25 26  1  1
 25 27  1  0
 26 59  1  0
 27 60  1  0
 27 61  1  0
M  END
>  <i_m_ct_stereo_status>  (133) 
1

>  <s_m_source_file>  (133) 
/var/tmp/pbs.5076255.sched01/tmpwzsktf0x/40k9schvjs.sdf

>  <i_m_source_file_index>  (133) 
21

>  <i_lp_mmshare_version>  (133) 
48012

>  <i_f3d_flags>  (133) 
0

>  <s_epik_input>  (133) 
W0NIM11DKD1bQ0hdMSlbQ0gyXVtDQF0yKFtPSF0pW0NAQEhdMVtDSDJdW0NAQEhdKFtPSF0pW0NAQEhdKFtDQF0yMzQpW0NAQF01KFtDSDJdW09IXSlbQ0BIXShbQ0gyXVtDSDJdW0NAQEhdNVtDSDNdKVtDQEBIXShbT0hdKVtDQEhdM0MoW0NIM10pPVtDSF1bQ0gyXTQ=

>  <s_epik_cmdline>  (133) 
J2VwaWtfcHl0aG9uJywgJy1waHQnLCAnMi4wJywgJy1waCcsICc3LjAnLCAnLXRuJywgJzgnLCAnLW1hJywgJzIwMCcsICctaW1hZScsICc8aW5maWxlLm1hZT4nLCAnLW9tYWUnLCAnPG91dGZpbGUubWFlPic=

>  <r_lp_tautomer_probability>  (133) 
1

>  <r_epik_Ionization_Penalty>  (133) 
2.7707e-06

>  <r_epik_Ionization_Penalty_Charging>  (133) 
0

>  <r_epik_Ionization_Penalty_Neutral>  (133) 
2.7707e-06

>  <r_epik_State_Penalty>  (133) 
-0

>  <r_epik_Charging_Adjusted_Penalty>  (133) 
0

>  <i_epik_Tot_Q>  (133) 
0

>  <i_epik_Tot_abs_Q>  (133) 
0

>  <s_lp_Force_Field>  (133) 
OPLS3e

>  <r_lp_Energy>  (133) 
68.2426

>  <b_lp_Chiralities_Consistent>  (133) 
1

>  <s_lp_Variant>  (133) 
46:0-1

>  <s_i_glide_gridfile>  (133) 
pfpi4k_grid

>  <i_i_glide_lignum>  (133) 
21

>  <i_i_glide_rotatable_bonds>  (133) 
5

>  <r_i_docking_score>  (133) 
-2.60506

>  <r_i_glide_ligand_efficiency>  (133) 
-0.0964836

>  <r_i_glide_ligand_efficiency_sa>  (133) 
-0.289451

>  <r_i_glide_ligand_efficiency_ln>  (133) 
-0.606414

>  <r_i_glide_gscore>  (133) 
-2.60506

>  <r_i_glide_lipo>  (133) 
-0.607337

>  <r_i_glide_hbond>  (133) 
0

>  <r_i_glide_metal>  (133) 
-0

>  <r_i_glide_rewards>  (133) 
-0.855589

>  <r_i_glide_evdw>  (133) 
-19.5841

>  <r_i_glide_ecoul>  (133) 
-2.00526

>  <r_i_glide_erotb>  (133) 
0.137864

>  <r_i_glide_esite>  (133) 
0

>  <r_i_glide_emodel>  (133) 
-24.5862

>  <r_i_glide_energy>  (133) 
-21.5894

>  <r_i_glide_einternal>  (133) 
1.68599

>  <r_i_glide_intrahb_reward>  (133) 
-0

>  <i_i_glide_confnum>  (133) 
1

>  <i_i_glide_posenum>  (133) 
40

>  <r_i_glide_eff_state_penalty>  (133) 
0

>  <ligand_id>  (133) 
46

>  <original_smiles>  (133) 
CC1=CC2CC(O)C3C4(CO)C(C)CCC4C(O)C4C(C)=CCC43C2(O)C1

>  <smiles>  (133) 
[H]OC([H])([H])C12C([H])(C([H])([H])[H])C([H])([H])C([H])([H])C1([H])C([H])(O[H])C1([H])C(C([H])([H])[H])=C([H])C([H])([H])C13C2([H])C([H])(O[H])C([H])([H])C1([H])C([H])=C(C([H])([H])[H])C([H])([H])C13O[H]

$$$$
46:0:2
     RDKit          3D

 61 65  0  0  1  0  0  0  0  0999 V2000
    4.0626   -2.9428   -3.7016 C   0  0  0  0  0  0  0  0  0  0  0  0
    4.1095   -2.5626   -2.2411 C   0  0  0  0  0  0  0  0  0  0  0  0
    4.0054   -1.3345   -1.7098 C   0  0  0  0  0  0  0  0  0  0  0  0
    4.2595   -1.4050   -0.2229 C   0  0  1  0  0  0  0  0  0  0  0  0
    3.6793   -0.3708    0.7535 C   0  0  0  0  0  0  0  0  0  0  0  0
    4.1991   -0.7161    2.1768 C   0  0  1  0  0  0  0  0  0  0  0  0
    3.7436    0.3050    3.0285 O   0  0  0  0  0  0  0  0  0  0  0  0
    3.7394   -2.1589    2.5533 C   0  0  2  0  0  0  0  0  0  0  0  0
    3.4038   -2.6121    4.0402 C   0  0  2  0  0  0  0  0  0  0  0  0
    2.4427   -1.6161    4.7844 C   0  0  0  0  0  0  0  0  0  0  0  0
    1.2544   -1.3264    4.0704 O   0  0  0  0  0  0  0  0  0  0  0  0
    4.6497   -2.8589    4.9473 C   0  0  1  0  0  0  0  0  0  0  0  0
    5.3303   -1.6310    5.5824 C   0  0  0  0  0  0  0  0  0  0  0  0
    4.2088   -3.8981    5.9879 C   0  0  0  0  0  0  0  0  0  0  0  0
    2.9828   -4.6249    5.4168 C   0  0  0  0  0  0  0  0  0  0  0  0
    2.6451   -4.0069    4.0431 C   0  0  2  0  0  0  0  0  0  0  0  0
    2.9070   -5.0089    2.8607 C   0  0  1  0  0  0  0  0  0  0  0  0
    1.8162   -5.1120    1.9868 O   0  0  0  0  0  0  0  0  0  0  0  0
    4.1887   -4.6271    2.1339 C   0  0  1  0  0  0  0  0  0  0  0  0
    5.1031   -5.5218    1.3660 C   0  0  0  0  0  0  0  0  0  0  0  0
    4.7853   -6.9606    1.0302 C   0  0  0  0  0  0  0  0  0  0  0  0
    6.1882   -4.7996    1.0680 C   0  0  0  0  0  0  0  0  0  0  0  0
    6.0014   -3.3389    1.4895 C   0  0  0  0  0  0  0  0  0  0  0  0
    4.4381   -3.2110    1.5885 C   0  0  2  0  0  0  0  0  0  0  0  0
    3.9097   -2.8749    0.1293 C   0  0  1  0  0  0  0  0  0  0  0  0
    2.5024   -3.0466    0.0710 O   0  0  0  0  0  0  0  0  0  0  0  0
    4.3669   -3.6074   -1.1658 C   0  0  0  0  0  0  0  0  0  0  0  0
    3.2410   -3.6365   -3.8755 H   0  0  0  0  0  0  0  0  0  0  0  0
    4.9936   -3.4307   -3.9907 H   0  0  0  0  0  0  0  0  0  0  0  0
    3.9149   -2.0605   -4.3214 H   0  0  0  0  0  0  0  0  0  0  0  0
    3.8644   -0.4166   -2.2599 H   0  0  0  0  0  0  0  0  0  0  0  0
    5.3326   -1.2377   -0.1840 H   0  0  0  0  0  0  0  0  0  0  0  0
    3.9907    0.6394    0.4847 H   0  0  0  0  0  0  0  0  0  0  0  0
    2.5866   -0.3809    0.7209 H   0  0  0  0  0  0  0  0  0  0  0  0
    5.2879   -0.6700    2.1851 H   0  0  0  0  0  0  0  0  0  0  0  0
    3.1799    0.8898    2.5397 H   0  0  0  0  0  0  0  0  0  0  0  0
    2.7045   -2.1302    2.2219 H   0  0  0  0  0  0  0  0  0  0  0  0
    2.1445   -2.0203    5.7517 H   0  0  0  0  0  0  0  0  0  0  0  0
    2.9224   -0.6725    5.0351 H   0  0  0  0  0  0  0  0  0  0  0  0
    1.5007   -0.8945    3.2620 H   0  0  0  0  0  0  0  0  0  0  0  0
    5.4335   -3.3264    4.3674 H   0  0  0  0  0  0  0  0  0  0  0  0
    4.7030   -1.1320    6.3208 H   0  0  0  0  0  0  0  0  0  0  0  0
    5.6094   -0.9003    4.8251 H   0  0  0  0  0  0  0  0  0  0  0  0
    6.2431   -1.9283    6.1010 H   0  0  0  0  0  0  0  0  0  0  0  0
    5.0153   -4.5984    6.2135 H   0  0  0  0  0  0  0  0  0  0  0  0
    3.9335   -3.4219    6.9320 H   0  0  0  0  0  0  0  0  0  0  0  0
    3.1421   -5.7036    5.3769 H   0  0  0  0  0  0  0  0  0  0  0  0
    2.1396   -4.4706    6.0927 H   0  0  0  0  0  0  0  0  0  0  0  0
    1.5665   -3.8376    4.0407 H   0  0  0  0  0  0  0  0  0  0  0  0
    3.0191   -6.0186    3.2580 H   0  0  0  0  0  0  0  0  0  0  0  0
    2.0868   -5.6659    1.2677 H   0  0  0  0  0  0  0  0  0  0  0  0
    4.7867   -4.7073    3.0337 H   0  0  0  0  0  0  0  0  0  0  0  0
    3.9058   -6.9881    0.3878 H   0  0  0  0  0  0  0  0  0  0  0  0
    4.5816   -7.5358    1.9332 H   0  0  0  0  0  0  0  0  0  0  0  0
    5.6109   -7.4206    0.4870 H   0  0  0  0  0  0  0  0  0  0  0  0
    7.0569   -5.1522    0.5339 H   0  0  0  0  0  0  0  0  0  0  0  0
    6.4859   -3.1862    2.4484 H   0  0  0  0  0  0  0  0  0  0  0  0
    6.4887   -2.6759    0.7835 H   0  0  0  0  0  0  0  0  0  0  0  0
    2.1290   -2.2871   -0.3681 H   0  0  0  0  0  0  0  0  0  0  0  0
    3.8188   -4.5318   -1.3408 H   0  0  0  0  0  0  0  0  0  0  0  0
    5.4334   -3.8269   -1.1938 H   0  0  0  0  0  0  0  0  0  0  0  0
  1  2  1  0
  1 28  1  0
  1 29  1  0
  1 30  1  0
  2 27  1  0
  2  3  2  0
  3  4  1  0
  3 31  1  0
  4 25  1  0
  4  5  1  0
  4 32  1  6
  5  6  1  0
  5 33  1  0
  5 34  1  0
  6  7  1  0
  6  8  1  0
  6 35  1  6
  7 36  1  0
  8 24  1  0
  8  9  1  0
  8 37  1  6
  9 16  1  0
  9 10  1  1
  9 12  1  0
 10 11  1  0
 10 38  1  0
 10 39  1  0
 11 40  1  0
 12 13  1  0
 12 14  1  0
 12 41  1  6
 13 42  1  0
 13 43  1  0
 13 44  1  0
 14 15  1  0
 14 45  1  0
 14 46  1  0
 15 16  1  0
 15 47  1  0
 15 48  1  0
 16 17  1  0
 16 49  1  1
 17 18  1  0
 17 19  1  0
 17 50  1  1
 18 51  1  0
 19 24  1  0
 19 20  1  0
 19 52  1  1
 20 21  1  0
 20 22  2  0
 21 53  1  0
 21 54  1  0
 21 55  1  0
 22 23  1  0
 22 56  1  0
 24 23  1  6
 23 57  1  0
 23 58  1  0
 24 25  1  0
 25 26  1  1
 25 27  1  0
 26 59  1  0
 27 60  1  0
 27 61  1  0
M  END
>  <i_m_ct_stereo_status>  (134) 
1

>  <s_m_source_file>  (134) 
/var/tmp/pbs.5076255.sched01/tmpwzsktf0x/40k9schvjs.sdf

>  <i_m_source_file_index>  (134) 
21

>  <i_lp_mmshare_version>  (134) 
48012

>  <i_f3d_flags>  (134) 
0

>  <s_epik_input>  (134) 
W0NIM11DKD1bQ0hdMSlbQ0gyXVtDQF0yKFtPSF0pW0NAQEhdMVtDSDJdW0NAQEhdKFtPSF0pW0NAQEhdKFtDQF0yMzQpW0NAQF01KFtDSDJdW09IXSlbQ0BIXShbQ0gyXVtDSDJdW0NAQEhdNVtDSDNdKVtDQEBIXShbT0hdKVtDQEhdM0MoW0NIM10pPVtDSF1bQ0gyXTQ=

>  <s_epik_cmdline>  (134) 
J2VwaWtfcHl0aG9uJywgJy1waHQnLCAnMi4wJywgJy1waCcsICc3LjAnLCAnLXRuJywgJzgnLCAnLW1hJywgJzIwMCcsICctaW1hZScsICc8aW5maWxlLm1hZT4nLCAnLW9tYWUnLCAnPG91dGZpbGUubWFlPic=

>  <r_lp_tautomer_probability>  (134) 
1

>  <r_epik_Ionization_Penalty>  (134) 
2.7707e-06

>  <r_epik_Ionization_Penalty_Charging>  (134) 
0

>  <r_epik_Ionization_Penalty_Neutral>  (134) 
2.7707e-06

>  <r_epik_State_Penalty>  (134) 
-0

>  <r_epik_Charging_Adjusted_Penalty>  (134) 
0

>  <i_epik_Tot_Q>  (134) 
0

>  <i_epik_Tot_abs_Q>  (134) 
0

>  <s_lp_Force_Field>  (134) 
OPLS3e

>  <r_lp_Energy>  (134) 
68.2426

>  <b_lp_Chiralities_Consistent>  (134) 
1

>  <s_lp_Variant>  (134) 
46:0-1

>  <s_i_glide_gridfile>  (134) 
pfpi4k_grid

>  <i_i_glide_lignum>  (134) 
21

>  <i_i_glide_rotatable_bonds>  (134) 
5

>  <r_i_docking_score>  (134) 
-2.55772

>  <r_i_glide_ligand_efficiency>  (134) 
-0.0947303

>  <r_i_glide_ligand_efficiency_sa>  (134) 
-0.284191

>  <r_i_glide_ligand_efficiency_ln>  (134) 
-0.595395

>  <r_i_glide_gscore>  (134) 
-2.55772

>  <r_i_glide_lipo>  (134) 
-0.615739

>  <r_i_glide_hbond>  (134) 
0

>  <r_i_glide_metal>  (134) 
-0

>  <r_i_glide_rewards>  (134) 
-0.855589

>  <r_i_glide_evdw>  (134) 
-19.2881

>  <r_i_glide_ecoul>  (134) 
-1.45661

>  <r_i_glide_erotb>  (134) 
0.0965045

>  <r_i_glide_esite>  (134) 
0

>  <r_i_glide_emodel>  (134) 
-23.0592

>  <r_i_glide_energy>  (134) 
-20.7447

>  <r_i_glide_einternal>  (134) 
2.55894

>  <r_i_glide_intrahb_reward>  (134) 
-0

>  <i_i_glide_confnum>  (134) 
1

>  <i_i_glide_posenum>  (134) 
1

>  <r_i_glide_eff_state_penalty>  (134) 
0

>  <ligand_id>  (134) 
46

>  <original_smiles>  (134) 
CC1=CC2CC(O)C3C4(CO)C(C)CCC4C(O)C4C(C)=CCC43C2(O)C1

>  <smiles>  (134) 
[H]OC([H])([H])C12C([H])(C([H])([H])[H])C([H])([H])C([H])([H])C1([H])C([H])(O[H])C1([H])C(C([H])([H])[H])=C([H])C([H])([H])C13C2([H])C([H])(O[H])C([H])([H])C1([H])C([H])=C(C([H])([H])[H])C([H])([H])C13O[H]

$$$$
47:0:0
     RDKit          3D

 44 48  0  0  1  0  0  0  0  0999 V2000
    0.0631    1.3406    1.6364 O   0  0  0  0  0  0  0  0  0  0  0  0
    0.3606    0.8900    2.7374 C   0  0  0  0  0  0  0  0  0  0  0  0
    1.2992   -0.3037    2.8439 C   0  0  0  0  0  0  0  0  0  0  0  0
    0.9333   -1.1564    4.0628 C   0  0  0  0  0  0  0  0  0  0  0  0
    0.9836   -0.3756    5.2461 O   0  0  0  0  0  0  0  0  0  0  0  0
    0.2390    0.7804    5.2237 C   0  0  0  0  0  0  0  0  0  0  0  0
   -0.1459    1.3121    6.4645 C   0  0  0  0  0  0  0  0  0  0  0  0
   -0.9177    2.4906    6.5412 C   0  0  0  0  0  0  0  0  0  0  0  0
   -1.3277    3.1113    7.8803 C   0  0  2  0  0  0  0  0  0  0  0  0
   -0.6398    4.4939    8.0128 C   0  0  0  0  0  0  0  0  0  0  0  0
   -1.0624    5.1778    9.3405 C   0  0  1  0  0  0  0  0  0  0  0  0
   -2.5874    5.3549    9.3382 C   0  0  0  0  0  0  0  0  0  0  0  0
   -3.2750    3.9767    9.2520 C   0  0  2  0  0  0  0  0  0  0  0  0
   -2.8478    3.1046   10.4445 C   0  0  0  0  0  0  0  0  0  0  0  0
   -1.3198    2.9233   10.4211 C   0  0  2  0  0  0  0  0  0  0  0  0
   -0.6268    4.2958   10.5215 C   0  0  0  0  0  0  0  0  0  0  0  0
   -0.9086    2.2433    9.1003 C   0  0  0  0  0  0  0  0  0  0  0  0
   -2.8678    3.2902    7.9378 C   0  0  0  0  0  0  0  0  0  0  0  0
   -1.2995    3.1325    5.3420 C   0  0  0  0  0  0  0  0  0  0  0  0
   -0.8894    2.6382    4.0931 C   0  0  0  0  0  0  0  0  0  0  0  0
   -1.2547    3.3695    2.9967 O   0  0  0  0  0  0  0  0  0  0  0  0
   -0.1126    1.4530    4.0256 C   0  0  0  0  0  0  0  0  0  0  0  0
    1.2256   -0.8967    1.9356 H   0  0  0  0  0  0  0  0  0  0  0  0
    2.3219    0.0646    2.9226 H   0  0  0  0  0  0  0  0  0  0  0  0
   -0.0644   -1.5885    3.9622 H   0  0  0  0  0  0  0  0  0  0  0  0
    1.6333   -1.9868    4.1688 H   0  0  0  0  0  0  0  0  0  0  0  0
    0.1919    0.7848    7.3429 H   0  0  0  0  0  0  0  0  0  0  0  0
    0.4405    4.3760    7.9800 H   0  0  0  0  0  0  0  0  0  0  0  0
   -0.8846    5.1488    7.1835 H   0  0  0  0  0  0  0  0  0  0  0  0
   -0.5765    6.1484    9.4089 H   0  0  0  0  0  0  0  0  0  0  0  0
   -2.9025    5.8810   10.2397 H   0  0  0  0  0  0  0  0  0  0  0  0
   -2.8929    5.9796    8.4969 H   0  0  0  0  0  0  0  0  0  0  0  0
   -4.3576    4.1066    9.2728 H   0  0  0  0  0  0  0  0  0  0  0  0
   -3.1649    3.5467   11.3887 H   0  0  0  0  0  0  0  0  0  0  0  0
   -3.3409    2.1343   10.3799 H   0  0  0  0  0  0  0  0  0  0  0  0
   -1.0190    2.2947   11.2592 H   0  0  0  0  0  0  0  0  0  0  0  0
    0.4568    4.1695   10.5188 H   0  0  0  0  0  0  0  0  0  0  0  0
   -0.8755    4.7738   11.4693 H   0  0  0  0  0  0  0  0  0  0  0  0
   -1.3774    1.2621    9.0374 H   0  0  0  0  0  0  0  0  0  0  0  0
    0.1681    2.0807    9.1228 H   0  0  0  0  0  0  0  0  0  0  0  0
   -3.2224    3.8934    7.1047 H   0  0  0  0  0  0  0  0  0  0  0  0
   -3.3731    2.3307    7.8412 H   0  0  0  0  0  0  0  0  0  0  0  0
   -1.8714    4.0473    5.3590 H   0  0  0  0  0  0  0  0  0  0  0  0
   -0.7042    3.2514    2.2236 H   0  0  0  0  0  0  0  0  0  0  0  0
  1  2  2  0
  2 22  1  0
  2  3  1  0
  3  4  1  0
  3 23  1  0
  3 24  1  0
  4  5  1  0
  4 25  1  0
  4 26  1  0
  5  6  1  0
  6 22  2  0
  6  7  1  0
  7  8  2  0
  7 27  1  0
  9  8  1  6
  8 19  1  0
  9 17  1  0
  9 18  1  0
  9 10  1  0
 10 11  1  0
 10 28  1  0
 10 29  1  0
 11 16  1  0
 11 12  1  0
 11 30  1  1
 12 13  1  0
 12 31  1  0
 12 32  1  0
 13 14  1  0
 13 18  1  0
 13 33  1  6
 14 15  1  0
 14 34  1  0
 14 35  1  0
 15 16  1  0
 15 17  1  0
 15 36  1  1
 16 37  1  0
 16 38  1  0
 17 39  1  0
 17 40  1  0
 18 41  1  0
 18 42  1  0
 19 20  2  0
 19 43  1  0
 20 21  1  0
 20 22  1  0
 21 44  1  0
M  END
>  <i_m_ct_stereo_status>  (135) 
1

>  <s_m_source_file>  (135) 
/var/tmp/pbs.5076255.sched01/tmpwzsktf0x/40k9schvjs.sdf

>  <i_m_source_file_index>  (135) 
22

>  <i_lp_mmshare_version>  (135) 
48012

>  <i_f3d_flags>  (135) 
0

>  <s_epik_input>  (135) 
TzFbQ0gyXVtDSDJdQyg9TyljKGMxMiljKFtPSF0pW2NIXWMoW2NIXTIpQzM0W0NIMl1bQ0BIXTVbQ0gyXVtDQEBIXShbQ0gyXTQpW0NIMl1bQ0BIXShbQ0gyXTUpW0NIMl0z

>  <s_epik_cmdline>  (135) 
J2VwaWtfcHl0aG9uJywgJy1waHQnLCAnMi4wJywgJy1waCcsICc3LjAnLCAnLXRuJywgJzgnLCAnLW1hJywgJzIwMCcsICctaW1hZScsICc8aW5maWxlLm1hZT4nLCAnLW9tYWUnLCAnPG91dGZpbGUubWFlPic=

>  <r_lp_tautomer_probability>  (135) 
0.99995

>  <r_epik_Ionization_Penalty>  (135) 
0.00268946

>  <r_epik_Ionization_Penalty_Charging>  (135) 
0

>  <r_epik_Ionization_Penalty_Neutral>  (135) 
0.00268946

>  <r_epik_State_Penalty>  (135) 
0.00187439

>  <r_epik_Charging_Adjusted_Penalty>  (135) 
0.00187439

>  <i_epik_Tot_Q>  (135) 
0

>  <i_epik_Tot_abs_Q>  (135) 
0

>  <s_lp_Force_Field>  (135) 
OPLS3e

>  <r_lp_Energy>  (135) 
8.11092

>  <b_lp_Chiralities_Consistent>  (135) 
1

>  <s_lp_Variant>  (135) 
47:0-1

>  <s_i_glide_gridfile>  (135) 
pfpi4k_grid

>  <i_i_glide_lignum>  (135) 
22

>  <i_i_glide_rotatable_bonds>  (135) 
2

>  <r_i_docking_score>  (135) 
-3.41057

>  <r_i_glide_ligand_efficiency>  (135) 
-0.155026

>  <r_i_glide_ligand_efficiency_sa>  (135) 
-0.434389

>  <r_i_glide_ligand_efficiency_ln>  (135) 
-0.833668

>  <r_i_glide_gscore>  (135) 
-3.41057

>  <r_i_glide_lipo>  (135) 
-0.194079

>  <r_i_glide_hbond>  (135) 
0

>  <r_i_glide_metal>  (135) 
-0

>  <r_i_glide_rewards>  (135) 
-1.87471

>  <r_i_glide_evdw>  (135) 
-22.4548

>  <r_i_glide_ecoul>  (135) 
-2.55499

>  <r_i_glide_erotb>  (135) 
0.206115

>  <r_i_glide_esite>  (135) 
-0.0419128

>  <r_i_glide_emodel>  (135) 
-34.6543

>  <r_i_glide_energy>  (135) 
-25.0098

>  <r_i_glide_einternal>  (135) 
1.36697

>  <r_i_glide_intrahb_reward>  (135) 
-0.5

>  <i_i_glide_confnum>  (135) 
4

>  <i_i_glide_posenum>  (135) 
9

>  <r_i_glide_eff_state_penalty>  (135) 
0

>  <ligand_id>  (135) 
47

>  <original_smiles>  (135) 
O=C1CCOc2cc(C34CC5CC(CC(C5)C3)C4)cc(O)c21

>  <smiles>  (135) 
[H]Oc1c([H])c(C23C([H])([H])C4([H])C([H])([H])C([H])(C([H])([H])C([H])(C4([H])[H])C2([H])[H])C3([H])[H])c([H])c2c1C(=O)C([H])([H])C([H])([H])O2

$$$$
47:0:1
     RDKit          3D

 44 48  0  0  1  0  0  0  0  0999 V2000
   -1.3984    1.2639    2.0669 O   0  0  0  0  0  0  0  0  0  0  0  0
   -0.4414    1.3308    2.8450 C   0  0  0  0  0  0  0  0  0  0  0  0
    0.9338    0.8402    2.4216 C   0  0  0  0  0  0  0  0  0  0  0  0
    1.6361    0.1856    3.6168 C   0  0  0  0  0  0  0  0  0  0  0  0
    1.7487    1.1049    4.6885 O   0  0  0  0  0  0  0  0  0  0  0  0
    0.5839    1.7338    5.0692 C   0  0  0  0  0  0  0  0  0  0  0  0
    0.5441    2.2624    6.3634 C   0  0  0  0  0  0  0  0  0  0  0  0
   -0.6163    2.8950    6.8667 C   0  0  0  0  0  0  0  0  0  0  0  0
   -0.6954    3.4078    8.3127 C   0  0  2  0  0  0  0  0  0  0  0  0
   -1.9586    2.8053    8.9971 C   0  0  0  0  0  0  0  0  0  0  0  0
   -2.0537    3.3011   10.4628 C   0  0  1  0  0  0  0  0  0  0  0  0
   -0.8001    2.8527   11.2407 C   0  0  0  0  0  0  0  0  0  0  0  0
    0.4393    3.4913   10.6032 C   0  0  2  0  0  0  0  0  0  0  0  0
    0.3324    5.0259   10.6055 C   0  0  0  0  0  0  0  0  0  0  0  0
   -0.9220    5.4527    9.8138 C   0  0  2  0  0  0  0  0  0  0  0  0
   -2.1699    4.8387   10.4749 C   0  0  0  0  0  0  0  0  0  0  0  0
   -0.8094    4.9542    8.3447 C   0  0  0  0  0  0  0  0  0  0  0  0
    0.5502    3.0080    9.1540 C   0  0  0  0  0  0  0  0  0  0  0  0
   -1.7400    3.0039    6.0239 C   0  0  0  0  0  0  0  0  0  0  0  0
   -1.7157    2.4863    4.7192 C   0  0  0  0  0  0  0  0  0  0  0  0
   -2.8583    2.6040    3.9782 O   0  0  0  0  0  0  0  0  0  0  0  0
   -0.5468    1.8574    4.2212 C   0  0  0  0  0  0  0  0  0  0  0  0
    0.8210    0.1211    1.6156 H   0  0  0  0  0  0  0  0  0  0  0  0
    1.5174    1.6804    2.0433 H   0  0  0  0  0  0  0  0  0  0  0  0
    1.0956   -0.6941    3.9679 H   0  0  0  0  0  0  0  0  0  0  0  0
    2.6392   -0.1411    3.3424 H   0  0  0  0  0  0  0  0  0  0  0  0
    1.4497    2.1090    6.9264 H   0  0  0  0  0  0  0  0  0  0  0  0
   -2.8815    3.1009    8.4886 H   0  0  0  0  0  0  0  0  0  0  0  0
   -1.9436    1.7101    8.9571 H   0  0  0  0  0  0  0  0  0  0  0  0
   -2.9454    2.8640   10.9192 H   0  0  0  0  0  0  0  0  0  0  0  0
   -0.8806    3.1228   12.2937 H   0  0  0  0  0  0  0  0  0  0  0  0
   -0.7286    1.7651   11.2038 H   0  0  0  0  0  0  0  0  0  0  0  0
    1.3302    3.1814   11.1438 H   0  0  0  0  0  0  0  0  0  0  0  0
    0.2884    5.4020   11.6269 H   0  0  0  0  0  0  0  0  0  0  0  0
    1.2219    5.4615   10.1459 H   0  0  0  0  0  0  0  0  0  0  0  0
   -1.0047    6.5417    9.8336 H   0  0  0  0  0  0  0  0  0  0  0  0
   -3.0656    5.1472    9.9412 H   0  0  0  0  0  0  0  0  0  0  0  0
   -2.2791    5.1979   11.4994 H   0  0  0  0  0  0  0  0  0  0  0  0
    0.0697    5.3892    7.8708 H   0  0  0  0  0  0  0  0  0  0  0  0
   -1.6648    5.3138    7.7685 H   0  0  0  0  0  0  0  0  0  0  0  0
    0.6761    1.9276    9.1618 H   0  0  0  0  0  0  0  0  0  0  0  0
    1.4555    3.4483    8.7444 H   0  0  0  0  0  0  0  0  0  0  0  0
   -2.6587    3.4619    6.3578 H   0  0  0  0  0  0  0  0  0  0  0  0
   -2.7931    2.0877    3.1841 H   0  0  0  0  0  0  0  0  0  0  0  0
  1  2  2  0
  2 22  1  0
  2  3  1  0
  3  4  1  0
  3 23  1  0
  3 24  1  0
  4  5  1  0
  4 25  1  0
  4 26  1  0
  5  6  1  0
  6 22  2  0
  6  7  1  0
  7  8  2  0
  7 27  1  0
  9  8  1  6
  8 19  1  0
  9 17  1  0
  9 18  1  0
  9 10  1  0
 10 11  1  0
 10 28  1  0
 10 29  1  0
 11 16  1  0
 11 12  1  0
 11 30  1  1
 12 13  1  0
 12 31  1  0
 12 32  1  0
 13 14  1  0
 13 18  1  0
 13 33  1  1
 14 15  1  0
 14 34  1  0
 14 35  1  0
 15 16  1  0
 15 17  1  0
 15 36  1  6
 16 37  1  0
 16 38  1  0
 17 39  1  0
 17 40  1  0
 18 41  1  0
 18 42  1  0
 19 20  2  0
 19 43  1  0
 20 21  1  0
 20 22  1  0
 21 44  1  0
M  END
>  <i_m_ct_stereo_status>  (136) 
1

>  <s_m_source_file>  (136) 
/var/tmp/pbs.5076255.sched01/tmpwzsktf0x/40k9schvjs.sdf

>  <i_m_source_file_index>  (136) 
22

>  <i_lp_mmshare_version>  (136) 
48012

>  <i_f3d_flags>  (136) 
0

>  <s_epik_input>  (136) 
TzFbQ0gyXVtDSDJdQyg9TyljKGMxMiljKFtPSF0pW2NIXWMoW2NIXTIpQzM0W0NIMl1bQ0BIXTVbQ0gyXVtDQEBIXShbQ0gyXTQpW0NIMl1bQ0BIXShbQ0gyXTUpW0NIMl0z

>  <s_epik_cmdline>  (136) 
J2VwaWtfcHl0aG9uJywgJy1waHQnLCAnMi4wJywgJy1waCcsICc3LjAnLCAnLXRuJywgJzgnLCAnLW1hJywgJzIwMCcsICctaW1hZScsICc8aW5maWxlLm1hZT4nLCAnLW9tYWUnLCAnPG91dGZpbGUubWFlPic=

>  <r_lp_tautomer_probability>  (136) 
0.99995

>  <r_epik_Ionization_Penalty>  (136) 
0.00268946

>  <r_epik_Ionization_Penalty_Charging>  (136) 
0

>  <r_epik_Ionization_Penalty_Neutral>  (136) 
0.00268946

>  <r_epik_State_Penalty>  (136) 
0.00187439

>  <r_epik_Charging_Adjusted_Penalty>  (136) 
0.00187439

>  <i_epik_Tot_Q>  (136) 
0

>  <i_epik_Tot_abs_Q>  (136) 
0

>  <s_lp_Force_Field>  (136) 
OPLS3e

>  <r_lp_Energy>  (136) 
8.11092

>  <b_lp_Chiralities_Consistent>  (136) 
1

>  <s_lp_Variant>  (136) 
47:0-1

>  <s_i_glide_gridfile>  (136) 
pfpi4k_grid

>  <i_i_glide_lignum>  (136) 
22

>  <i_i_glide_rotatable_bonds>  (136) 
2

>  <r_i_docking_score>  (136) 
-3.07474

>  <r_i_glide_ligand_efficiency>  (136) 
-0.139761

>  <r_i_glide_ligand_efficiency_sa>  (136) 
-0.391616

>  <r_i_glide_ligand_efficiency_ln>  (136) 
-0.751579

>  <r_i_glide_gscore>  (136) 
-3.07474

>  <r_i_glide_lipo>  (136) 
-0.0410057

>  <r_i_glide_hbond>  (136) 
0

>  <r_i_glide_metal>  (136) 
-0

>  <r_i_glide_rewards>  (136) 
-1.87471

>  <r_i_glide_evdw>  (136) 
-19.906

>  <r_i_glide_ecoul>  (136) 
-2.14563

>  <r_i_glide_erotb>  (136) 
0.206115

>  <r_i_glide_esite>  (136) 
-0.0479997

>  <r_i_glide_emodel>  (136) 
-31.0902

>  <r_i_glide_energy>  (136) 
-22.0516

>  <r_i_glide_einternal>  (136) 
1.63611

>  <r_i_glide_intrahb_reward>  (136) 
-0.5

>  <i_i_glide_confnum>  (136) 
6

>  <i_i_glide_posenum>  (136) 
21

>  <r_i_glide_eff_state_penalty>  (136) 
0

>  <ligand_id>  (136) 
47

>  <original_smiles>  (136) 
O=C1CCOc2cc(C34CC5CC(CC(C5)C3)C4)cc(O)c21

>  <smiles>  (136) 
[H]Oc1c([H])c(C23C([H])([H])C4([H])C([H])([H])C([H])(C([H])([H])C([H])(C4([H])[H])C2([H])[H])C3([H])[H])c([H])c2c1C(=O)C([H])([H])C([H])([H])O2

$$$$
47:0:2
     RDKit          3D

 44 48  0  0  1  0  0  0  0  0999 V2000
    0.5069   -0.2799    2.5139 O   0  0  0  0  0  0  0  0  0  0  0  0
    0.7737    0.8575    2.9153 C   0  0  0  0  0  0  0  0  0  0  0  0
    1.6288    1.7756    2.0732 C   0  0  0  0  0  0  0  0  0  0  0  0
    2.4883    2.6677    2.9678 C   0  0  0  0  0  0  0  0  0  0  0  0
    1.6765    3.4256    3.8483 O   0  0  0  0  0  0  0  0  0  0  0  0
    0.7788    2.7013    4.5937 C   0  0  0  0  0  0  0  0  0  0  0  0
    0.3318    3.2858    5.7878 C   0  0  0  0  0  0  0  0  0  0  0  0
   -0.5786    2.6144    6.6307 C   0  0  0  0  0  0  0  0  0  0  0  0
   -1.0966    3.2377    7.9310 C   0  0  2  0  0  0  0  0  0  0  0  0
   -2.6229    3.4314    7.7864 C   0  0  0  0  0  0  0  0  0  0  0  0
   -3.2069    4.0402    9.0991 C   0  0  1  0  0  0  0  0  0  0  0  0
   -2.9155    3.0805   10.2611 C   0  0  0  0  0  0  0  0  0  0  0  0
   -1.3925    2.9123   10.4300 C   0  0  2  0  0  0  0  0  0  0  0  0
   -0.7389    4.2831   10.7003 C   0  0  0  0  0  0  0  0  0  0  0  0
   -1.0342    5.2284    9.5221 C   0  0  2  0  0  0  0  0  0  0  0  0
   -2.5538    5.4048    9.3516 C   0  0  0  0  0  0  0  0  0  0  0  0
   -0.4507    4.6198    8.2296 C   0  0  0  0  0  0  0  0  0  0  0  0
   -0.8058    2.3072    9.1385 C   0  0  0  0  0  0  0  0  0  0  0  0
   -1.0352    1.3322    6.2489 C   0  0  0  0  0  0  0  0  0  0  0  0
   -0.6055    0.7399    5.0507 C   0  0  0  0  0  0  0  0  0  0  0  0
   -1.0876   -0.5010    4.7396 O   0  0  0  0  0  0  0  0  0  0  0  0
    0.2990    1.4265    4.2044 C   0  0  0  0  0  0  0  0  0  0  0  0
    2.2548    1.1748    1.4179 H   0  0  0  0  0  0  0  0  0  0  0  0
    0.9772    2.3817    1.4438 H   0  0  0  0  0  0  0  0  0  0  0  0
    3.2000    2.0760    3.5474 H   0  0  0  0  0  0  0  0  0  0  0  0
    3.0612    3.3661    2.3607 H   0  0  0  0  0  0  0  0  0  0  0  0
    0.7212    4.2653    6.0148 H   0  0  0  0  0  0  0  0  0  0  0  0
   -2.8373    4.0831    6.9477 H   0  0  0  0  0  0  0  0  0  0  0  0
   -3.1387    2.5025    7.5735 H   0  0  0  0  0  0  0  0  0  0  0  0
   -4.2815    4.1578    8.9753 H   0  0  0  0  0  0  0  0  0  0  0  0
   -3.3672    3.4453   11.1853 H   0  0  0  0  0  0  0  0  0  0  0  0
   -3.3825    2.1190   10.0639 H   0  0  0  0  0  0  0  0  0  0  0  0
   -1.1974    2.2439   11.2700 H   0  0  0  0  0  0  0  0  0  0  0  0
   -1.1065    4.7095   11.6331 H   0  0  0  0  0  0  0  0  0  0  0  0
    0.3418    4.1609   10.8166 H   0  0  0  0  0  0  0  0  0  0  0  0
   -0.5724    6.1971    9.7051 H   0  0  0  0  0  0  0  0  0  0  0  0
   -2.7670    6.0849    8.5274 H   0  0  0  0  0  0  0  0  0  0  0  0
   -2.9778    5.8656   10.2442 H   0  0  0  0  0  0  0  0  0  0  0  0
    0.6295    4.5157    8.3430 H   0  0  0  0  0  0  0  0  0  0  0  0
   -0.6171    5.3289    7.4206 H   0  0  0  0  0  0  0  0  0  0  0  0
   -1.2365    1.3170    8.9971 H   0  0  0  0  0  0  0  0  0  0  0  0
    0.2675    2.1525    9.2519 H   0  0  0  0  0  0  0  0  0  0  0  0
   -1.7417    0.7969    6.8629 H   0  0  0  0  0  0  0  0  0  0  0  0
   -0.6937   -0.8005    3.9289 H   0  0  0  0  0  0  0  0  0  0  0  0
  1  2  2  0
  2 22  1  0
  2  3  1  0
  3  4  1  0
  3 23  1  0
  3 24  1  0
  4  5  1  0
  4 25  1  0
  4 26  1  0
  5  6  1  0
  6 22  2  0
  6  7  1  0
  7  8  2  0
  7 27  1  0
  9  8  1  6
  8 19  1  0
  9 17  1  0
  9 18  1  0
  9 10  1  0
 10 11  1  0
 10 28  1  0
 10 29  1  0
 11 16  1  0
 11 12  1  0
 11 30  1  6
 12 13  1  0
 12 31  1  0
 12 32  1  0
 13 14  1  0
 13 18  1  0
 13 33  1  1
 14 15  1  0
 14 34  1  0
 14 35  1  0
 15 16  1  0
 15 17  1  0
 15 36  1  1
 16 37  1  0
 16 38  1  0
 17 39  1  0
 17 40  1  0
 18 41  1  0
 18 42  1  0
 19 20  2  0
 19 43  1  0
 20 21  1  0
 20 22  1  0
 21 44  1  0
M  END
>  <i_m_ct_stereo_status>  (137) 
1

>  <s_m_source_file>  (137) 
/var/tmp/pbs.5076255.sched01/tmpwzsktf0x/40k9schvjs.sdf

>  <i_m_source_file_index>  (137) 
22

>  <i_lp_mmshare_version>  (137) 
48012

>  <i_f3d_flags>  (137) 
0

>  <s_epik_input>  (137) 
TzFbQ0gyXVtDSDJdQyg9TyljKGMxMiljKFtPSF0pW2NIXWMoW2NIXTIpQzM0W0NIMl1bQ0BIXTVbQ0gyXVtDQEBIXShbQ0gyXTQpW0NIMl1bQ0BIXShbQ0gyXTUpW0NIMl0z

>  <s_epik_cmdline>  (137) 
J2VwaWtfcHl0aG9uJywgJy1waHQnLCAnMi4wJywgJy1waCcsICc3LjAnLCAnLXRuJywgJzgnLCAnLW1hJywgJzIwMCcsICctaW1hZScsICc8aW5maWxlLm1hZT4nLCAnLW9tYWUnLCAnPG91dGZpbGUubWFlPic=

>  <r_lp_tautomer_probability>  (137) 
0.99995

>  <r_epik_Ionization_Penalty>  (137) 
0.00268946

>  <r_epik_Ionization_Penalty_Charging>  (137) 
0

>  <r_epik_Ionization_Penalty_Neutral>  (137) 
0.00268946

>  <r_epik_State_Penalty>  (137) 
0.00187439

>  <r_epik_Charging_Adjusted_Penalty>  (137) 
0.00187439

>  <i_epik_Tot_Q>  (137) 
0

>  <i_epik_Tot_abs_Q>  (137) 
0

>  <s_lp_Force_Field>  (137) 
OPLS3e

>  <r_lp_Energy>  (137) 
8.11092

>  <b_lp_Chiralities_Consistent>  (137) 
1

>  <s_lp_Variant>  (137) 
47:0-1

>  <s_i_glide_gridfile>  (137) 
pfpi4k_grid

>  <i_i_glide_lignum>  (137) 
22

>  <i_i_glide_rotatable_bonds>  (137) 
2

>  <r_i_docking_score>  (137) 
-3.05917

>  <r_i_glide_ligand_efficiency>  (137) 
-0.139053

>  <r_i_glide_ligand_efficiency_sa>  (137) 
-0.389633

>  <r_i_glide_ligand_efficiency_ln>  (137) 
-0.747774

>  <r_i_glide_gscore>  (137) 
-3.05917

>  <r_i_glide_lipo>  (137) 
-0.161253

>  <r_i_glide_hbond>  (137) 
0

>  <r_i_glide_metal>  (137) 
-0

>  <r_i_glide_rewards>  (137) 
-1.87471

>  <r_i_glide_evdw>  (137) 
-22.8128

>  <r_i_glide_ecoul>  (137) 
-0.387863

>  <r_i_glide_erotb>  (137) 
0.206115

>  <r_i_glide_esite>  (137) 
-0.0305095

>  <r_i_glide_emodel>  (137) 
-33.055

>  <r_i_glide_energy>  (137) 
-23.2006

>  <r_i_glide_einternal>  (137) 
0.165662

>  <r_i_glide_intrahb_reward>  (137) 
-0.5

>  <i_i_glide_confnum>  (137) 
4

>  <i_i_glide_posenum>  (137) 
15

>  <r_i_glide_eff_state_penalty>  (137) 
0

>  <ligand_id>  (137) 
47

>  <original_smiles>  (137) 
O=C1CCOc2cc(C34CC5CC(CC(C5)C3)C4)cc(O)c21

>  <smiles>  (137) 
[H]Oc1c([H])c(C23C([H])([H])C4([H])C([H])([H])C([H])(C([H])([H])C([H])(C4([H])[H])C2([H])[H])C3([H])[H])c([H])c2c1C(=O)C([H])([H])C([H])([H])O2

$$$$
48:0:0
     RDKit          3D

 30 30  0  0  1  0  0  0  0  0999 V2000
    8.1414   -1.8741    0.0420 C   0  0  0  0  0  0  0  0  0  0  0  0
    6.7269   -2.0863   -0.4970 C   0  0  0  0  0  0  0  0  0  0  0  0
    6.5710   -3.4414   -1.2656 C   0  0  0  0  0  0  0  0  0  0  0  0
    5.1307   -3.9152   -1.5948 C   0  0  2  0  0  0  0  0  0  0  0  0
    4.6352   -3.3336   -2.8084 O   0  0  0  0  0  0  0  0  0  0  0  0
    4.2685   -1.9631   -2.7329 C   0  0  1  0  0  0  0  0  0  0  0  0
    3.8884   -1.4177   -4.1288 C   0  0  0  0  0  0  0  0  0  0  0  0
    3.4589    0.0541   -4.0816 C   0  0  0  0  0  0  0  0  0  0  0  0
    3.1180   -1.8359   -1.7127 C   0  0  0  0  0  0  0  0  0  0  0  0
    3.3121   -2.6928   -0.5554 N   0  0  0  0  0  0  0  0  0  0  0  0
    2.5891   -2.2571    0.5691 O   0  0  0  0  0  0  0  0  0  0  0  0
    4.1890   -3.6890   -0.4151 C   0  0  0  0  0  0  0  0  0  0  0  0
    4.2620   -4.4062    0.5871 O   0  0  0  0  0  0  0  0  0  0  0  0
    8.1666   -0.9219    0.5636 H   0  0  0  0  0  0  0  0  0  0  0  0
    8.8714   -1.8728   -0.7630 H   0  0  0  0  0  0  0  0  0  0  0  0
    8.4179   -2.6610    0.7563 H   0  0  0  0  0  0  0  0  0  0  0  0
    6.0895   -2.0451    0.3897 H   0  0  0  0  0  0  0  0  0  0  0  0
    6.4516   -1.2442   -1.1192 H   0  0  0  0  0  0  0  0  0  0  0  0
    7.1346   -3.3947   -2.1951 H   0  0  0  0  0  0  0  0  0  0  0  0
    7.0692   -4.2232   -0.6801 H   0  0  0  0  0  0  0  0  0  0  0  0
    5.1317   -4.9870   -1.7758 H   0  0  0  0  0  0  0  0  0  0  0  0
    5.1142   -1.3782   -2.4252 H   0  0  0  0  0  0  0  0  0  0  0  0
    4.7851   -1.4600   -4.7303 H   0  0  0  0  0  0  0  0  0  0  0  0
    3.1219   -2.0302   -4.6400 H   0  0  0  0  0  0  0  0  0  0  0  0
    3.2801    0.4633   -5.0725 H   0  0  0  0  0  0  0  0  0  0  0  0
    4.2040    0.6766   -3.5863 H   0  0  0  0  0  0  0  0  0  0  0  0
    2.5411    0.1458   -3.5109 H   0  0  0  0  0  0  0  0  0  0  0  0
    3.0195   -0.7999   -1.3979 H   0  0  0  0  0  0  0  0  0  0  0  0
    2.1571   -2.1344   -2.1596 H   0  0  0  0  0  0  0  0  0  0  0  0
    2.0089   -1.5997    0.1957 H   0  0  0  0  0  0  0  0  0  0  0  0
  1  2  1  0
  1 14  1  0
  1 15  1  0
  1 16  1  0
  2  3  1  0
  2 17  1  0
  2 18  1  0
  3  4  1  0
  3 19  1  0
  3 20  1  0
  4 12  1  0
  4  5  1  0
  4 21  1  6
  5  6  1  0
  6  7  1  0
  6  9  1  0
  6 22  1  1
  7  8  1  0
  7 23  1  0
  7 24  1  0
  8 25  1  0
  8 26  1  0
  8 27  1  0
  9 10  1  0
  9 28  1  0
  9 29  1  0
 10 11  1  0
 10 12  1  0
 11 30  1  0
 12 13  2  0
M  END
>  <i_m_ct_stereo_status>  (138) 
1

>  <s_m_source_file>  (138) 
/var/tmp/pbs.5076255.sched01/tmpwzsktf0x/40k9schvjs.sdf

>  <i_m_source_file_index>  (138) 
23

>  <i_lp_mmshare_version>  (138) 
48012

>  <i_f3d_flags>  (138) 
0

>  <s_epik_input>  (138) 
W0NIM11bQ0gyXVtDSDJdW0NAQEhdMU9bQ0BASF0oW0NIMl1bQ0gzXSlbQ0gyXU4oW09IXSlDMT1P

>  <s_epik_cmdline>  (138) 
J2VwaWtfcHl0aG9uJywgJy1waHQnLCAnMi4wJywgJy1waCcsICc3LjAnLCAnLXRuJywgJzgnLCAnLW1hJywgJzIwMCcsICctaW1hZScsICc8aW5maWxlLm1hZT4nLCAnLW9tYWUnLCAnPG91dGZpbGUubWFlPic=

>  <r_epik_Ionization_Penalty>  (138) 
0.0121859

>  <r_epik_Ionization_Penalty_Charging>  (138) 
0

>  <r_epik_Ionization_Penalty_Neutral>  (138) 
0.0121859

>  <r_epik_State_Penalty>  (138) 
0.00939641

>  <r_epik_Charging_Adjusted_Penalty>  (138) 
0.00939641

>  <i_epik_Tot_Q>  (138) 
0

>  <i_epik_Tot_abs_Q>  (138) 
0

>  <s_epik_Chemistry_Notes>  (138) 
This compound has a N-S or N-O group and may undergo hydrolysis at high or low pH.

>  <s_lp_Force_Field>  (138) 
OPLS3e

>  <r_lp_Energy>  (138) 
21.1634

>  <b_lp_Chiralities_Consistent>  (138) 
1

>  <s_lp_Variant>  (138) 
48:0-1

>  <s_i_glide_gridfile>  (138) 
pfpi4k_grid

>  <i_i_glide_lignum>  (138) 
23

>  <i_i_glide_rotatable_bonds>  (138) 
4

>  <r_i_docking_score>  (138) 
-3.51146

>  <r_i_glide_ligand_efficiency>  (138) 
-0.270112

>  <r_i_glide_ligand_efficiency_sa>  (138) 
-0.635124

>  <r_i_glide_ligand_efficiency_ln>  (138) 
-0.984994

>  <r_i_glide_gscore>  (138) 
-3.51146

>  <r_i_glide_lipo>  (138) 
-0.292832

>  <r_i_glide_hbond>  (138) 
0

>  <r_i_glide_metal>  (138) 
-0

>  <r_i_glide_rewards>  (138) 
-2.14222

>  <r_i_glide_evdw>  (138) 
-17.3173

>  <r_i_glide_ecoul>  (138) 
-4.18352

>  <r_i_glide_erotb>  (138) 
0.455551

>  <r_i_glide_esite>  (138) 
-0.0385617

>  <r_i_glide_emodel>  (138) 
-22.6061

>  <r_i_glide_energy>  (138) 
-21.5008

>  <r_i_glide_einternal>  (138) 
6.11902

>  <r_i_glide_intrahb_reward>  (138) 
-0

>  <i_i_glide_confnum>  (138) 
3

>  <i_i_glide_posenum>  (138) 
29

>  <r_i_glide_eff_state_penalty>  (138) 
0

>  <ligand_id>  (138) 
48

>  <original_smiles>  (138) 
CCCC1OC(CC)CN(O)C1=O

>  <smiles>  (138) 
[H]ON1C(=O)C([H])(C([H])([H])C([H])([H])C([H])([H])[H])OC([H])(C([H])([H])C([H])([H])[H])C1([H])[H]

$$$$
48:0:1
     RDKit          3D

 30 30  0  0  1  0  0  0  0  0999 V2000
    3.5071    1.3084   -5.1192 C   0  0  0  0  0  0  0  0  0  0  0  0
    2.9054    0.1879   -4.2968 C   0  0  0  0  0  0  0  0  0  0  0  0
    3.8897   -0.3115   -3.2287 C   0  0  0  0  0  0  0  0  0  0  0  0
    3.4704   -1.6190   -2.5209 C   0  0  2  0  0  0  0  0  0  0  0  0
    4.3330   -1.8398   -1.3763 O   0  0  0  0  0  0  0  0  0  0  0  0
    5.6652   -2.2886   -1.6530 C   0  0  1  0  0  0  0  0  0  0  0  0
    6.5063   -2.3051   -0.3579 C   0  0  0  0  0  0  0  0  0  0  0  0
    7.9504   -2.7687   -0.6122 C   0  0  0  0  0  0  0  0  0  0  0  0
    5.5833   -3.6448   -2.3765 C   0  0  0  0  0  0  0  0  0  0  0  0
    4.5466   -3.6080   -3.3954 N   0  0  0  0  0  0  0  0  0  0  0  0
    4.6079   -4.6496   -4.3213 O   0  0  0  0  0  0  0  0  0  0  0  0
    3.4681   -2.8272   -3.4837 C   0  0  0  0  0  0  0  0  0  0  0  0
    2.5787   -3.0244   -4.3063 O   0  0  0  0  0  0  0  0  0  0  0  0
    2.7874    1.6596   -5.8542 H   0  0  0  0  0  0  0  0  0  0  0  0
    4.3906    0.9614   -5.6454 H   0  0  0  0  0  0  0  0  0  0  0  0
    3.7982    2.1299   -4.4695 H   0  0  0  0  0  0  0  0  0  0  0  0
    1.9937    0.5448   -3.8299 H   0  0  0  0  0  0  0  0  0  0  0  0
    2.6119   -0.5948   -4.9866 H   0  0  0  0  0  0  0  0  0  0  0  0
    4.8213   -0.5068   -3.7375 H   0  0  0  0  0  0  0  0  0  0  0  0
    4.1301    0.4763   -2.5019 H   0  0  0  0  0  0  0  0  0  0  0  0
    2.4605   -1.5307   -2.1304 H   0  0  0  0  0  0  0  0  0  0  0  0
    6.1489   -1.5767   -2.3199 H   0  0  0  0  0  0  0  0  0  0  0  0
    6.5079   -1.2999    0.0823 H   0  0  0  0  0  0  0  0  0  0  0  0
    6.0297   -2.9545    0.3769 H   0  0  0  0  0  0  0  0  0  0  0  0
    8.5414   -2.7352    0.3005 H   0  0  0  0  0  0  0  0  0  0  0  0
    8.4610   -2.1710   -1.3690 H   0  0  0  0  0  0  0  0  0  0  0  0
    7.9768   -3.7952   -0.9695 H   0  0  0  0  0  0  0  0  0  0  0  0
    6.5516   -3.8549   -2.8376 H   0  0  0  0  0  0  0  0  0  0  0  0
    5.3513   -4.4372   -1.6620 H   0  0  0  0  0  0  0  0  0  0  0  0
    5.2939   -5.2011   -3.9799 H   0  0  0  0  0  0  0  0  0  0  0  0
  1  2  1  0
  1 14  1  0
  1 15  1  0
  1 16  1  0
  2  3  1  0
  2 17  1  0
  2 18  1  0
  3  4  1  0
  3 19  1  0
  3 20  1  0
  4 12  1  0
  4  5  1  0
  4 21  1  1
  5  6  1  0
  6  7  1  0
  6  9  1  0
  6 22  1  6
  7  8  1  0
  7 23  1  0
  7 24  1  0
  8 25  1  0
  8 26  1  0
  8 27  1  0
  9 10  1  0
  9 28  1  0
  9 29  1  0
 10 11  1  0
 10 12  1  0
 11 30  1  0
 12 13  2  0
M  END
>  <i_m_ct_stereo_status>  (139) 
1

>  <s_m_source_file>  (139) 
/var/tmp/pbs.5076255.sched01/tmpwzsktf0x/40k9schvjs.sdf

>  <i_m_source_file_index>  (139) 
23

>  <i_lp_mmshare_version>  (139) 
48012

>  <i_f3d_flags>  (139) 
0

>  <s_epik_input>  (139) 
W0NIM11bQ0gyXVtDSDJdW0NAQEhdMU9bQ0BASF0oW0NIMl1bQ0gzXSlbQ0gyXU4oW09IXSlDMT1P

>  <s_epik_cmdline>  (139) 
J2VwaWtfcHl0aG9uJywgJy1waHQnLCAnMi4wJywgJy1waCcsICc3LjAnLCAnLXRuJywgJzgnLCAnLW1hJywgJzIwMCcsICctaW1hZScsICc8aW5maWxlLm1hZT4nLCAnLW9tYWUnLCAnPG91dGZpbGUubWFlPic=

>  <r_epik_Ionization_Penalty>  (139) 
0.0121859

>  <r_epik_Ionization_Penalty_Charging>  (139) 
0

>  <r_epik_Ionization_Penalty_Neutral>  (139) 
0.0121859

>  <r_epik_State_Penalty>  (139) 
0.00939641

>  <r_epik_Charging_Adjusted_Penalty>  (139) 
0.00939641

>  <i_epik_Tot_Q>  (139) 
0

>  <i_epik_Tot_abs_Q>  (139) 
0

>  <s_epik_Chemistry_Notes>  (139) 
This compound has a N-S or N-O group and may undergo hydrolysis at high or low pH.

>  <s_lp_Force_Field>  (139) 
OPLS3e

>  <r_lp_Energy>  (139) 
21.1634

>  <b_lp_Chiralities_Consistent>  (139) 
1

>  <s_lp_Variant>  (139) 
48:0-1

>  <s_i_glide_gridfile>  (139) 
pfpi4k_grid

>  <i_i_glide_lignum>  (139) 
23

>  <i_i_glide_rotatable_bonds>  (139) 
4

>  <r_i_docking_score>  (139) 
-3.49497

>  <r_i_glide_ligand_efficiency>  (139) 
-0.268844

>  <r_i_glide_ligand_efficiency_sa>  (139) 
-0.632143

>  <r_i_glide_ligand_efficiency_ln>  (139) 
-0.980371

>  <r_i_glide_gscore>  (139) 
-3.49497

>  <r_i_glide_lipo>  (139) 
-0.347539

>  <r_i_glide_hbond>  (139) 
0

>  <r_i_glide_metal>  (139) 
-0

>  <r_i_glide_rewards>  (139) 
-2.52441

>  <r_i_glide_evdw>  (139) 
-20.0808

>  <r_i_glide_ecoul>  (139) 
-0.496909

>  <r_i_glide_erotb>  (139) 
0.455551

>  <r_i_glide_esite>  (139) 
0

>  <r_i_glide_emodel>  (139) 
-24.418

>  <r_i_glide_energy>  (139) 
-20.5777

>  <r_i_glide_einternal>  (139) 
1.38949

>  <r_i_glide_intrahb_reward>  (139) 
-0

>  <i_i_glide_confnum>  (139) 
1

>  <i_i_glide_posenum>  (139) 
19

>  <r_i_glide_eff_state_penalty>  (139) 
0

>  <ligand_id>  (139) 
48

>  <original_smiles>  (139) 
CCCC1OC(CC)CN(O)C1=O

>  <smiles>  (139) 
[H]ON1C(=O)C([H])(C([H])([H])C([H])([H])C([H])([H])[H])OC([H])(C([H])([H])C([H])([H])[H])C1([H])[H]

$$$$
48:0:2
     RDKit          3D

 30 30  0  0  1  0  0  0  0  0999 V2000
    8.1773   -1.8514    0.0922 C   0  0  0  0  0  0  0  0  0  0  0  0
    6.7525   -1.9916   -0.4177 C   0  0  0  0  0  0  0  0  0  0  0  0
    6.6149   -3.0763   -1.5294 C   0  0  0  0  0  0  0  0  0  0  0  0
    5.2328   -3.7853   -1.7163 C   0  0  2  0  0  0  0  0  0  0  0  0
    4.3391   -3.0081   -2.5154 O   0  0  0  0  0  0  0  0  0  0  0  0
    3.7757   -1.8579   -1.9034 C   0  0  1  0  0  0  0  0  0  0  0  0
    2.9568   -1.0727   -2.9439 C   0  0  0  0  0  0  0  0  0  0  0  0
    3.8316   -0.3901   -3.9906 C   0  0  0  0  0  0  0  0  0  0  0  0
    2.9634   -2.3262   -0.6824 C   0  0  0  0  0  0  0  0  0  0  0  0
    3.6493   -3.3696    0.0624 N   0  0  0  0  0  0  0  0  0  0  0  0
    3.1019   -3.5795    1.3442 O   0  0  0  0  0  0  0  0  0  0  0  0
    4.5879   -4.2077   -0.3822 C   0  0  0  0  0  0  0  0  0  0  0  0
    5.0316   -5.1538    0.2511 O   0  0  0  0  0  0  0  0  0  0  0  0
    8.1804   -1.1058    0.8790 H   0  0  0  0  0  0  0  0  0  0  0  0
    8.8708   -1.5323   -0.6768 H   0  0  0  0  0  0  0  0  0  0  0  0
    8.5474   -2.7832    0.5207 H   0  0  0  0  0  0  0  0  0  0  0  0
    6.1670   -2.2216    0.4721 H   0  0  0  0  0  0  0  0  0  0  0  0
    6.4115   -1.0248   -0.7659 H   0  0  0  0  0  0  0  0  0  0  0  0
    6.8890   -2.6637   -2.5026 H   0  0  0  0  0  0  0  0  0  0  0  0
    7.3664   -3.8512   -1.3657 H   0  0  0  0  0  0  0  0  0  0  0  0
    5.3628   -4.6983   -2.2799 H   0  0  0  0  0  0  0  0  0  0  0  0
    4.5601   -1.1874   -1.5754 H   0  0  0  0  0  0  0  0  0  0  0  0
    2.1818   -1.6815   -3.4320 H   0  0  0  0  0  0  0  0  0  0  0  0
    2.4223   -0.2864   -2.4248 H   0  0  0  0  0  0  0  0  0  0  0  0
    3.2496    0.1911   -4.6978 H   0  0  0  0  0  0  0  0  0  0  0  0
    4.4399   -1.1005   -4.5521 H   0  0  0  0  0  0  0  0  0  0  0  0
    4.5176    0.3017   -3.5036 H   0  0  0  0  0  0  0  0  0  0  0  0
    2.7794   -1.4852   -0.0330 H   0  0  0  0  0  0  0  0  0  0  0  0
    1.9906   -2.7335   -0.9918 H   0  0  0  0  0  0  0  0  0  0  0  0
    2.5684   -2.8264    1.4712 H   0  0  0  0  0  0  0  0  0  0  0  0
  1  2  1  0
  1 14  1  0
  1 15  1  0
  1 16  1  0
  2  3  1  0
  2 17  1  0
  2 18  1  0
  3  4  1  0
  3 19  1  0
  3 20  1  0
  4 12  1  0
  4  5  1  0
  4 21  1  6
  5  6  1  0
  6  7  1  0
  6  9  1  0
  6 22  1  1
  7  8  1  0
  7 23  1  0
  7 24  1  0
  8 25  1  0
  8 26  1  0
  8 27  1  0
  9 10  1  0
  9 28  1  0
  9 29  1  0
 10 11  1  0
 10 12  1  0
 11 30  1  0
 12 13  2  0
M  END
>  <i_m_ct_stereo_status>  (140) 
1

>  <s_m_source_file>  (140) 
/var/tmp/pbs.5076255.sched01/tmpwzsktf0x/40k9schvjs.sdf

>  <i_m_source_file_index>  (140) 
23

>  <i_lp_mmshare_version>  (140) 
48012

>  <i_f3d_flags>  (140) 
0

>  <s_epik_input>  (140) 
W0NIM11bQ0gyXVtDSDJdW0NAQEhdMU9bQ0BASF0oW0NIMl1bQ0gzXSlbQ0gyXU4oW09IXSlDMT1P

>  <s_epik_cmdline>  (140) 
J2VwaWtfcHl0aG9uJywgJy1waHQnLCAnMi4wJywgJy1waCcsICc3LjAnLCAnLXRuJywgJzgnLCAnLW1hJywgJzIwMCcsICctaW1hZScsICc8aW5maWxlLm1hZT4nLCAnLW9tYWUnLCAnPG91dGZpbGUubWFlPic=

>  <r_epik_Ionization_Penalty>  (140) 
0.0121859

>  <r_epik_Ionization_Penalty_Charging>  (140) 
0

>  <r_epik_Ionization_Penalty_Neutral>  (140) 
0.0121859

>  <r_epik_State_Penalty>  (140) 
0.00939641

>  <r_epik_Charging_Adjusted_Penalty>  (140) 
0.00939641

>  <i_epik_Tot_Q>  (140) 
0

>  <i_epik_Tot_abs_Q>  (140) 
0

>  <s_epik_Chemistry_Notes>  (140) 
This compound has a N-S or N-O group and may undergo hydrolysis at high or low pH.

>  <s_lp_Force_Field>  (140) 
OPLS3e

>  <r_lp_Energy>  (140) 
21.1634

>  <b_lp_Chiralities_Consistent>  (140) 
1

>  <s_lp_Variant>  (140) 
48:0-1

>  <s_i_glide_gridfile>  (140) 
pfpi4k_grid

>  <i_i_glide_lignum>  (140) 
23

>  <i_i_glide_rotatable_bonds>  (140) 
4

>  <r_i_docking_score>  (140) 
-3.27203

>  <r_i_glide_ligand_efficiency>  (140) 
-0.251695

>  <r_i_glide_ligand_efficiency_sa>  (140) 
-0.591819

>  <r_i_glide_ligand_efficiency_ln>  (140) 
-0.917834

>  <r_i_glide_gscore>  (140) 
-3.27203

>  <r_i_glide_lipo>  (140) 
-0.350998

>  <r_i_glide_hbond>  (140) 
0

>  <r_i_glide_metal>  (140) 
-0

>  <r_i_glide_rewards>  (140) 
-2.15654

>  <r_i_glide_evdw>  (140) 
-16.4248

>  <r_i_glide_ecoul>  (140) 
-2.65872

>  <r_i_glide_erotb>  (140) 
0.455551

>  <r_i_glide_esite>  (140) 
0

>  <r_i_glide_emodel>  (140) 
-19.9928

>  <r_i_glide_energy>  (140) 
-19.0835

>  <r_i_glide_einternal>  (140) 
5.82175

>  <r_i_glide_intrahb_reward>  (140) 
-0

>  <i_i_glide_confnum>  (140) 
3

>  <i_i_glide_posenum>  (140) 
31

>  <r_i_glide_eff_state_penalty>  (140) 
0

>  <ligand_id>  (140) 
48

>  <original_smiles>  (140) 
CCCC1OC(CC)CN(O)C1=O

>  <smiles>  (140) 
[H]ON1C(=O)C([H])(C([H])([H])C([H])([H])C([H])([H])[H])OC([H])(C([H])([H])C([H])([H])[H])C1([H])[H]

$$$$
48:1:0
     RDKit          3D

 29 29  0  0  1  0  0  0  0  0999 V2000
    4.1511  -10.8179    3.0054 C   0  0  0  0  0  0  0  0  0  0  0  0
    4.7248   -9.7636    2.0411 C   0  0  0  0  0  0  0  0  0  0  0  0
    3.6606   -8.8496    1.3998 C   0  0  0  0  0  0  0  0  0  0  0  0
    2.8784   -7.9625    2.4065 C   0  0  2  0  0  0  0  0  0  0  0  0
    2.1311   -8.7452    3.3445 O   0  0  0  0  0  0  0  0  0  0  0  0
    0.9934   -9.3739    2.7750 C   0  0  1  0  0  0  0  0  0  0  0  0
    0.3650  -10.3435    3.7938 C   0  0  0  0  0  0  0  0  0  0  0  0
    1.1760  -11.6228    4.0759 C   0  0  0  0  0  0  0  0  0  0  0  0
    0.0273   -8.2388    2.3513 C   0  0  0  0  0  0  0  0  0  0  0  0
    0.6484   -7.1273    1.6270 N   0  0  0  0  0  0  0  0  0  0  0  0
   -0.1859   -6.2679    0.9811 O   0  0  0  0  0  0  0  0  0  0  0  0
    1.9989   -6.9339    1.6711 C   0  0  0  0  0  0  0  0  0  0  0  0
    2.5410   -5.9650    1.1173 O   0  0  0  0  0  0  0  0  0  0  0  0
    4.9218  -11.5008    3.3782 H   0  0  0  0  0  0  0  0  0  0  0  0
    3.3996  -11.4230    2.4918 H   0  0  0  0  0  0  0  0  0  0  0  0
    3.6803  -10.3303    3.8608 H   0  0  0  0  0  0  0  0  0  0  0  0
    5.4521   -9.1623    2.5910 H   0  0  0  0  0  0  0  0  0  0  0  0
    5.2760  -10.2679    1.2393 H   0  0  0  0  0  0  0  0  0  0  0  0
    4.1739   -8.2041    0.6836 H   0  0  0  0  0  0  0  0  0  0  0  0
    2.9777   -9.4499    0.7902 H   0  0  0  0  0  0  0  0  0  0  0  0
    3.6029   -7.3878    2.9901 H   0  0  0  0  0  0  0  0  0  0  0  0
    1.2684   -9.9465    1.8921 H   0  0  0  0  0  0  0  0  0  0  0  0
    0.1769   -9.8227    4.7343 H   0  0  0  0  0  0  0  0  0  0  0  0
   -0.6067  -10.6431    3.4022 H   0  0  0  0  0  0  0  0  0  0  0  0
    0.6113  -12.3027    4.7251 H   0  0  0  0  0  0  0  0  0  0  0  0
    2.1271  -11.3935    4.5527 H   0  0  0  0  0  0  0  0  0  0  0  0
    1.3657  -12.1727    3.1502 H   0  0  0  0  0  0  0  0  0  0  0  0
   -0.7845   -8.6646    1.7432 H   0  0  0  0  0  0  0  0  0  0  0  0
   -0.4373   -7.8172    3.2488 H   0  0  0  0  0  0  0  0  0  0  0  0
  1  2  1  0
  1 14  1  0
  1 15  1  0
  1 16  1  0
  2  3  1  0
  2 17  1  0
  2 18  1  0
  3  4  1  0
  3 19  1  0
  3 20  1  0
  4 12  1  0
  4  5  1  0
  4 21  1  1
  5  6  1  0
  6  7  1  0
  6  9  1  0
  6 22  1  6
  7  8  1  0
  7 23  1  0
  7 24  1  0
  8 25  1  0
  8 26  1  0
  8 27  1  0
  9 10  1  0
  9 28  1  0
  9 29  1  0
 10 11  1  0
 10 12  1  0
 12 13  2  0
M  CHG  1  11  -1
M  END
>  <i_m_ct_stereo_status>  (141) 
1

>  <s_m_source_file>  (141) 
/var/tmp/pbs.5076255.sched01/tmpwzsktf0x/40k9schvjs.sdf

>  <i_m_source_file_index>  (141) 
24

>  <i_lp_mmshare_version>  (141) 
48012

>  <i_f3d_flags>  (141) 
0

>  <s_epik_input>  (141) 
W0NIM11bQ0gyXVtDSDJdW0NAQEhdMU9bQ0BASF0oW0NIMl1bQ0gzXSlbQ0gyXU4oW09IXSlDMT1P

>  <s_epik_cmdline>  (141) 
J2VwaWtfcHl0aG9uJywgJy1waHQnLCAnMi4wJywgJy1waCcsICc3LjAnLCAnLXRuJywgJzgnLCAnLW1hJywgJzIwMCcsICctaW1hZScsICc8aW5maWxlLm1hZT4nLCAnLW9tYWUnLCAnPG91dGZpbGUubWFlPic=

>  <r_lp_tautomer_probability>  (141) 
1

>  <r_epik_Ionization_Penalty>  (141) 
2.30866

>  <r_epik_Ionization_Penalty_Charging>  (141) 
2.30866

>  <r_epik_Ionization_Penalty_Neutral>  (141) 
6.63433e-08

>  <r_epik_State_Penalty>  (141) 
2.45995

>  <r_epik_Charging_Adjusted_Penalty>  (141) 
4.76862

>  <i_epik_Tot_Q>  (141) 
-1

>  <i_epik_Tot_abs_Q>  (141) 
1

>  <s_lp_Force_Field>  (141) 
OPLS3e

>  <r_lp_Energy>  (141) 
27.488

>  <b_lp_Chiralities_Consistent>  (141) 
1

>  <s_lp_Variant>  (141) 
48:0-2

>  <s_i_glide_gridfile>  (141) 
pfpi4k_grid

>  <i_i_glide_lignum>  (141) 
24

>  <i_i_glide_rotatable_bonds>  (141) 
3

>  <r_i_docking_score>  (141) 
-3.84964

>  <r_i_glide_ligand_efficiency>  (141) 
-0.296126

>  <r_i_glide_ligand_efficiency_sa>  (141) 
-0.696291

>  <r_i_glide_ligand_efficiency_ln>  (141) 
-1.07986

>  <r_i_glide_gscore>  (141) 
-3.84964

>  <r_i_glide_lipo>  (141) 
-0.115204

>  <r_i_glide_hbond>  (141) 
-0.296505

>  <r_i_glide_metal>  (141) 
-0

>  <r_i_glide_rewards>  (141) 
-2.13935

>  <r_i_glide_evdw>  (141) 
-14.4338

>  <r_i_glide_ecoul>  (141) 
-6.26164

>  <r_i_glide_erotb>  (141) 
0.45963

>  <r_i_glide_esite>  (141) 
-0.0972694

>  <r_i_glide_emodel>  (141) 
-27.9287

>  <r_i_glide_energy>  (141) 
-20.6954

>  <r_i_glide_einternal>  (141) 
2.30348

>  <r_i_glide_intrahb_reward>  (141) 
-0

>  <i_i_glide_confnum>  (141) 
3

>  <i_i_glide_posenum>  (141) 
37

>  <r_i_glide_eff_state_penalty>  (141) 
0

>  <ligand_id>  (141) 
48

>  <original_smiles>  (141) 
CCCC1OC(CC)CN(O)C1=O

>  <smiles>  (141) 
[H]C([H])([H])C([H])([H])C([H])([H])C1([H])OC([H])(C([H])([H])C([H])([H])[H])C([H])([H])N([O-])C1=O

$$$$
48:1:1
     RDKit          3D

 29 29  0  0  1  0  0  0  0  0999 V2000
    7.5637   -6.4400    1.1446 C   0  0  0  0  0  0  0  0  0  0  0  0
    6.3421   -6.5349    2.0839 C   0  0  0  0  0  0  0  0  0  0  0  0
    5.5083   -5.2331    2.1809 C   0  0  0  0  0  0  0  0  0  0  0  0
    4.7006   -4.9292    0.8999 C   0  0  2  0  0  0  0  0  0  0  0  0
    4.4732   -3.5240    0.7886 O   0  0  0  0  0  0  0  0  0  0  0  0
    3.6950   -3.1597   -0.3439 C   0  0  1  0  0  0  0  0  0  0  0  0
    4.2961   -3.5643   -1.7187 C   0  0  0  0  0  0  0  0  0  0  0  0
    5.6928   -2.9687   -1.9694 C   0  0  0  0  0  0  0  0  0  0  0  0
    2.2876   -3.7376   -0.0923 C   0  0  0  0  0  0  0  0  0  0  0  0
    2.2637   -5.1699    0.2678 N   0  0  0  0  0  0  0  0  0  0  0  0
    1.0821   -5.8511    0.0967 O   0  0  0  0  0  0  0  0  0  0  0  0
    3.3683   -5.7416    0.7971 C   0  0  0  0  0  0  0  0  0  0  0  0
    3.3690   -6.9400    1.1387 O   0  0  0  0  0  0  0  0  0  0  0  0
    8.1115   -7.3877    1.1267 H   0  0  0  0  0  0  0  0  0  0  0  0
    8.2521   -5.6617    1.4810 H   0  0  0  0  0  0  0  0  0  0  0  0
    7.2866   -6.2176    0.1110 H   0  0  0  0  0  0  0  0  0  0  0  0
    5.7374   -7.3823    1.7590 H   0  0  0  0  0  0  0  0  0  0  0  0
    6.6933   -6.8080    3.0830 H   0  0  0  0  0  0  0  0  0  0  0  0
    4.8304   -5.2909    3.0366 H   0  0  0  0  0  0  0  0  0  0  0  0
    6.1710   -4.4067    2.4050 H   0  0  0  0  0  0  0  0  0  0  0  0
    5.3162   -5.2149    0.0492 H   0  0  0  0  0  0  0  0  0  0  0  0
    3.6130   -2.0732   -0.3099 H   0  0  0  0  0  0  0  0  0  0  0  0
    4.3784   -4.6497   -1.8217 H   0  0  0  0  0  0  0  0  0  0  0  0
    3.6350   -3.2341   -2.5297 H   0  0  0  0  0  0  0  0  0  0  0  0
    6.1117   -3.3287   -2.9117 H   0  0  0  0  0  0  0  0  0  0  0  0
    6.4034   -3.2518   -1.1898 H   0  0  0  0  0  0  0  0  0  0  0  0
    5.6804   -1.8759   -2.0124 H   0  0  0  0  0  0  0  0  0  0  0  0
    1.8432   -3.1643    0.7275 H   0  0  0  0  0  0  0  0  0  0  0  0
    1.6639   -3.5551   -0.9736 H   0  0  0  0  0  0  0  0  0  0  0  0
  1  2  1  0
  1 14  1  0
  1 15  1  0
  1 16  1  0
  2  3  1  0
  2 17  1  0
  2 18  1  0
  3  4  1  0
  3 19  1  0
  3 20  1  0
  4 12  1  0
  4  5  1  0
  4 21  1  6
  5  6  1  0
  6  7  1  0
  6  9  1  0
  6 22  1  6
  7  8  1  0
  7 23  1  0
  7 24  1  0
  8 25  1  0
  8 26  1  0
  8 27  1  0
  9 10  1  0
  9 28  1  0
  9 29  1  0
 10 11  1  0
 10 12  1  0
 12 13  2  0
M  CHG  1  11  -1
M  END
>  <i_m_ct_stereo_status>  (142) 
1

>  <s_m_source_file>  (142) 
/var/tmp/pbs.5076255.sched01/tmpwzsktf0x/40k9schvjs.sdf

>  <i_m_source_file_index>  (142) 
24

>  <i_lp_mmshare_version>  (142) 
48012

>  <i_f3d_flags>  (142) 
0

>  <s_epik_input>  (142) 
W0NIM11bQ0gyXVtDSDJdW0NAQEhdMU9bQ0BASF0oW0NIMl1bQ0gzXSlbQ0gyXU4oW09IXSlDMT1P

>  <s_epik_cmdline>  (142) 
J2VwaWtfcHl0aG9uJywgJy1waHQnLCAnMi4wJywgJy1waCcsICc3LjAnLCAnLXRuJywgJzgnLCAnLW1hJywgJzIwMCcsICctaW1hZScsICc8aW5maWxlLm1hZT4nLCAnLW9tYWUnLCAnPG91dGZpbGUubWFlPic=

>  <r_lp_tautomer_probability>  (142) 
1

>  <r_epik_Ionization_Penalty>  (142) 
2.30866

>  <r_epik_Ionization_Penalty_Charging>  (142) 
2.30866

>  <r_epik_Ionization_Penalty_Neutral>  (142) 
6.63433e-08

>  <r_epik_State_Penalty>  (142) 
2.45995

>  <r_epik_Charging_Adjusted_Penalty>  (142) 
4.76862

>  <i_epik_Tot_Q>  (142) 
-1

>  <i_epik_Tot_abs_Q>  (142) 
1

>  <s_lp_Force_Field>  (142) 
OPLS3e

>  <r_lp_Energy>  (142) 
27.488

>  <b_lp_Chiralities_Consistent>  (142) 
1

>  <s_lp_Variant>  (142) 
48:0-2

>  <s_i_glide_gridfile>  (142) 
pfpi4k_grid

>  <i_i_glide_lignum>  (142) 
24

>  <i_i_glide_rotatable_bonds>  (142) 
3

>  <r_i_docking_score>  (142) 
-3.61006

>  <r_i_glide_ligand_efficiency>  (142) 
-0.277697

>  <r_i_glide_ligand_efficiency_sa>  (142) 
-0.652958

>  <r_i_glide_ligand_efficiency_ln>  (142) 
-1.01265

>  <r_i_glide_gscore>  (142) 
-3.61006

>  <r_i_glide_lipo>  (142) 
-0.215803

>  <r_i_glide_hbond>  (142) 
-0.293536

>  <r_i_glide_metal>  (142) 
-0

>  <r_i_glide_rewards>  (142) 
-2.13935

>  <r_i_glide_evdw>  (142) 
-11.5751

>  <r_i_glide_ecoul>  (142) 
-5.16828

>  <r_i_glide_erotb>  (142) 
0.45963

>  <r_i_glide_esite>  (142) 
-0.0669937

>  <r_i_glide_emodel>  (142) 
-24.2318

>  <r_i_glide_energy>  (142) 
-16.7434

>  <r_i_glide_einternal>  (142) 
1.92015

>  <r_i_glide_intrahb_reward>  (142) 
-0

>  <i_i_glide_confnum>  (142) 
5

>  <i_i_glide_posenum>  (142) 
3

>  <r_i_glide_eff_state_penalty>  (142) 
0

>  <ligand_id>  (142) 
48

>  <original_smiles>  (142) 
CCCC1OC(CC)CN(O)C1=O

>  <smiles>  (142) 
[H]C([H])([H])C([H])([H])C([H])([H])C1([H])OC([H])(C([H])([H])C([H])([H])[H])C([H])([H])N([O-])C1=O

$$$$
48:1:2
     RDKit          3D

 29 29  0  0  1  0  0  0  0  0999 V2000
   -3.7707    3.6330    2.6777 C   0  0  0  0  0  0  0  0  0  0  0  0
   -2.2814    3.8667    2.9935 C   0  0  0  0  0  0  0  0  0  0  0  0
   -1.5552    2.6016    3.4877 C   0  0  0  0  0  0  0  0  0  0  0  0
   -1.8607    2.2594    4.9543 C   0  0  2  0  0  0  0  0  0  0  0  0
   -1.2525    3.2284    5.8149 O   0  0  0  0  0  0  0  0  0  0  0  0
   -1.3611    2.9402    7.2104 C   0  0  1  0  0  0  0  0  0  0  0  0
   -2.8428    2.8612    7.6721 C   0  0  0  0  0  0  0  0  0  0  0  0
   -3.0383    2.9535    9.1879 C   0  0  0  0  0  0  0  0  0  0  0  0
   -0.5630    1.6541    7.4591 C   0  0  0  0  0  0  0  0  0  0  0  0
   -0.9106    0.5664    6.5402 N   0  0  0  0  0  0  0  0  0  0  0  0
   -0.5894   -0.6847    6.9508 O   0  0  0  0  0  0  0  0  0  0  0  0
   -1.4694    0.8158    5.3308 C   0  0  0  0  0  0  0  0  0  0  0  0
   -1.7427   -0.1039    4.5499 O   0  0  0  0  0  0  0  0  0  0  0  0
   -4.2366    4.5334    2.2828 H   0  0  0  0  0  0  0  0  0  0  0  0
   -4.3205    3.3300    3.5659 H   0  0  0  0  0  0  0  0  0  0  0  0
   -3.9005    2.8433    1.9374 H   0  0  0  0  0  0  0  0  0  0  0  0
   -1.7855    4.2018    2.0866 H   0  0  0  0  0  0  0  0  0  0  0  0
   -2.1546    4.6738    3.7190 H   0  0  0  0  0  0  0  0  0  0  0  0
   -1.8391    1.7929    2.8093 H   0  0  0  0  0  0  0  0  0  0  0  0
   -0.4753    2.7327    3.3706 H   0  0  0  0  0  0  0  0  0  0  0  0
   -2.9324    2.3386    5.0969 H   0  0  0  0  0  0  0  0  0  0  0  0
   -0.8645    3.7521    7.7363 H   0  0  0  0  0  0  0  0  0  0  0  0
   -3.3781    3.6842    7.2010 H   0  0  0  0  0  0  0  0  0  0  0  0
   -3.3208    1.9415    7.3291 H   0  0  0  0  0  0  0  0  0  0  0  0
   -4.0948    2.8671    9.4432 H   0  0  0  0  0  0  0  0  0  0  0  0
   -2.6713    3.9066    9.5702 H   0  0  0  0  0  0  0  0  0  0  0  0
   -2.5081    2.1522    9.7049 H   0  0  0  0  0  0  0  0  0  0  0  0
    0.5048    1.8440    7.3604 H   0  0  0  0  0  0  0  0  0  0  0  0
   -0.7103    1.3059    8.4832 H   0  0  0  0  0  0  0  0  0  0  0  0
  1  2  1  0
  1 14  1  0
  1 15  1  0
  1 16  1  0
  2  3  1  0
  2 17  1  0
  2 18  1  0
  3  4  1  0
  3 19  1  0
  3 20  1  0
  4 12  1  0
  4  5  1  0
  4 21  1  6
  5  6  1  0
  6  7  1  0
  6  9  1  0
  6 22  1  1
  7  8  1  0
  7 23  1  0
  7 24  1  0
  8 25  1  0
  8 26  1  0
  8 27  1  0
  9 10  1  0
  9 28  1  0
  9 29  1  0
 10 11  1  0
 10 12  1  0
 12 13  2  0
M  CHG  1  11  -1
M  END
>  <i_m_ct_stereo_status>  (143) 
1

>  <s_m_source_file>  (143) 
/var/tmp/pbs.5076255.sched01/tmpwzsktf0x/40k9schvjs.sdf

>  <i_m_source_file_index>  (143) 
24

>  <i_lp_mmshare_version>  (143) 
48012

>  <i_f3d_flags>  (143) 
0

>  <s_epik_input>  (143) 
W0NIM11bQ0gyXVtDSDJdW0NAQEhdMU9bQ0BASF0oW0NIMl1bQ0gzXSlbQ0gyXU4oW09IXSlDMT1P

>  <s_epik_cmdline>  (143) 
J2VwaWtfcHl0aG9uJywgJy1waHQnLCAnMi4wJywgJy1waCcsICc3LjAnLCAnLXRuJywgJzgnLCAnLW1hJywgJzIwMCcsICctaW1hZScsICc8aW5maWxlLm1hZT4nLCAnLW9tYWUnLCAnPG91dGZpbGUubWFlPic=

>  <r_lp_tautomer_probability>  (143) 
1

>  <r_epik_Ionization_Penalty>  (143) 
2.30866

>  <r_epik_Ionization_Penalty_Charging>  (143) 
2.30866

>  <r_epik_Ionization_Penalty_Neutral>  (143) 
6.63433e-08

>  <r_epik_State_Penalty>  (143) 
2.45995

>  <r_epik_Charging_Adjusted_Penalty>  (143) 
4.76862

>  <i_epik_Tot_Q>  (143) 
-1

>  <i_epik_Tot_abs_Q>  (143) 
1

>  <s_lp_Force_Field>  (143) 
OPLS3e

>  <r_lp_Energy>  (143) 
27.488

>  <b_lp_Chiralities_Consistent>  (143) 
1

>  <s_lp_Variant>  (143) 
48:0-2

>  <s_i_glide_gridfile>  (143) 
pfpi4k_grid

>  <i_i_glide_lignum>  (143) 
24

>  <i_i_glide_rotatable_bonds>  (143) 
3

>  <r_i_docking_score>  (143) 
-3.2818

>  <r_i_glide_ligand_efficiency>  (143) 
-0.252446

>  <r_i_glide_ligand_efficiency_sa>  (143) 
-0.593585

>  <r_i_glide_ligand_efficiency_ln>  (143) 
-0.920573

>  <r_i_glide_gscore>  (143) 
-3.2818

>  <r_i_glide_lipo>  (143) 
-0.369618

>  <r_i_glide_hbond>  (143) 
-0.0450816

>  <r_i_glide_metal>  (143) 
-0

>  <r_i_glide_rewards>  (143) 
-2.13935

>  <r_i_glide_evdw>  (143) 
-14.018

>  <r_i_glide_ecoul>  (143) 
-2.68389

>  <r_i_glide_erotb>  (143) 
0.45963

>  <r_i_glide_esite>  (143) 
-0.0838913

>  <r_i_glide_emodel>  (143) 
-23.0322

>  <r_i_glide_energy>  (143) 
-16.7019

>  <r_i_glide_einternal>  (143) 
2.84874

>  <r_i_glide_intrahb_reward>  (143) 
-0

>  <i_i_glide_confnum>  (143) 
6

>  <i_i_glide_posenum>  (143) 
36

>  <r_i_glide_eff_state_penalty>  (143) 
0

>  <ligand_id>  (143) 
48

>  <original_smiles>  (143) 
CCCC1OC(CC)CN(O)C1=O

>  <smiles>  (143) 
[H]C([H])([H])C([H])([H])C([H])([H])C1([H])OC([H])(C([H])([H])C([H])([H])[H])C([H])([H])N([O-])C1=O

$$$$
50:0:0
     RDKit          3D

 37 41  0  0  1  0  0  0  0  0999 V2000
    0.0262   -9.6374    2.8843 C   0  0  0  0  0  0  0  0  0  0  0  0
   -0.9988   -8.6633    2.7529 C   0  0  0  0  0  0  0  0  0  0  0  0
   -0.7923   -7.4016    2.3800 N   0  0  0  0  0  0  0  0  0  0  0  0
    0.4826   -7.0672    2.1045 C   0  0  0  0  0  0  0  0  0  0  0  0
    0.9892   -5.9053    1.6993 N   0  0  0  0  0  0  0  0  0  0  0  0
    2.3203   -6.1773    1.5543 C   0  0  0  0  0  0  0  0  0  0  0  0
    3.3255   -5.1206    1.1694 C   0  0  2  0  0  0  0  0  0  0  0  0
    2.7214   -4.1564    0.1053 C   0  0  0  0  0  0  0  0  0  0  0  0
    3.7534   -3.0971   -0.3243 C   0  0  1  0  0  0  0  0  0  0  0  0
    4.1753   -2.2756    0.9115 C   0  0  0  0  0  0  0  0  0  0  0  0
    4.8079   -3.2175    1.9583 C   0  0  2  0  0  0  0  0  0  0  0  0
    6.0416   -3.9065    1.3404 C   0  0  0  0  0  0  0  0  0  0  0  0
    5.6043   -4.7244    0.1101 C   0  0  2  0  0  0  0  0  0  0  0  0
    4.9718   -3.8034   -0.9467 C   0  0  0  0  0  0  0  0  0  0  0  0
    4.5783   -5.7860    0.5328 C   0  0  0  0  0  0  0  0  0  0  0  0
    3.7746   -4.2836    2.3954 C   0  0  0  0  0  0  0  0  0  0  0  0
    2.7056   -7.3996    1.9142 N   0  0  0  0  0  0  0  0  0  0  0  0
    1.5304   -7.9895    2.2225 N   0  0  0  0  0  0  0  0  0  0  0  0
    1.3238   -9.2769    2.6065 C   0  0  0  0  0  0  0  0  0  0  0  0
   -0.1991  -10.6516    3.2064 H   0  0  0  0  0  0  0  0  0  0  0  0
   -2.0273   -8.9406    2.9642 H   0  0  0  0  0  0  0  0  0  0  0  0
    2.3704   -4.7150   -0.7617 H   0  0  0  0  0  0  0  0  0  0  0  0
    1.8530   -3.6389    0.5107 H   0  0  0  0  0  0  0  0  0  0  0  0
    3.2994   -2.4349   -1.0614 H   0  0  0  0  0  0  0  0  0  0  0  0
    4.8759   -1.4894    0.6276 H   0  0  0  0  0  0  0  0  0  0  0  0
    3.3062   -1.7732    1.3375 H   0  0  0  0  0  0  0  0  0  0  0  0
    5.1206   -2.6325    2.8229 H   0  0  0  0  0  0  0  0  0  0  0  0
    6.7926   -3.1682    1.0546 H   0  0  0  0  0  0  0  0  0  0  0  0
    6.5144   -4.5571    2.0763 H   0  0  0  0  0  0  0  0  0  0  0  0
    6.4695   -5.2282   -0.3116 H   0  0  0  0  0  0  0  0  0  0  0  0
    4.6567   -4.3950   -1.8080 H   0  0  0  0  0  0  0  0  0  0  0  0
    5.7003   -3.0780   -1.3090 H   0  0  0  0  0  0  0  0  0  0  0  0
    5.0563   -6.4599    1.2461 H   0  0  0  0  0  0  0  0  0  0  0  0
    4.2881   -6.3955   -0.3254 H   0  0  0  0  0  0  0  0  0  0  0  0
    2.9164   -3.7973    2.8596 H   0  0  0  0  0  0  0  0  0  0  0  0
    4.2082   -4.9314    3.1570 H   0  0  0  0  0  0  0  0  0  0  0  0
    2.1875   -9.9332    2.6708 H   0  0  0  0  0  0  0  0  0  0  0  0
  1 19  2  0
  1  2  1  0
  1 20  1  0
  2  3  2  0
  2 21  1  0
  3  4  1  0
  4 18  1  0
  4  5  2  0
  5  6  1  0
  7  6  1  1
  6 17  2  0
  7 15  1  0
  7 16  1  0
  7  8  1  0
  8  9  1  0
  8 22  1  0
  8 23  1  0
  9 14  1  0
  9 10  1  0
  9 24  1  6
 10 11  1  0
 10 25  1  0
 10 26  1  0
 11 12  1  0
 11 16  1  0
 11 27  1  1
 12 13  1  0
 12 28  1  0
 12 29  1  0
 13 14  1  0
 13 15  1  0
 13 30  1  6
 14 31  1  0
 14 32  1  0
 15 33  1  0
 15 34  1  0
 16 35  1  0
 16 36  1  0
 17 18  1  0
 18 19  1  0
 19 37  1  0
M  END
>  <i_m_ct_stereo_status>  (144) 
1

>  <s_m_source_file>  (144) 
/var/tmp/pbs.5076255.sched01/tmpwzsktf0x/40k9schvjs.sdf

>  <i_m_source_file_index>  (144) 
26

>  <i_lp_mmshare_version>  (144) 
48012

>  <i_f3d_flags>  (144) 
0

>  <s_epik_input>  (144) 
bjFbY0hdW2NIXVtjSF1uKGMxMiluYyhuMilDMzRbQ0gyXVtDQEhdNVtDSDJdW0NAQEhdKFtDSDJdNClbQ0gyXVtDQEhdKFtDSDJdNSlbQ0gyXTM=

>  <s_epik_cmdline>  (144) 
J2VwaWtfcHl0aG9uJywgJy1waHQnLCAnMi4wJywgJy1waCcsICc3LjAnLCAnLXRuJywgJzgnLCAnLW1hJywgJzIwMCcsICctaW1hZScsICc8aW5maWxlLm1hZT4nLCAnLW9tYWUnLCAnPG91dGZpbGUubWFlPic=

>  <r_lp_tautomer_probability>  (144) 
1

>  <r_epik_Ionization_Penalty>  (144) 
1.02324e-05

>  <r_epik_Ionization_Penalty_Charging>  (144) 
0

>  <r_epik_Ionization_Penalty_Neutral>  (144) 
1.02324e-05

>  <r_epik_State_Penalty>  (144) 
-0

>  <r_epik_Charging_Adjusted_Penalty>  (144) 
0

>  <i_epik_Tot_Q>  (144) 
0

>  <i_epik_Tot_abs_Q>  (144) 
0

>  <s_lp_Force_Field>  (144) 
OPLS3e

>  <r_lp_Energy>  (144) 
17.5949

>  <b_lp_Chiralities_Consistent>  (144) 
1

>  <s_lp_Variant>  (144) 
50:0-1

>  <s_i_glide_gridfile>  (144) 
pfpi4k_grid

>  <i_i_glide_lignum>  (144) 
26

>  <i_i_glide_rotatable_bonds>  (144) 
1

>  <r_i_docking_score>  (144) 
-3.95701

>  <r_i_glide_ligand_efficiency>  (144) 
-0.208264

>  <r_i_glide_ligand_efficiency_sa>  (144) 
-0.555731

>  <r_i_glide_ligand_efficiency_ln>  (144) 
-1.00319

>  <r_i_glide_gscore>  (144) 
-3.95701

>  <r_i_glide_lipo>  (144) 
-0.355434

>  <r_i_glide_hbond>  (144) 
-0.183775

>  <r_i_glide_metal>  (144) 
-0

>  <r_i_glide_rewards>  (144) 
-1.67502

>  <r_i_glide_evdw>  (144) 
-22.6379

>  <r_i_glide_ecoul>  (144) 
-5.13245

>  <r_i_glide_erotb>  (144) 
0.271869

>  <r_i_glide_esite>  (144) 
-0.112889

>  <r_i_glide_emodel>  (144) 
-35.5843

>  <r_i_glide_energy>  (144) 
-27.7704

>  <r_i_glide_einternal>  (144) 
0.40405

>  <r_i_glide_intrahb_reward>  (144) 
-0

>  <i_i_glide_confnum>  (144) 
6

>  <i_i_glide_posenum>  (144) 
25

>  <r_i_glide_eff_state_penalty>  (144) 
0

>  <ligand_id>  (144) 
50

>  <original_smiles>  (144) 
c1cnc2nc(C34CC5CC(CC(C5)C3)C4)nn2c1

>  <smiles>  (144) 
[H]c1nc2nc(C34C([H])([H])C5([H])C([H])([H])C([H])(C([H])([H])C([H])(C5([H])[H])C3([H])[H])C4([H])[H])nn2c([H])c1[H]

$$$$
50:0:1
     RDKit          3D

 37 41  0  0  1  0  0  0  0  0999 V2000
    1.7348   -9.3139    2.4983 C   0  0  0  0  0  0  0  0  0  0  0  0
    0.5274   -8.5663    2.4832 C   0  0  0  0  0  0  0  0  0  0  0  0
    0.4350   -7.2971    2.0879 N   0  0  0  0  0  0  0  0  0  0  0  0
    1.5799   -6.7188    1.6794 C   0  0  0  0  0  0  0  0  0  0  0  0
    1.7979   -5.4911    1.2208 N   0  0  0  0  0  0  0  0  0  0  0  0
    3.1302   -5.4969    0.9186 C   0  0  0  0  0  0  0  0  0  0  0  0
    3.8445   -4.2673    0.4100 C   0  0  2  0  0  0  0  0  0  0  0  0
    5.1529   -4.6774   -0.3262 C   0  0  0  0  0  0  0  0  0  0  0  0
    5.8865   -3.4427   -0.8763 C   0  0  1  0  0  0  0  0  0  0  0  0
    4.9758   -2.7265   -1.8905 C   0  0  0  0  0  0  0  0  0  0  0  0
    3.6929   -2.2710   -1.1721 C   0  0  2  0  0  0  0  0  0  0  0  0
    4.0483   -1.3184   -0.0132 C   0  0  0  0  0  0  0  0  0  0  0  0
    4.9468   -2.0595    1.0003 C   0  0  2  0  0  0  0  0  0  0  0  0
    6.2441   -2.5099    0.2979 C   0  0  0  0  0  0  0  0  0  0  0  0
    4.2064   -3.2954    1.5625 C   0  0  0  0  0  0  0  0  0  0  0  0
    2.9540   -3.5047   -0.6146 C   0  0  0  0  0  0  0  0  0  0  0  0
    3.7912   -6.6080    1.2362 N   0  0  0  0  0  0  0  0  0  0  0  0
    2.7996   -7.4110    1.6816 N   0  0  0  0  0  0  0  0  0  0  0  0
    2.8953   -8.7078    2.0781 C   0  0  0  0  0  0  0  0  0  0  0  0
    1.7522  -10.3511    2.8235 H   0  0  0  0  0  0  0  0  0  0  0  0
   -0.3975   -9.0358    2.8054 H   0  0  0  0  0  0  0  0  0  0  0  0
    5.8268   -5.2050    0.3513 H   0  0  0  0  0  0  0  0  0  0  0  0
    4.9243   -5.3717   -1.1365 H   0  0  0  0  0  0  0  0  0  0  0  0
    6.7985   -3.7656   -1.3745 H   0  0  0  0  0  0  0  0  0  0  0  0
    5.4863   -1.8748   -2.3365 H   0  0  0  0  0  0  0  0  0  0  0  0
    4.7217   -3.4074   -2.7042 H   0  0  0  0  0  0  0  0  0  0  0  0
    3.0395   -1.7562   -1.8775 H   0  0  0  0  0  0  0  0  0  0  0  0
    4.5496   -0.4284   -0.3974 H   0  0  0  0  0  0  0  0  0  0  0  0
    3.1366   -0.9693    0.4728 H   0  0  0  0  0  0  0  0  0  0  0  0
    5.1970   -1.3817    1.8163 H   0  0  0  0  0  0  0  0  0  0  0  0
    6.8848   -3.0337    1.0086 H   0  0  0  0  0  0  0  0  0  0  0  0
    6.8131   -1.6494   -0.0557 H   0  0  0  0  0  0  0  0  0  0  0  0
    3.3051   -2.9780    2.0869 H   0  0  0  0  0  0  0  0  0  0  0  0
    4.8285   -3.7982    2.3028 H   0  0  0  0  0  0  0  0  0  0  0  0
    2.6571   -4.1674   -1.4292 H   0  0  0  0  0  0  0  0  0  0  0  0
    2.0306   -3.1697   -0.1413 H   0  0  0  0  0  0  0  0  0  0  0  0
    3.8711   -9.1854    2.0314 H   0  0  0  0  0  0  0  0  0  0  0  0
  1 19  2  0
  1  2  1  0
  1 20  1  0
  2  3  2  0
  2 21  1  0
  3  4  1  0
  4 18  1  0
  4  5  2  0
  5  6  1  0
  7  6  1  1
  6 17  2  0
  7 15  1  0
  7 16  1  0
  7  8  1  0
  8  9  1  0
  8 22  1  0
  8 23  1  0
  9 14  1  0
  9 10  1  0
  9 24  1  6
 10 11  1  0
 10 25  1  0
 10 26  1  0
 11 12  1  0
 11 16  1  0
 11 27  1  6
 12 13  1  0
 12 28  1  0
 12 29  1  0
 13 14  1  0
 13 15  1  0
 13 30  1  1
 14 31  1  0
 14 32  1  0
 15 33  1  0
 15 34  1  0
 16 35  1  0
 16 36  1  0
 17 18  1  0
 18 19  1  0
 19 37  1  0
M  END
>  <i_m_ct_stereo_status>  (145) 
1

>  <s_m_source_file>  (145) 
/var/tmp/pbs.5076255.sched01/tmpwzsktf0x/40k9schvjs.sdf

>  <i_m_source_file_index>  (145) 
26

>  <i_lp_mmshare_version>  (145) 
48012

>  <i_f3d_flags>  (145) 
0

>  <s_epik_input>  (145) 
bjFbY0hdW2NIXVtjSF1uKGMxMiluYyhuMilDMzRbQ0gyXVtDQEhdNVtDSDJdW0NAQEhdKFtDSDJdNClbQ0gyXVtDQEhdKFtDSDJdNSlbQ0gyXTM=

>  <s_epik_cmdline>  (145) 
J2VwaWtfcHl0aG9uJywgJy1waHQnLCAnMi4wJywgJy1waCcsICc3LjAnLCAnLXRuJywgJzgnLCAnLW1hJywgJzIwMCcsICctaW1hZScsICc8aW5maWxlLm1hZT4nLCAnLW9tYWUnLCAnPG91dGZpbGUubWFlPic=

>  <r_lp_tautomer_probability>  (145) 
1

>  <r_epik_Ionization_Penalty>  (145) 
1.02324e-05

>  <r_epik_Ionization_Penalty_Charging>  (145) 
0

>  <r_epik_Ionization_Penalty_Neutral>  (145) 
1.02324e-05

>  <r_epik_State_Penalty>  (145) 
-0

>  <r_epik_Charging_Adjusted_Penalty>  (145) 
0

>  <i_epik_Tot_Q>  (145) 
0

>  <i_epik_Tot_abs_Q>  (145) 
0

>  <s_lp_Force_Field>  (145) 
OPLS3e

>  <r_lp_Energy>  (145) 
17.5949

>  <b_lp_Chiralities_Consistent>  (145) 
1

>  <s_lp_Variant>  (145) 
50:0-1

>  <s_i_glide_gridfile>  (145) 
pfpi4k_grid

>  <i_i_glide_lignum>  (145) 
26

>  <i_i_glide_rotatable_bonds>  (145) 
1

>  <r_i_docking_score>  (145) 
-3.60333

>  <r_i_glide_ligand_efficiency>  (145) 
-0.189649

>  <r_i_glide_ligand_efficiency_sa>  (145) 
-0.506059

>  <r_i_glide_ligand_efficiency_ln>  (145) 
-0.913521

>  <r_i_glide_gscore>  (145) 
-3.60333

>  <r_i_glide_lipo>  (145) 
-0.330127

>  <r_i_glide_hbond>  (145) 
-0.0851761

>  <r_i_glide_metal>  (145) 
-0

>  <r_i_glide_rewards>  (145) 
-1.69373

>  <r_i_glide_evdw>  (145) 
-24.7168

>  <r_i_glide_ecoul>  (145) 
-3.18701

>  <r_i_glide_erotb>  (145) 
0.271869

>  <r_i_glide_esite>  (145) 
-0.0522719

>  <r_i_glide_emodel>  (145) 
-34.9739

>  <r_i_glide_energy>  (145) 
-27.9038

>  <r_i_glide_einternal>  (145) 
0.450239

>  <r_i_glide_intrahb_reward>  (145) 
-0

>  <i_i_glide_confnum>  (145) 
5

>  <i_i_glide_posenum>  (145) 
37

>  <r_i_glide_eff_state_penalty>  (145) 
0

>  <ligand_id>  (145) 
50

>  <original_smiles>  (145) 
c1cnc2nc(C34CC5CC(CC(C5)C3)C4)nn2c1

>  <smiles>  (145) 
[H]c1nc2nc(C34C([H])([H])C5([H])C([H])([H])C([H])(C([H])([H])C([H])(C5([H])[H])C3([H])[H])C4([H])[H])nn2c([H])c1[H]

$$$$
50:0:2
     RDKit          3D

 37 41  0  0  1  0  0  0  0  0999 V2000
    2.1435   -8.6719    2.0976 C   0  0  0  0  0  0  0  0  0  0  0  0
    0.9523   -7.9152    1.9363 C   0  0  0  0  0  0  0  0  0  0  0  0
    0.9077   -6.6737    1.4575 N   0  0  0  0  0  0  0  0  0  0  0  0
    2.0923   -6.1290    1.1196 C   0  0  0  0  0  0  0  0  0  0  0  0
    2.3618   -4.9321    0.6145 N   0  0  0  0  0  0  0  0  0  0  0  0
    3.7266   -4.9280    0.5308 C   0  0  0  0  0  0  0  0  0  0  0  0
    4.5089   -3.7659   -0.0321 C   0  0  2  0  0  0  0  0  0  0  0  0
    3.8339   -2.4132    0.3534 C   0  0  0  0  0  0  0  0  0  0  0  0
    4.6481   -1.2249   -0.1972 C   0  0  1  0  0  0  0  0  0  0  0  0
    6.0609   -1.2508    0.4179 C   0  0  0  0  0  0  0  0  0  0  0  0
    6.7588   -2.5631    0.0162 C   0  0  2  0  0  0  0  0  0  0  0  0
    6.8472   -2.6697   -1.5192 C   0  0  0  0  0  0  0  0  0  0  0  0
    5.4259   -2.6521   -2.1183 C   0  0  2  0  0  0  0  0  0  0  0  0
    4.7220   -1.3329   -1.7345 C   0  0  0  0  0  0  0  0  0  0  0  0
    4.6123   -3.8468   -1.5752 C   0  0  0  0  0  0  0  0  0  0  0  0
    5.9484   -3.7517    0.5629 C   0  0  0  0  0  0  0  0  0  0  0  0
    4.3322   -6.0721    0.8462 N   0  0  0  0  0  0  0  0  0  0  0  0
    3.2983   -6.8302    1.2673 N   0  0  0  0  0  0  0  0  0  0  0  0
    3.3445   -8.0999    1.7493 C   0  0  0  0  0  0  0  0  0  0  0  0
    2.1161   -9.6922    2.4727 H   0  0  0  0  0  0  0  0  0  0  0  0
   -0.0030   -8.3636    2.1931 H   0  0  0  0  0  0  0  0  0  0  0  0
    2.8200   -2.3583   -0.0495 H   0  0  0  0  0  0  0  0  0  0  0  0
    3.7370   -2.3304    1.4371 H   0  0  0  0  0  0  0  0  0  0  0  0
    4.1547   -0.2927    0.0758 H   0  0  0  0  0  0  0  0  0  0  0  0
    6.6395   -0.3891    0.0900 H   0  0  0  0  0  0  0  0  0  0  0  0
    5.9949   -1.1844    1.5048 H   0  0  0  0  0  0  0  0  0  0  0  0
    7.7602   -2.5927    0.4454 H   0  0  0  0  0  0  0  0  0  0  0  0
    7.4459   -1.8572   -1.9238 H   0  0  0  0  0  0  0  0  0  0  0  0
    7.3650   -3.5832   -1.8053 H   0  0  0  0  0  0  0  0  0  0  0  0
    5.4941   -2.7246   -3.2028 H   0  0  0  0  0  0  0  0  0  0  0  0
    3.7157   -1.3106   -2.1566 H   0  0  0  0  0  0  0  0  0  0  0  0
    5.2479   -0.4733   -2.1532 H   0  0  0  0  0  0  0  0  0  0  0  0
    5.0749   -4.7869   -1.8752 H   0  0  0  0  0  0  0  0  0  0  0  0
    3.6176   -3.8506   -2.0204 H   0  0  0  0  0  0  0  0  0  0  0  0
    5.9043   -3.7136    1.6528 H   0  0  0  0  0  0  0  0  0  0  0  0
    6.4734   -4.6723    0.3040 H   0  0  0  0  0  0  0  0  0  0  0  0
    4.3149   -8.5844    1.8191 H   0  0  0  0  0  0  0  0  0  0  0  0
  1 19  2  0
  1  2  1  0
  1 20  1  0
  2  3  2  0
  2 21  1  0
  3  4  1  0
  4 18  1  0
  4  5  2  0
  5  6  1  0
  7  6  1  1
  6 17  2  0
  7 15  1  0
  7 16  1  0
  7  8  1  0
  8  9  1  0
  8 22  1  0
  8 23  1  0
  9 14  1  0
  9 10  1  0
  9 24  1  6
 10 11  1  0
 10 25  1  0
 10 26  1  0
 11 12  1  0
 11 16  1  0
 11 27  1  1
 12 13  1  0
 12 28  1  0
 12 29  1  0
 13 14  1  0
 13 15  1  0
 13 30  1  6
 14 31  1  0
 14 32  1  0
 15 33  1  0
 15 34  1  0
 16 35  1  0
 16 36  1  0
 17 18  1  0
 18 19  1  0
 19 37  1  0
M  END
>  <i_m_ct_stereo_status>  (146) 
1

>  <s_m_source_file>  (146) 
/var/tmp/pbs.5076255.sched01/tmpwzsktf0x/40k9schvjs.sdf

>  <i_m_source_file_index>  (146) 
26

>  <i_lp_mmshare_version>  (146) 
48012

>  <i_f3d_flags>  (146) 
0

>  <s_epik_input>  (146) 
bjFbY0hdW2NIXVtjSF1uKGMxMiluYyhuMilDMzRbQ0gyXVtDQEhdNVtDSDJdW0NAQEhdKFtDSDJdNClbQ0gyXVtDQEhdKFtDSDJdNSlbQ0gyXTM=

>  <s_epik_cmdline>  (146) 
J2VwaWtfcHl0aG9uJywgJy1waHQnLCAnMi4wJywgJy1waCcsICc3LjAnLCAnLXRuJywgJzgnLCAnLW1hJywgJzIwMCcsICctaW1hZScsICc8aW5maWxlLm1hZT4nLCAnLW9tYWUnLCAnPG91dGZpbGUubWFlPic=

>  <r_lp_tautomer_probability>  (146) 
1

>  <r_epik_Ionization_Penalty>  (146) 
1.02324e-05

>  <r_epik_Ionization_Penalty_Charging>  (146) 
0

>  <r_epik_Ionization_Penalty_Neutral>  (146) 
1.02324e-05

>  <r_epik_State_Penalty>  (146) 
-0

>  <r_epik_Charging_Adjusted_Penalty>  (146) 
0

>  <i_epik_Tot_Q>  (146) 
0

>  <i_epik_Tot_abs_Q>  (146) 
0

>  <s_lp_Force_Field>  (146) 
OPLS3e

>  <r_lp_Energy>  (146) 
17.5949

>  <b_lp_Chiralities_Consistent>  (146) 
1

>  <s_lp_Variant>  (146) 
50:0-1

>  <s_i_glide_gridfile>  (146) 
pfpi4k_grid

>  <i_i_glide_lignum>  (146) 
26

>  <i_i_glide_rotatable_bonds>  (146) 
1

>  <r_i_docking_score>  (146) 
-3.48842

>  <r_i_glide_ligand_efficiency>  (146) 
-0.183601

>  <r_i_glide_ligand_efficiency_sa>  (146) 
-0.489921

>  <r_i_glide_ligand_efficiency_ln>  (146) 
-0.884389

>  <r_i_glide_gscore>  (146) 
-3.48842

>  <r_i_glide_lipo>  (146) 
-0.306377

>  <r_i_glide_hbond>  (146) 
-0.0267154

>  <r_i_glide_metal>  (146) 
-0

>  <r_i_glide_rewards>  (146) 
-1.75534

>  <r_i_glide_evdw>  (146) 
-27.1966

>  <r_i_glide_ecoul>  (146) 
-1.85898

>  <r_i_glide_erotb>  (146) 
0.271869

>  <r_i_glide_esite>  (146) 
-0.0331773

>  <r_i_glide_emodel>  (146) 
-36.0242

>  <r_i_glide_energy>  (146) 
-29.0556

>  <r_i_glide_einternal>  (146) 
0.189227

>  <r_i_glide_intrahb_reward>  (146) 
-0

>  <i_i_glide_confnum>  (146) 
4

>  <i_i_glide_posenum>  (146) 
40

>  <r_i_glide_eff_state_penalty>  (146) 
0

>  <ligand_id>  (146) 
50

>  <original_smiles>  (146) 
c1cnc2nc(C34CC5CC(CC(C5)C3)C4)nn2c1

>  <smiles>  (146) 
[H]c1nc2nc(C34C([H])([H])C5([H])C([H])([H])C([H])(C([H])([H])C([H])(C5([H])[H])C3([H])[H])C4([H])[H])nn2c([H])c1[H]

$$$$
51:0:0
     RDKit          3D

 31 34  0  0  1  0  0  0  0  0999 V2000
    3.2070    0.1205    2.8036 C   0  0  0  0  0  0  0  0  0  0  0  0
    3.1623    0.7952    4.3845 S   0  0  0  0  0  0  0  0  0  0  0  0
    4.7430    0.3581    4.7266 N   0  0  0  0  0  0  0  0  0  0  0  0
    5.2897   -0.2578    3.7149 N   0  0  0  0  0  0  0  0  0  0  0  0
    4.4529   -0.4047    2.5936 C   0  0  0  0  0  0  0  0  0  0  0  0
    5.0022   -1.0694    1.3553 C   0  0  2  0  0  0  0  0  0  0  0  0
    4.2134   -0.6981    0.0833 C   0  0  0  0  0  0  0  0  0  0  0  0
    4.7344   -1.3916   -1.1016 N   0  0  0  0  0  0  0  0  0  0  0  0
    3.9396   -1.0508   -2.2855 C   0  0  0  0  0  0  0  0  0  0  0  0
    4.2016   -2.3401   -3.5233 S   0  0  0  0  0  0  0  0  0  0  0  0
    5.0046   -3.4086   -2.3231 C   0  0  0  0  0  0  0  0  0  0  0  0
    4.6598   -2.8440   -0.9370 C   0  0  1  0  0  0  0  0  0  0  0  0
    5.5626   -3.2721    0.2318 C   0  0  0  0  0  0  0  0  0  0  0  0
    6.0868   -4.6859    0.3135 C   0  0  0  0  0  0  0  0  0  0  0  0
    7.0463   -3.5398    0.0557 C   0  0  0  0  0  0  0  0  0  0  0  0
    5.0709   -2.5983    1.5098 C   0  0  0  0  0  0  0  0  0  0  0  0
    2.3512    0.1724    2.1551 H   0  0  0  0  0  0  0  0  0  0  0  0
    6.0285   -0.7127    1.2176 H   0  0  0  0  0  0  0  0  0  0  0  0
    3.1496   -0.9320    0.1890 H   0  0  0  0  0  0  0  0  0  0  0  0
    4.2858    0.3809   -0.0624 H   0  0  0  0  0  0  0  0  0  0  0  0
    2.8746   -1.0251   -2.0432 H   0  0  0  0  0  0  0  0  0  0  0  0
    4.2252   -0.0722   -2.6836 H   0  0  0  0  0  0  0  0  0  0  0  0
    4.7051   -4.4509   -2.4336 H   0  0  0  0  0  0  0  0  0  0  0  0
    6.0696   -3.3347   -2.5353 H   0  0  0  0  0  0  0  0  0  0  0  0
    3.6263   -3.1213   -0.6998 H   0  0  0  0  0  0  0  0  0  0  0  0
    6.1330   -5.1618    1.2896 H   0  0  0  0  0  0  0  0  0  0  0  0
    5.8168   -5.3598   -0.4993 H   0  0  0  0  0  0  0  0  0  0  0  0
    7.4999   -3.4513   -0.9284 H   0  0  0  0  0  0  0  0  0  0  0  0
    7.7102   -3.2559    0.8705 H   0  0  0  0  0  0  0  0  0  0  0  0
    5.7550   -2.8503    2.3213 H   0  0  0  0  0  0  0  0  0  0  0  0
    4.0866   -2.9970    1.7785 H   0  0  0  0  0  0  0  0  0  0  0  0
  1  5  2  0
  1  2  1  0
  1 17  1  0
  2  3  1  0
  3  4  2  0
  4  5  1  0
  5  6  1  0
  6 16  1  0
  6  7  1  0
  6 18  1  6
  7  8  1  0
  7 19  1  0
  7 20  1  0
  8 12  1  0
  8  9  1  0
  9 10  1  0
  9 21  1  0
  9 22  1  0
 10 11  1  0
 11 12  1  0
 11 23  1  0
 11 24  1  0
 12 13  1  0
 12 25  1  1
 13 15  1  0
 13 14  1  0
 13 16  1  0
 14 15  1  0
 14 26  1  0
 14 27  1  0
 15 28  1  0
 15 29  1  0
 16 30  1  0
 16 31  1  0
M  END
>  <i_m_ct_stereo_status>  (147) 
1

>  <s_m_source_file>  (147) 
/var/tmp/pbs.5076255.sched01/tmpwzsktf0x/40k9schvjs.sdf

>  <i_m_source_file_index>  (147) 
27

>  <i_lp_mmshare_version>  (147) 
48012

>  <i_f3d_flags>  (147) 
0

>  <s_epik_input>  (147) 
bjFuc1tjSF1jMVtDQEBIXShbQ0gyXTIpW0NIMl1OKFtDSDJdU1tDSDJdMylbQ0BASF0zQzI0W0NIMl1bQ0gyXTQ=

>  <s_epik_cmdline>  (147) 
J2VwaWtfcHl0aG9uJywgJy1waHQnLCAnMi4wJywgJy1waCcsICc3LjAnLCAnLXRuJywgJzgnLCAnLW1hJywgJzIwMCcsICctaW1hZScsICc8aW5maWxlLm1hZT4nLCAnLW9tYWUnLCAnPG91dGZpbGUubWFlPic=

>  <r_lp_tautomer_probability>  (147) 
1

>  <r_epik_Ionization_Penalty>  (147) 
0.0195909

>  <r_epik_Ionization_Penalty_Charging>  (147) 
0

>  <r_epik_Ionization_Penalty_Neutral>  (147) 
0.0195909

>  <r_epik_State_Penalty>  (147) 
0.0156554

>  <r_epik_Charging_Adjusted_Penalty>  (147) 
0.0156554

>  <i_epik_Tot_Q>  (147) 
0

>  <i_epik_Tot_abs_Q>  (147) 
0

>  <s_epik_Chemistry_Notes>  (147) 
This compound contains an acetal/aminal-like group ( X-CH(R)-Y where X, Y are N, S, or O) that may be acid/base labile, releasing an aldehyde.

>  <s_lp_Force_Field>  (147) 
OPLS3e

>  <r_lp_Energy>  (147) 
0.514695

>  <b_lp_Chiralities_Consistent>  (147) 
1

>  <s_lp_Variant>  (147) 
51:0-1

>  <s_i_glide_gridfile>  (147) 
pfpi4k_grid

>  <i_i_glide_lignum>  (147) 
27

>  <i_i_glide_rotatable_bonds>  (147) 
1

>  <r_i_docking_score>  (147) 
-4.05687

>  <r_i_glide_ligand_efficiency>  (147) 
-0.253554

>  <r_i_glide_ligand_efficiency_sa>  (147) 
-0.638917

>  <r_i_glide_ligand_efficiency_ln>  (147) 
-1.07535

>  <r_i_glide_gscore>  (147) 
-4.05687

>  <r_i_glide_lipo>  (147) 
-0.862463

>  <r_i_glide_hbond>  (147) 
0

>  <r_i_glide_metal>  (147) 
-0

>  <r_i_glide_rewards>  (147) 
-1.68144

>  <r_i_glide_evdw>  (147) 
-25.5369

>  <r_i_glide_ecoul>  (147) 
-3.39818

>  <r_i_glide_erotb>  (147) 
0.273606

>  <r_i_glide_esite>  (147) 
0

>  <r_i_glide_emodel>  (147) 
-35.5171

>  <r_i_glide_energy>  (147) 
-28.9351

>  <r_i_glide_einternal>  (147) 
1.55035

>  <r_i_glide_intrahb_reward>  (147) 
-0

>  <i_i_glide_confnum>  (147) 
4

>  <i_i_glide_posenum>  (147) 
36

>  <r_i_glide_eff_state_penalty>  (147) 
0

>  <ligand_id>  (147) 
51

>  <original_smiles>  (147) 
c1snnc1C1CN2CSCC2C2(CC2)C1

>  <smiles>  (147) 
[H]c1snnc1C1([H])C([H])([H])N2C([H])([H])SC([H])([H])C2([H])C2(C([H])([H])C2([H])[H])C1([H])[H]

$$$$
51:0:1
     RDKit          3D

 31 34  0  0  1  0  0  0  0  0999 V2000
    5.0891   -0.0010    3.6411 C   0  0  0  0  0  0  0  0  0  0  0  0
    4.0139    0.5772    4.8544 S   0  0  0  0  0  0  0  0  0  0  0  0
    2.6636   -0.0592    4.0936 N   0  0  0  0  0  0  0  0  0  0  0  0
    2.9830   -0.6659    2.9867 N   0  0  0  0  0  0  0  0  0  0  0  0
    4.3562   -0.6331    2.6751 C   0  0  0  0  0  0  0  0  0  0  0  0
    4.8741   -1.2738    1.4126 C   0  0  2  0  0  0  0  0  0  0  0  0
    4.2157   -0.6834    0.1445 C   0  0  0  0  0  0  0  0  0  0  0  0
    4.7099   -1.3489   -1.0720 N   0  0  0  0  0  0  0  0  0  0  0  0
    4.0339   -0.8130   -2.2557 C   0  0  0  0  0  0  0  0  0  0  0  0
    4.2041   -2.0179   -3.5886 S   0  0  0  0  0  0  0  0  0  0  0  0
    4.8073   -3.2718   -2.4518 C   0  0  0  0  0  0  0  0  0  0  0  0
    4.4448   -2.7875   -1.0392 C   0  0  1  0  0  0  0  0  0  0  0  0
    5.2181   -3.4266    0.1229 C   0  0  0  0  0  0  0  0  0  0  0  0
    5.5656   -4.8965    0.0962 C   0  0  0  0  0  0  0  0  0  0  0  0
    6.6676   -3.8565   -0.0014 C   0  0  0  0  0  0  0  0  0  0  0  0
    4.7428   -2.8055    1.4329 C   0  0  0  0  0  0  0  0  0  0  0  0
    6.1452    0.1690    3.7087 H   0  0  0  0  0  0  0  0  0  0  0  0
    5.9411   -1.0546    1.3463 H   0  0  0  0  0  0  0  0  0  0  0  0
    3.1327   -0.7883    0.1972 H   0  0  0  0  0  0  0  0  0  0  0  0
    4.4368    0.3834    0.0856 H   0  0  0  0  0  0  0  0  0  0  0  0
    2.9670   -0.6801   -2.0677 H   0  0  0  0  0  0  0  0  0  0  0  0
    4.4574    0.1450   -2.5583 H   0  0  0  0  0  0  0  0  0  0  0  0
    4.3847   -4.2492   -2.6786 H   0  0  0  0  0  0  0  0  0  0  0  0
    5.8830   -3.3080   -2.6100 H   0  0  0  0  0  0  0  0  0  0  0  0
    3.3739   -2.9491   -0.8827 H   0  0  0  0  0  0  0  0  0  0  0  0
    5.4929   -5.4585    1.0238 H   0  0  0  0  0  0  0  0  0  0  0  0
    5.2881   -5.4644   -0.7902 H   0  0  0  0  0  0  0  0  0  0  0  0
    7.1851   -3.7373   -0.9503 H   0  0  0  0  0  0  0  0  0  0  0  0
    7.3115   -3.7334    0.8671 H   0  0  0  0  0  0  0  0  0  0  0  0
    5.3385   -3.2096    2.2500 H   0  0  0  0  0  0  0  0  0  0  0  0
    3.7065   -3.0887    1.6194 H   0  0  0  0  0  0  0  0  0  0  0  0
  1  5  2  0
  1  2  1  0
  1 17  1  0
  2  3  1  0
  3  4  2  0
  4  5  1  0
  5  6  1  0
  6 16  1  0
  6  7  1  0
  6 18  1  6
  7  8  1  0
  7 19  1  0
  7 20  1  0
  8 12  1  0
  8  9  1  0
  9 10  1  0
  9 21  1  0
  9 22  1  0
 10 11  1  0
 11 12  1  0
 11 23  1  0
 11 24  1  0
 12 13  1  0
 12 25  1  1
 13 15  1  0
 13 14  1  0
 13 16  1  0
 14 15  1  0
 14 26  1  0
 14 27  1  0
 15 28  1  0
 15 29  1  0
 16 30  1  0
 16 31  1  0
M  END
>  <i_m_ct_stereo_status>  (148) 
1

>  <s_m_source_file>  (148) 
/var/tmp/pbs.5076255.sched01/tmpwzsktf0x/40k9schvjs.sdf

>  <i_m_source_file_index>  (148) 
27

>  <i_lp_mmshare_version>  (148) 
48012

>  <i_f3d_flags>  (148) 
0

>  <s_epik_input>  (148) 
bjFuc1tjSF1jMVtDQEBIXShbQ0gyXTIpW0NIMl1OKFtDSDJdU1tDSDJdMylbQ0BASF0zQzI0W0NIMl1bQ0gyXTQ=

>  <s_epik_cmdline>  (148) 
J2VwaWtfcHl0aG9uJywgJy1waHQnLCAnMi4wJywgJy1waCcsICc3LjAnLCAnLXRuJywgJzgnLCAnLW1hJywgJzIwMCcsICctaW1hZScsICc8aW5maWxlLm1hZT4nLCAnLW9tYWUnLCAnPG91dGZpbGUubWFlPic=

>  <r_lp_tautomer_probability>  (148) 
1

>  <r_epik_Ionization_Penalty>  (148) 
0.0195909

>  <r_epik_Ionization_Penalty_Charging>  (148) 
0

>  <r_epik_Ionization_Penalty_Neutral>  (148) 
0.0195909

>  <r_epik_State_Penalty>  (148) 
0.0156554

>  <r_epik_Charging_Adjusted_Penalty>  (148) 
0.0156554

>  <i_epik_Tot_Q>  (148) 
0

>  <i_epik_Tot_abs_Q>  (148) 
0

>  <s_epik_Chemistry_Notes>  (148) 
This compound contains an acetal/aminal-like group ( X-CH(R)-Y where X, Y are N, S, or O) that may be acid/base labile, releasing an aldehyde.

>  <s_lp_Force_Field>  (148) 
OPLS3e

>  <r_lp_Energy>  (148) 
0.514695

>  <b_lp_Chiralities_Consistent>  (148) 
1

>  <s_lp_Variant>  (148) 
51:0-1

>  <s_i_glide_gridfile>  (148) 
pfpi4k_grid

>  <i_i_glide_lignum>  (148) 
27

>  <i_i_glide_rotatable_bonds>  (148) 
1

>  <r_i_docking_score>  (148) 
-3.71995

>  <r_i_glide_ligand_efficiency>  (148) 
-0.232497

>  <r_i_glide_ligand_efficiency_sa>  (148) 
-0.585855

>  <r_i_glide_ligand_efficiency_ln>  (148) 
-0.986047

>  <r_i_glide_gscore>  (148) 
-3.71995

>  <r_i_glide_lipo>  (148) 
-0.783109

>  <r_i_glide_hbond>  (148) 
0

>  <r_i_glide_metal>  (148) 
-0

>  <r_i_glide_rewards>  (148) 
-1.68144

>  <r_i_glide_evdw>  (148) 
-23.7739

>  <r_i_glide_ecoul>  (148) 
-2.24395

>  <r_i_glide_erotb>  (148) 
0.273606

>  <r_i_glide_esite>  (148) 
-0.00371759

>  <r_i_glide_emodel>  (148) 
-32.7033

>  <r_i_glide_energy>  (148) 
-26.0179

>  <r_i_glide_einternal>  (148) 
0.131908

>  <r_i_glide_intrahb_reward>  (148) 
-0

>  <i_i_glide_confnum>  (148) 
4

>  <i_i_glide_posenum>  (148) 
2

>  <r_i_glide_eff_state_penalty>  (148) 
0

>  <ligand_id>  (148) 
51

>  <original_smiles>  (148) 
c1snnc1C1CN2CSCC2C2(CC2)C1

>  <smiles>  (148) 
[H]c1snnc1C1([H])C([H])([H])N2C([H])([H])SC([H])([H])C2([H])C2(C([H])([H])C2([H])[H])C1([H])[H]

$$$$
51:0:2
     RDKit          3D

 31 34  0  0  1  0  0  0  0  0999 V2000
    2.5151   -7.5961    1.9388 C   0  0  0  0  0  0  0  0  0  0  0  0
    1.0618   -8.3488    2.4776 S   0  0  0  0  0  0  0  0  0  0  0  0
    0.2078   -6.9081    2.4876 N   0  0  0  0  0  0  0  0  0  0  0  0
    0.9732   -5.9037    2.1544 N   0  0  0  0  0  0  0  0  0  0  0  0
    2.2947   -6.2512    1.8211 C   0  0  0  0  0  0  0  0  0  0  0  0
    3.2777   -5.1787    1.4165 C   0  0  2  0  0  0  0  0  0  0  0  0
    3.5869   -4.2052    2.5758 C   0  0  0  0  0  0  0  0  0  0  0  0
    4.5089   -3.1438    2.1482 N   0  0  0  0  0  0  0  0  0  0  0  0
    4.7745   -2.2092    3.2427 C   0  0  0  0  0  0  0  0  0  0  0  0
    5.4054   -0.6726    2.5231 S   0  0  0  0  0  0  0  0  0  0  0  0
    4.9672   -1.2034    0.8612 C   0  0  0  0  0  0  0  0  0  0  0  0
    3.9867   -2.3743    1.0181 C   0  0  1  0  0  0  0  0  0  0  0  0
    3.8206   -3.2955   -0.1996 C   0  0  0  0  0  0  0  0  0  0  0  0
    3.7925   -2.7180   -1.5971 C   0  0  0  0  0  0  0  0  0  0  0  0
    4.9506   -3.5960   -1.1661 C   0  0  0  0  0  0  0  0  0  0  0  0
    2.8383   -4.4046    0.1575 C   0  0  0  0  0  0  0  0  0  0  0  0
    3.4029   -8.1719    1.7607 H   0  0  0  0  0  0  0  0  0  0  0  0
    4.2146   -5.6757    1.1590 H   0  0  0  0  0  0  0  0  0  0  0  0
    2.6638   -3.7568    2.9490 H   0  0  0  0  0  0  0  0  0  0  0  0
    4.0363   -4.7555    3.4067 H   0  0  0  0  0  0  0  0  0  0  0  0
    3.8525   -1.9745    3.7766 H   0  0  0  0  0  0  0  0  0  0  0  0
    5.4927   -2.6257    3.9499 H   0  0  0  0  0  0  0  0  0  0  0  0
    4.5527   -0.3869    0.2693 H   0  0  0  0  0  0  0  0  0  0  0  0
    5.9024   -1.5211    0.4056 H   0  0  0  0  0  0  0  0  0  0  0  0
    3.0055   -1.9706    1.2880 H   0  0  0  0  0  0  0  0  0  0  0  0
    3.0826   -3.1384   -2.3076 H   0  0  0  0  0  0  0  0  0  0  0  0
    3.9484   -1.6453   -1.7044 H   0  0  0  0  0  0  0  0  0  0  0  0
    5.9258   -3.1416   -1.0118 H   0  0  0  0  0  0  0  0  0  0  0  0
    4.9949   -4.5999   -1.5880 H   0  0  0  0  0  0  0  0  0  0  0  0
    2.7578   -5.0800   -0.6901 H   0  0  0  0  0  0  0  0  0  0  0  0
    1.8506   -3.9681    0.3105 H   0  0  0  0  0  0  0  0  0  0  0  0
  1  5  2  0
  1  2  1  0
  1 17  1  0
  2  3  1  0
  3  4  2  0
  4  5  1  0
  5  6  1  0
  6 16  1  0
  6  7  1  0
  6 18  1  6
  7  8  1  0
  7 19  1  0
  7 20  1  0
  8 12  1  0
  8  9  1  0
  9 10  1  0
  9 21  1  0
  9 22  1  0
 10 11  1  0
 11 12  1  0
 11 23  1  0
 11 24  1  0
 12 13  1  0
 12 25  1  1
 13 15  1  0
 13 14  1  0
 13 16  1  0
 14 15  1  0
 14 26  1  0
 14 27  1  0
 15 28  1  0
 15 29  1  0
 16 30  1  0
 16 31  1  0
M  END
>  <i_m_ct_stereo_status>  (149) 
1

>  <s_m_source_file>  (149) 
/var/tmp/pbs.5076255.sched01/tmpwzsktf0x/40k9schvjs.sdf

>  <i_m_source_file_index>  (149) 
27

>  <i_lp_mmshare_version>  (149) 
48012

>  <i_f3d_flags>  (149) 
0

>  <s_epik_input>  (149) 
bjFuc1tjSF1jMVtDQEBIXShbQ0gyXTIpW0NIMl1OKFtDSDJdU1tDSDJdMylbQ0BASF0zQzI0W0NIMl1bQ0gyXTQ=

>  <s_epik_cmdline>  (149) 
J2VwaWtfcHl0aG9uJywgJy1waHQnLCAnMi4wJywgJy1waCcsICc3LjAnLCAnLXRuJywgJzgnLCAnLW1hJywgJzIwMCcsICctaW1hZScsICc8aW5maWxlLm1hZT4nLCAnLW9tYWUnLCAnPG91dGZpbGUubWFlPic=

>  <r_lp_tautomer_probability>  (149) 
1

>  <r_epik_Ionization_Penalty>  (149) 
0.0195909

>  <r_epik_Ionization_Penalty_Charging>  (149) 
0

>  <r_epik_Ionization_Penalty_Neutral>  (149) 
0.0195909

>  <r_epik_State_Penalty>  (149) 
0.0156554

>  <r_epik_Charging_Adjusted_Penalty>  (149) 
0.0156554

>  <i_epik_Tot_Q>  (149) 
0

>  <i_epik_Tot_abs_Q>  (149) 
0

>  <s_epik_Chemistry_Notes>  (149) 
This compound contains an acetal/aminal-like group ( X-CH(R)-Y where X, Y are N, S, or O) that may be acid/base labile, releasing an aldehyde.

>  <s_lp_Force_Field>  (149) 
OPLS3e

>  <r_lp_Energy>  (149) 
0.514695

>  <b_lp_Chiralities_Consistent>  (149) 
1

>  <s_lp_Variant>  (149) 
51:0-1

>  <s_i_glide_gridfile>  (149) 
pfpi4k_grid

>  <i_i_glide_lignum>  (149) 
27

>  <i_i_glide_rotatable_bonds>  (149) 
1

>  <r_i_docking_score>  (149) 
-3.22906

>  <r_i_glide_ligand_efficiency>  (149) 
-0.201816

>  <r_i_glide_ligand_efficiency_sa>  (149) 
-0.508544

>  <r_i_glide_ligand_efficiency_ln>  (149) 
-0.855926

>  <r_i_glide_gscore>  (149) 
-3.22906

>  <r_i_glide_lipo>  (149) 
-0.289631

>  <r_i_glide_hbond>  (149) 
0

>  <r_i_glide_metal>  (149) 
-0

>  <r_i_glide_rewards>  (149) 
-1.68144

>  <r_i_glide_evdw>  (149) 
-20.1374

>  <r_i_glide_ecoul>  (149) 
-2.48931

>  <r_i_glide_erotb>  (149) 
0.273606

>  <r_i_glide_esite>  (149) 
-0.151322

>  <r_i_glide_emodel>  (149) 
-28.4651

>  <r_i_glide_energy>  (149) 
-22.6268

>  <r_i_glide_einternal>  (149) 
0.0215751

>  <r_i_glide_intrahb_reward>  (149) 
-0

>  <i_i_glide_confnum>  (149) 
4

>  <i_i_glide_posenum>  (149) 
24

>  <r_i_glide_eff_state_penalty>  (149) 
0

>  <ligand_id>  (149) 
51

>  <original_smiles>  (149) 
c1snnc1C1CN2CSCC2C2(CC2)C1

>  <smiles>  (149) 
[H]c1snnc1C1([H])C([H])([H])N2C([H])([H])SC([H])([H])C2([H])C2(C([H])([H])C2([H])[H])C1([H])[H]

$$$$
51:1:0
     RDKit          3D

 32 35  0  0  1  0  0  0  0  0999 V2000
    2.5116   -6.1279    1.3238 C   0  0  0  0  0  0  0  0  0  0  0  0
    1.7743   -7.0233    2.5917 S   0  0  0  0  0  0  0  0  0  0  0  0
    1.4115   -5.6440    3.4738 N   0  0  0  0  0  0  0  0  0  0  0  0
    1.8283   -4.5673    2.8719 N   0  0  0  0  0  0  0  0  0  0  0  0
    2.4348   -4.7960    1.6215 C   0  0  0  0  0  0  0  0  0  0  0  0
    2.8767   -3.6166    0.7905 C   0  0  2  0  0  0  0  0  0  0  0  0
    2.6480   -3.8161   -0.7218 C   0  0  0  0  0  0  0  0  0  0  0  0
    3.0294   -2.5921   -1.4613 N   0  0  2  0  0  0  0  0  0  0  0  0
    2.7883   -2.6566   -2.9232 C   0  0  0  0  0  0  0  0  0  0  0  0
    3.8117   -1.3752   -3.6993 S   0  0  0  0  0  0  0  0  0  0  0  0
    4.6813   -1.0076   -2.1569 C   0  0  0  0  0  0  0  0  0  0  0  0
    4.4418   -2.2045   -1.2304 C   0  0  1  0  0  0  0  0  0  0  0  0
    4.7674   -2.0089    0.2631 C   0  0  0  0  0  0  0  0  0  0  0  0
    4.7056   -0.6510    0.9402 C   0  0  0  0  0  0  0  0  0  0  0  0
    6.0429   -1.3169    0.6993 C   0  0  0  0  0  0  0  0  0  0  0  0
    4.3509   -3.2578    1.0415 C   0  0  0  0  0  0  0  0  0  0  0  0
    2.9420   -6.6269    0.4794 H   0  0  0  0  0  0  0  0  0  0  0  0
    2.2800   -2.7533    1.1050 H   0  0  0  0  0  0  0  0  0  0  0  0
    3.2386   -4.6487   -1.0820 H   0  0  0  0  0  0  0  0  0  0  0  0
    1.5996   -4.0209   -0.9358 H   0  0  0  0  0  0  0  0  0  0  0  0
    3.0946   -3.6213   -3.3300 H   0  0  0  0  0  0  0  0  0  0  0  0
    1.7354   -2.4840   -3.1471 H   0  0  0  0  0  0  0  0  0  0  0  0
    5.7371   -0.7948   -2.3079 H   0  0  0  0  0  0  0  0  0  0  0  0
    4.2192   -0.1003   -1.7786 H   0  0  0  0  0  0  0  0  0  0  0  0
    5.0842   -3.0192   -1.5794 H   0  0  0  0  0  0  0  0  0  0  0  0
    4.4730    0.2346    0.3514 H   0  0  0  0  0  0  0  0  0  0  0  0
    4.3288   -0.6255    1.9621 H   0  0  0  0  0  0  0  0  0  0  0  0
    6.5664   -1.6974    1.5755 H   0  0  0  0  0  0  0  0  0  0  0  0
    6.6933   -0.9190   -0.0747 H   0  0  0  0  0  0  0  0  0  0  0  0
    4.4987   -3.0668    2.1080 H   0  0  0  0  0  0  0  0  0  0  0  0
    5.0065   -4.0971    0.7775 H   0  0  0  0  0  0  0  0  0  0  0  0
    2.4375   -1.8349   -1.1196 H   0  0  0  0  0  0  0  0  0  0  0  0
  1  5  2  0
  1  2  1  0
  1 17  1  0
  2  3  1  0
  3  4  2  0
  4  5  1  0
  5  6  1  0
  6 16  1  0
  6  7  1  0
  6 18  1  1
  7  8  1  0
  7 19  1  0
  7 20  1  0
  8 12  1  0
  8  9  1  0
  8 32  1  1
  9 10  1  0
  9 21  1  0
  9 22  1  0
 10 11  1  0
 11 12  1  0
 11 23  1  0
 11 24  1  0
 12 13  1  0
 12 25  1  6
 13 15  1  0
 13 14  1  0
 13 16  1  0
 14 15  1  0
 14 26  1  0
 14 27  1  0
 15 28  1  0
 15 29  1  0
 16 30  1  0
 16 31  1  0
M  CHG  1   8   1
M  END
>  <i_m_ct_stereo_status>  (150) 
1

>  <s_m_source_file>  (150) 
/var/tmp/pbs.5076255.sched01/tmpwzsktf0x/40k9schvjs.sdf

>  <i_m_source_file_index>  (150) 
28

>  <i_lp_mmshare_version>  (150) 
48012

>  <i_f3d_flags>  (150) 
0

>  <s_epik_input>  (150) 
bjFuc1tjSF1jMVtDQEBIXShbQ0gyXTIpW0NIMl1OKFtDSDJdU1tDSDJdMylbQ0BASF0zQzI0W0NIMl1bQ0gyXTQ=

>  <s_epik_cmdline>  (150) 
J2VwaWtfcHl0aG9uJywgJy1waHQnLCAnMi4wJywgJy1waCcsICc3LjAnLCAnLXRuJywgJzgnLCAnLW1hJywgJzIwMCcsICctaW1hZScsICc8aW5maWxlLm1hZT4nLCAnLW9tYWUnLCAnPG91dGZpbGUubWFlPic=

>  <r_lp_tautomer_probability>  (150) 
1

>  <r_epik_Ionization_Penalty>  (150) 
2.02971

>  <r_epik_Ionization_Penalty_Charging>  (150) 
2.02971

>  <r_epik_Ionization_Penalty_Neutral>  (150) 
1.10127e-10

>  <r_epik_State_Penalty>  (150) 
2.16061

>  <r_epik_Charging_Adjusted_Penalty>  (150) 
4.19032

>  <i_epik_Tot_Q>  (150) 
1

>  <i_epik_Tot_abs_Q>  (150) 
1

>  <s_epik_Chemistry_Notes>  (150) 
This compound contains an acetal/aminal-like group ( X-CH(R)-Y where X, Y are N, S, or O) that may be acid/base labile, releasing an aldehyde.

>  <s_lp_Force_Field>  (150) 
OPLS3e

>  <r_lp_Energy>  (150) 
11.66

>  <b_lp_Chiralities_Consistent>  (150) 
1

>  <s_lp_Variant>  (150) 
51:0-2

>  <s_i_glide_gridfile>  (150) 
pfpi4k_grid

>  <i_i_glide_lignum>  (150) 
28

>  <i_i_glide_rotatable_bonds>  (150) 
1

>  <r_i_docking_score>  (150) 
-4.13696

>  <r_i_glide_ligand_efficiency>  (150) 
-0.25856

>  <r_i_glide_ligand_efficiency_sa>  (150) 
-0.65153

>  <r_i_glide_ligand_efficiency_ln>  (150) 
-1.09658

>  <r_i_glide_gscore>  (150) 
-4.13696

>  <r_i_glide_lipo>  (150) 
-0.471015

>  <r_i_glide_hbond>  (150) 
-0.2

>  <r_i_glide_metal>  (150) 
-0

>  <r_i_glide_rewards>  (150) 
-1.67457

>  <r_i_glide_evdw>  (150) 
-24.1013

>  <r_i_glide_ecoul>  (150) 
-5.23434

>  <r_i_glide_erotb>  (150) 
0.271747

>  <r_i_glide_esite>  (150) 
-0.0729068

>  <r_i_glide_emodel>  (150) 
-37.2202

>  <r_i_glide_energy>  (150) 
-29.3357

>  <r_i_glide_einternal>  (150) 
1.47086

>  <r_i_glide_intrahb_reward>  (150) 
-0

>  <i_i_glide_confnum>  (150) 
2

>  <i_i_glide_posenum>  (150) 
27

>  <r_i_glide_eff_state_penalty>  (150) 
0

>  <ligand_id>  (150) 
51

>  <original_smiles>  (150) 
c1snnc1C1CN2CSCC2C2(CC2)C1

>  <smiles>  (150) 
[H]c1snnc1C1([H])C([H])([H])C2(C([H])([H])C2([H])[H])C2([H])C([H])([H])SC([H])([H])[N+]2([H])C1([H])[H]

$$$$
51:1:1
     RDKit          3D

 32 35  0  0  1  0  0  0  0  0999 V2000
    1.9622   -4.1542    3.1275 C   0  0  0  0  0  0  0  0  0  0  0  0
    1.0947   -5.4402    3.8783 S   0  0  0  0  0  0  0  0  0  0  0  0
    1.2494   -6.4410    2.5440 N   0  0  0  0  0  0  0  0  0  0  0  0
    1.9403   -5.8765    1.5948 N   0  0  0  0  0  0  0  0  0  0  0  0
    2.3592   -4.5636    1.8826 C   0  0  0  0  0  0  0  0  0  0  0  0
    3.1481   -3.7617    0.8742 C   0  0  2  0  0  0  0  0  0  0  0  0
    2.4686   -3.6995   -0.5083 C   0  0  0  0  0  0  0  0  0  0  0  0
    3.2489   -2.8590   -1.4397 N   0  0  2  0  0  0  0  0  0  0  0  0
    2.6228   -2.6846   -2.7701 C   0  0  0  0  0  0  0  0  0  0  0  0
    3.9230   -2.1096   -3.8905 S   0  0  0  0  0  0  0  0  0  0  0  0
    5.2267   -2.3688   -2.6642 C   0  0  0  0  0  0  0  0  0  0  0  0
    4.6422   -3.3165   -1.6108 C   0  0  1  0  0  0  0  0  0  0  0  0
    5.3917   -3.4083   -0.2681 C   0  0  0  0  0  0  0  0  0  0  0  0
    6.2342   -2.2674    0.2767 C   0  0  0  0  0  0  0  0  0  0  0  0
    6.8998   -3.5258   -0.2369 C   0  0  0  0  0  0  0  0  0  0  0  0
    4.5894   -4.2750    0.7071 C   0  0  0  0  0  0  0  0  0  0  0  0
    2.1224   -3.2224    3.6384 H   0  0  0  0  0  0  0  0  0  0  0  0
    3.2179   -2.7401    1.2558 H   0  0  0  0  0  0  0  0  0  0  0  0
    2.3632   -4.6992   -0.9186 H   0  0  0  0  0  0  0  0  0  0  0  0
    1.4784   -3.2598   -0.4434 H   0  0  0  0  0  0  0  0  0  0  0  0
    2.2353   -3.6298   -3.1565 H   0  0  0  0  0  0  0  0  0  0  0  0
    1.8121   -1.9591   -2.7151 H   0  0  0  0  0  0  0  0  0  0  0  0
    6.1502   -2.7475   -3.1037 H   0  0  0  0  0  0  0  0  0  0  0  0
    5.4076   -1.3747   -2.2545 H   0  0  0  0  0  0  0  0  0  0  0  0
    4.6241   -4.3249   -2.0380 H   0  0  0  0  0  0  0  0  0  0  0  0
    6.3578   -1.3594   -0.3095 H   0  0  0  0  0  0  0  0  0  0  0  0
    6.2160   -2.1102    1.3547 H   0  0  0  0  0  0  0  0  0  0  0  0
    7.3419   -4.1919    0.5028 H   0  0  0  0  0  0  0  0  0  0  0  0
    7.4278   -3.4922   -1.1888 H   0  0  0  0  0  0  0  0  0  0  0  0
    5.0933   -4.2717    1.6755 H   0  0  0  0  0  0  0  0  0  0  0  0
    4.5820   -5.3117    0.3605 H   0  0  0  0  0  0  0  0  0  0  0  0
    3.2808   -1.9341   -1.0229 H   0  0  0  0  0  0  0  0  0  0  0  0
  1  5  2  0
  1  2  1  0
  1 17  1  0
  2  3  1  0
  3  4  2  0
  4  5  1  0
  5  6  1  0
  6 16  1  0
  6  7  1  0
  6 18  1  1
  7  8  1  0
  7 19  1  0
  7 20  1  0
  8 12  1  0
  8  9  1  0
  8 32  1  1
  9 10  1  0
  9 21  1  0
  9 22  1  0
 10 11  1  0
 11 12  1  0
 11 23  1  0
 11 24  1  0
 12 13  1  0
 12 25  1  6
 13 15  1  0
 13 14  1  0
 13 16  1  0
 14 15  1  0
 14 26  1  0
 14 27  1  0
 15 28  1  0
 15 29  1  0
 16 30  1  0
 16 31  1  0
M  CHG  1   8   1
M  END
>  <i_m_ct_stereo_status>  (151) 
1

>  <s_m_source_file>  (151) 
/var/tmp/pbs.5076255.sched01/tmpwzsktf0x/40k9schvjs.sdf

>  <i_m_source_file_index>  (151) 
28

>  <i_lp_mmshare_version>  (151) 
48012

>  <i_f3d_flags>  (151) 
0

>  <s_epik_input>  (151) 
bjFuc1tjSF1jMVtDQEBIXShbQ0gyXTIpW0NIMl1OKFtDSDJdU1tDSDJdMylbQ0BASF0zQzI0W0NIMl1bQ0gyXTQ=

>  <s_epik_cmdline>  (151) 
J2VwaWtfcHl0aG9uJywgJy1waHQnLCAnMi4wJywgJy1waCcsICc3LjAnLCAnLXRuJywgJzgnLCAnLW1hJywgJzIwMCcsICctaW1hZScsICc8aW5maWxlLm1hZT4nLCAnLW9tYWUnLCAnPG91dGZpbGUubWFlPic=

>  <r_lp_tautomer_probability>  (151) 
1

>  <r_epik_Ionization_Penalty>  (151) 
2.02971

>  <r_epik_Ionization_Penalty_Charging>  (151) 
2.02971

>  <r_epik_Ionization_Penalty_Neutral>  (151) 
1.10127e-10

>  <r_epik_State_Penalty>  (151) 
2.16061

>  <r_epik_Charging_Adjusted_Penalty>  (151) 
4.19032

>  <i_epik_Tot_Q>  (151) 
1

>  <i_epik_Tot_abs_Q>  (151) 
1

>  <s_epik_Chemistry_Notes>  (151) 
This compound contains an acetal/aminal-like group ( X-CH(R)-Y where X, Y are N, S, or O) that may be acid/base labile, releasing an aldehyde.

>  <s_lp_Force_Field>  (151) 
OPLS3e

>  <r_lp_Energy>  (151) 
11.66

>  <b_lp_Chiralities_Consistent>  (151) 
1

>  <s_lp_Variant>  (151) 
51:0-2

>  <s_i_glide_gridfile>  (151) 
pfpi4k_grid

>  <i_i_glide_lignum>  (151) 
28

>  <i_i_glide_rotatable_bonds>  (151) 
1

>  <r_i_docking_score>  (151) 
-3.84274

>  <r_i_glide_ligand_efficiency>  (151) 
-0.240171

>  <r_i_glide_ligand_efficiency_sa>  (151) 
-0.605194

>  <r_i_glide_ligand_efficiency_ln>  (151) 
-1.0186

>  <r_i_glide_gscore>  (151) 
-3.84274

>  <r_i_glide_lipo>  (151) 
-0.494573

>  <r_i_glide_hbond>  (151) 
0

>  <r_i_glide_metal>  (151) 
-0

>  <r_i_glide_rewards>  (151) 
-1.67457

>  <r_i_glide_evdw>  (151) 
-21.6247

>  <r_i_glide_ecoul>  (151) 
-5.12111

>  <r_i_glide_erotb>  (151) 
0.271747

>  <r_i_glide_esite>  (151) 
-0.0959469

>  <r_i_glide_emodel>  (151) 
-34.572

>  <r_i_glide_energy>  (151) 
-26.7458

>  <r_i_glide_einternal>  (151) 
0.250071

>  <r_i_glide_intrahb_reward>  (151) 
-0

>  <i_i_glide_confnum>  (151) 
1

>  <i_i_glide_posenum>  (151) 
17

>  <r_i_glide_eff_state_penalty>  (151) 
0

>  <ligand_id>  (151) 
51

>  <original_smiles>  (151) 
c1snnc1C1CN2CSCC2C2(CC2)C1

>  <smiles>  (151) 
[H]c1snnc1C1([H])C([H])([H])C2(C([H])([H])C2([H])[H])C2([H])C([H])([H])SC([H])([H])[N+]2([H])C1([H])[H]

$$$$
51:1:2
     RDKit          3D

 32 35  0  0  1  0  0  0  0  0999 V2000
    3.0478   -6.4192    2.3930 C   0  0  0  0  0  0  0  0  0  0  0  0
    1.9182   -6.9097    3.5949 S   0  0  0  0  0  0  0  0  0  0  0  0
    1.2067   -5.3963    3.6843 N   0  0  0  0  0  0  0  0  0  0  0  0
    1.7754   -4.5568    2.8637 N   0  0  0  0  0  0  0  0  0  0  0  0
    2.8312   -5.0928    2.1122 C   0  0  0  0  0  0  0  0  0  0  0  0
    3.5602   -4.1858    1.1493 C   0  0  2  0  0  0  0  0  0  0  0  0
    2.8481   -4.0823   -0.2140 C   0  0  0  0  0  0  0  0  0  0  0  0
    3.5615   -3.1309   -1.1015 N   0  0  2  0  0  0  0  0  0  0  0  0
    2.9116   -2.9072   -2.4166 C   0  0  0  0  0  0  0  0  0  0  0  0
    4.1719   -2.2122   -3.5195 S   0  0  0  0  0  0  0  0  0  0  0  0
    5.4971   -2.4462   -2.3203 C   0  0  0  0  0  0  0  0  0  0  0  0
    4.9823   -3.4880   -1.3201 C   0  0  1  0  0  0  0  0  0  0  0  0
    5.7588   -3.6168    0.0030 C   0  0  0  0  0  0  0  0  0  0  0  0
    6.5435   -2.4630    0.6035 C   0  0  0  0  0  0  0  0  0  0  0  0
    7.2737   -3.6473    0.0087 C   0  0  0  0  0  0  0  0  0  0  0  0
    5.0322   -4.5941    0.9291 C   0  0  0  0  0  0  0  0  0  0  0  0
    3.7807   -7.1129    2.0134 H   0  0  0  0  0  0  0  0  0  0  0  0
    3.5809   -3.1881    1.5988 H   0  0  0  0  0  0  0  0  0  0  0  0
    2.8030   -5.0615   -0.6858 H   0  0  0  0  0  0  0  0  0  0  0  0
    1.8258   -3.7288   -0.0861 H   0  0  0  0  0  0  0  0  0  0  0  0
    2.5711   -3.8472   -2.8493 H   0  0  0  0  0  0  0  0  0  0  0  0
    2.0608   -2.2362   -2.3168 H   0  0  0  0  0  0  0  0  0  0  0  0
    6.4353   -2.7416   -2.7912 H   0  0  0  0  0  0  0  0  0  0  0  0
    5.6261   -1.4672   -1.8566 H   0  0  0  0  0  0  0  0  0  0  0  0
    5.0179   -4.4675   -1.8088 H   0  0  0  0  0  0  0  0  0  0  0  0
    6.6046   -1.5152    0.0719 H   0  0  0  0  0  0  0  0  0  0  0  0
    6.5333   -2.3687    1.6889 H   0  0  0  0  0  0  0  0  0  0  0  0
    7.7683   -4.3264    0.7028 H   0  0  0  0  0  0  0  0  0  0  0  0
    7.7843   -3.5287   -0.9466 H   0  0  0  0  0  0  0  0  0  0  0  0
    5.5507   -4.6122    1.8887 H   0  0  0  0  0  0  0  0  0  0  0  0
    5.1005   -5.6047    0.5143 H   0  0  0  0  0  0  0  0  0  0  0  0
    3.5603   -2.2379   -0.6271 H   0  0  0  0  0  0  0  0  0  0  0  0
  1  5  2  0
  1  2  1  0
  1 17  1  0
  2  3  1  0
  3  4  2  0
  4  5  1  0
  5  6  1  0
  6 16  1  0
  6  7  1  0
  6 18  1  1
  7  8  1  0
  7 19  1  0
  7 20  1  0
  8 12  1  0
  8  9  1  0
  8 32  1  1
  9 10  1  0
  9 21  1  0
  9 22  1  0
 10 11  1  0
 11 12  1  0
 11 23  1  0
 11 24  1  0
 12 13  1  0
 12 25  1  6
 13 15  1  0
 13 14  1  0
 13 16  1  0
 14 15  1  0
 14 26  1  0
 14 27  1  0
 15 28  1  0
 15 29  1  0
 16 30  1  0
 16 31  1  0
M  CHG  1   8   1
M  END
>  <i_m_ct_stereo_status>  (152) 
1

>  <s_m_source_file>  (152) 
/var/tmp/pbs.5076255.sched01/tmpwzsktf0x/40k9schvjs.sdf

>  <i_m_source_file_index>  (152) 
28

>  <i_lp_mmshare_version>  (152) 
48012

>  <i_f3d_flags>  (152) 
0

>  <s_epik_input>  (152) 
bjFuc1tjSF1jMVtDQEBIXShbQ0gyXTIpW0NIMl1OKFtDSDJdU1tDSDJdMylbQ0BASF0zQzI0W0NIMl1bQ0gyXTQ=

>  <s_epik_cmdline>  (152) 
J2VwaWtfcHl0aG9uJywgJy1waHQnLCAnMi4wJywgJy1waCcsICc3LjAnLCAnLXRuJywgJzgnLCAnLW1hJywgJzIwMCcsICctaW1hZScsICc8aW5maWxlLm1hZT4nLCAnLW9tYWUnLCAnPG91dGZpbGUubWFlPic=

>  <r_lp_tautomer_probability>  (152) 
1

>  <r_epik_Ionization_Penalty>  (152) 
2.02971

>  <r_epik_Ionization_Penalty_Charging>  (152) 
2.02971

>  <r_epik_Ionization_Penalty_Neutral>  (152) 
1.10127e-10

>  <r_epik_State_Penalty>  (152) 
2.16061

>  <r_epik_Charging_Adjusted_Penalty>  (152) 
4.19032

>  <i_epik_Tot_Q>  (152) 
1

>  <i_epik_Tot_abs_Q>  (152) 
1

>  <s_epik_Chemistry_Notes>  (152) 
This compound contains an acetal/aminal-like group ( X-CH(R)-Y where X, Y are N, S, or O) that may be acid/base labile, releasing an aldehyde.

>  <s_lp_Force_Field>  (152) 
OPLS3e

>  <r_lp_Energy>  (152) 
11.66

>  <b_lp_Chiralities_Consistent>  (152) 
1

>  <s_lp_Variant>  (152) 
51:0-2

>  <s_i_glide_gridfile>  (152) 
pfpi4k_grid

>  <i_i_glide_lignum>  (152) 
28

>  <i_i_glide_rotatable_bonds>  (152) 
1

>  <r_i_docking_score>  (152) 
-3.66815

>  <r_i_glide_ligand_efficiency>  (152) 
-0.22926

>  <r_i_glide_ligand_efficiency_sa>  (152) 
-0.577698

>  <r_i_glide_ligand_efficiency_ln>  (152) 
-0.972317

>  <r_i_glide_gscore>  (152) 
-3.66815

>  <r_i_glide_lipo>  (152) 
-0.621135

>  <r_i_glide_hbond>  (152) 
0

>  <r_i_glide_metal>  (152) 
-0

>  <r_i_glide_rewards>  (152) 
-1.67457

>  <r_i_glide_evdw>  (152) 
-22.1347

>  <r_i_glide_ecoul>  (152) 
-3.39996

>  <r_i_glide_erotb>  (152) 
0.271747

>  <r_i_glide_esite>  (152) 
-0.0274693

>  <r_i_glide_emodel>  (152) 
-32.492

>  <r_i_glide_energy>  (152) 
-25.5346

>  <r_i_glide_einternal>  (152) 
1.36915

>  <r_i_glide_intrahb_reward>  (152) 
-0

>  <i_i_glide_confnum>  (152) 
5

>  <i_i_glide_posenum>  (152) 
2

>  <r_i_glide_eff_state_penalty>  (152) 
0

>  <ligand_id>  (152) 
51

>  <original_smiles>  (152) 
c1snnc1C1CN2CSCC2C2(CC2)C1

>  <smiles>  (152) 
[H]c1snnc1C1([H])C([H])([H])C2(C([H])([H])C2([H])[H])C2([H])C([H])([H])SC([H])([H])[N+]2([H])C1([H])[H]

$$$$
53:0:0
     RDKit          3D

 54 59  0  0  1  0  0  0  0  0999 V2000
    7.2978   -6.2201    4.9556 C   0  0  0  0  0  0  0  0  0  0  0  0
    6.8837   -5.5952    3.7543 O   0  0  0  0  0  0  0  0  0  0  0  0
    5.7865   -4.6907    3.7955 C   0  0  2  0  0  0  0  0  0  0  0  0
    5.4747   -4.1307    5.0751 O   0  0  0  0  0  0  0  0  0  0  0  0
    4.5703   -5.1216    4.5542 C   0  0  1  0  0  0  0  0  0  0  0  0
    3.3564   -4.6696    3.7854 C   0  0  0  0  0  0  0  0  0  0  0  0
    3.8794   -3.6390    2.7495 C   0  0  2  0  0  0  0  0  0  0  0  0
    3.1281   -3.5006    1.3896 C   0  0  2  0  0  0  0  0  0  0  0  0
    2.8624   -4.8898    0.8173 C   0  0  0  0  0  0  0  0  0  0  0  0
    3.7750   -5.8765    0.6869 C   0  0  0  0  0  0  0  0  0  0  0  0
    5.2833   -5.7883    0.9454 C   0  0  0  0  0  0  0  0  0  0  0  0
    5.8695   -4.3491    1.1448 C   0  0  1  0  0  0  0  0  0  0  0  0
    7.4070   -4.4213    1.0192 C   0  0  0  0  0  0  0  0  0  0  0  0
    5.2602   -3.4451    0.0004 C   0  0  1  0  0  0  0  0  0  0  0  0
    4.0857   -2.6326    0.5347 C   0  0  1  0  0  0  0  0  0  0  0  0
    3.8243   -1.5761   -0.5685 C   0  0  1  0  0  0  0  0  0  0  0  0
    5.2771   -1.0462   -0.6267 C   0  0  0  0  0  0  0  0  0  0  0  0
    5.8769   -2.4031   -1.0012 C   0  0  1  0  0  0  0  0  0  0  0  0
    7.2766   -2.3539   -1.1833 O   0  0  0  0  0  0  0  0  0  0  0  0
    5.1193   -2.5845   -2.3472 C   0  0  0  0  0  0  0  0  0  0  0  0
    3.6654   -2.1161   -2.0249 C   0  0  0  0  0  0  0  0  0  0  0  0
    2.6311   -3.2496   -2.1510 C   0  0  0  0  0  0  0  0  0  0  0  0
    3.2279   -0.9809   -2.9802 C   0  0  0  0  0  0  0  0  0  0  0  0
    5.4343   -3.8430    2.5804 C   0  0  2  0  0  0  0  0  0  0  0  0
    8.1792   -6.8207    4.7340 H   0  0  0  0  0  0  0  0  0  0  0  0
    6.5417   -6.8926    5.3549 H   0  0  0  0  0  0  0  0  0  0  0  0
    7.5757   -5.4897    5.7154 H   0  0  0  0  0  0  0  0  0  0  0  0
    4.4952   -6.0152    5.1654 H   0  0  0  0  0  0  0  0  0  0  0  0
    2.9381   -5.5681    3.3295 H   0  0  0  0  0  0  0  0  0  0  0  0
    2.5860   -4.2689    4.4454 H   0  0  0  0  0  0  0  0  0  0  0  0
    3.7668   -2.6844    3.2622 H   0  0  0  0  0  0  0  0  0  0  0  0
    2.1740   -2.9949    1.5394 H   0  0  0  0  0  0  0  0  0  0  0  0
    1.8360   -5.0978    0.5528 H   0  0  0  0  0  0  0  0  0  0  0  0
    3.4422   -6.8341    0.3178 H   0  0  0  0  0  0  0  0  0  0  0  0
    5.5305   -6.4539    1.7701 H   0  0  0  0  0  0  0  0  0  0  0  0
    5.7562   -6.2328    0.0719 H   0  0  0  0  0  0  0  0  0  0  0  0
    7.8727   -3.4700    1.2762 H   0  0  0  0  0  0  0  0  0  0  0  0
    7.7003   -4.6812    0.0047 H   0  0  0  0  0  0  0  0  0  0  0  0
    7.8507   -5.1850    1.6536 H   0  0  0  0  0  0  0  0  0  0  0  0
    4.9006   -4.1861   -0.7032 H   0  0  0  0  0  0  0  0  0  0  0  0
    4.4323   -1.9422    1.3041 H   0  0  0  0  0  0  0  0  0  0  0  0
    3.0881   -0.8202   -0.2913 H   0  0  0  0  0  0  0  0  0  0  0  0
    5.4324   -0.2855   -1.3907 H   0  0  0  0  0  0  0  0  0  0  0  0
    5.6770   -0.6348    0.3042 H   0  0  0  0  0  0  0  0  0  0  0  0
    7.5636   -3.1750   -1.5542 H   0  0  0  0  0  0  0  0  0  0  0  0
    5.5340   -1.9451   -3.1220 H   0  0  0  0  0  0  0  0  0  0  0  0
    5.1750   -3.6009   -2.7451 H   0  0  0  0  0  0  0  0  0  0  0  0
    2.4071   -3.4726   -3.1954 H   0  0  0  0  0  0  0  0  0  0  0  0
    1.6939   -2.9954   -1.6612 H   0  0  0  0  0  0  0  0  0  0  0  0
    2.9825   -4.1693   -1.6988 H   0  0  0  0  0  0  0  0  0  0  0  0
    3.1708   -1.3268   -4.0140 H   0  0  0  0  0  0  0  0  0  0  0  0
    3.8966   -0.1202   -2.9619 H   0  0  0  0  0  0  0  0  0  0  0  0
    2.2411   -0.6112   -2.7050 H   0  0  0  0  0  0  0  0  0  0  0  0
    5.9133   -2.8737    2.7304 H   0  0  0  0  0  0  0  0  0  0  0  0
  1  2  1  0
  1 25  1  0
  1 26  1  0
  1 27  1  0
  3  2  1  1
  3  5  1  0
  3 24  1  0
  3  4  1  0
  4  5  1  0
  5  6  1  0
  5 28  1  1
  6  7  1  0
  6 29  1  0
  6 30  1  0
  7 24  1  0
  7  8  1  0
  7 31  1  1
  8 15  1  0
  8  9  1  0
  8 32  1  1
  9 10  2  0
  9 33  1  0
 10 11  1  0
 10 34  1  0
 11 12  1  0
 11 35  1  0
 11 36  1  0
 12 13  1  1
 12 14  1  0
 12 24  1  0
 13 37  1  0
 13 38  1  0
 13 39  1  0
 14 18  1  0
 14 15  1  0
 14 40  1  6
 15 16  1  0
 15 41  1  1
 16 21  1  0
 16 17  1  0
 16 42  1  1
 17 18  1  0
 17 43  1  0
 17 44  1  0
 18 19  1  6
 18 20  1  0
 19 45  1  0
 20 21  1  0
 20 46  1  0
 20 47  1  0
 21 22  1  0
 21 23  1  0
 22 48  1  0
 22 49  1  0
 22 50  1  0
 23 51  1  0
 23 52  1  0
 23 53  1  0
 24 54  1  1
M  END
>  <i_m_ct_stereo_status>  (153) 
1

>  <s_m_source_file>  (153) 
/var/tmp/pbs.5076255.sched01/tmpwzsktf0x/40k9schvjs.sdf

>  <i_m_source_file_index>  (153) 
30

>  <i_lp_mmshare_version>  (153) 
48012

>  <i_f3d_flags>  (153) 
0

>  <s_epik_input>  (153) 
W0NIM11PW0NAQF0xMltDQEBIXShPMSlbQ0gyXVtDQEBIXTNbQ0BIXTRbQ0BIXTVbQ0BIXShbQ0BAXShbQ0gzXSkoW0NASF0yMylbQ0gyXVtDSF09W0NIXTQpW0NAXTYoW09IXSlbQ0gyXVtDQEhdNUMoW0NIMl02KShbQ0gzXSlbQ0gzXQ==

>  <s_epik_cmdline>  (153) 
J2VwaWtfcHl0aG9uJywgJy1waHQnLCAnMi4wJywgJy1waCcsICc3LjAnLCAnLXRuJywgJzgnLCAnLW1hJywgJzIwMCcsICctaW1hZScsICc8aW5maWxlLm1hZT4nLCAnLW9tYWUnLCAnPG91dGZpbGUubWFlPic=

>  <r_lp_tautomer_probability>  (153) 
1

>  <r_epik_Ionization_Penalty>  (153) 
2.79849e-06

>  <r_epik_Ionization_Penalty_Charging>  (153) 
0

>  <r_epik_Ionization_Penalty_Neutral>  (153) 
2.79849e-06

>  <r_epik_State_Penalty>  (153) 
-0

>  <r_epik_Charging_Adjusted_Penalty>  (153) 
0

>  <i_epik_Tot_Q>  (153) 
0

>  <i_epik_Tot_abs_Q>  (153) 
0

>  <s_lp_Force_Field>  (153) 
OPLS3e

>  <r_lp_Energy>  (153) 
105.076

>  <b_lp_Chiralities_Consistent>  (153) 
1

>  <s_lp_Variant>  (153) 
53:0-1

>  <s_i_glide_gridfile>  (153) 
pfpi4k_grid

>  <i_i_glide_lignum>  (153) 
30

>  <i_i_glide_rotatable_bonds>  (153) 
2

>  <r_i_docking_score>  (153) 
-3.33508

>  <r_i_glide_ligand_efficiency>  (153) 
-0.138962

>  <r_i_glide_ligand_efficiency_sa>  (153) 
-0.400835

>  <r_i_glide_ligand_efficiency_ln>  (153) 
-0.798239

>  <r_i_glide_gscore>  (153) 
-3.33508

>  <r_i_glide_lipo>  (153) 
-0.622105

>  <r_i_glide_hbond>  (153) 
-0.16

>  <r_i_glide_metal>  (153) 
-0

>  <r_i_glide_rewards>  (153) 
-1.15959

>  <r_i_glide_evdw>  (153) 
-18.2793

>  <r_i_glide_ecoul>  (153) 
-3.19619

>  <r_i_glide_erotb>  (153) 
0

>  <r_i_glide_esite>  (153) 
0

>  <r_i_glide_emodel>  (153) 
-24.6277

>  <r_i_glide_energy>  (153) 
-21.4755

>  <r_i_glide_einternal>  (153) 
2.53128

>  <r_i_glide_intrahb_reward>  (153) 
-0

>  <i_i_glide_confnum>  (153) 
2

>  <i_i_glide_posenum>  (153) 
4

>  <r_i_glide_eff_state_penalty>  (153) 
0

>  <ligand_id>  (153) 
53

>  <original_smiles>  (153) 
COC12OC1CC1C3C=CCC(C)(C4C3C3CC4(O)CC3(C)C)C12

>  <smiles>  (153) 
[H]OC12C([H])([H])C([H])(C3([H])C4([H])C([H])=C([H])C([H])([H])C(C([H])([H])[H])(C5([H])C6(OC([H])([H])[H])OC6([H])C([H])([H])C45[H])C31[H])C(C([H])([H])[H])(C([H])([H])[H])C2([H])[H]

$$$$
54:0:0
     RDKit          3D

 49 54  0  0  1  0  0  0  0  0999 V2000
    2.4959   -6.0934    2.5853 C   0  0  0  0  0  0  0  0  0  0  0  0
    2.5481   -5.5618    1.1558 C   0  0  0  0  0  0  0  0  0  0  0  0
    1.6402   -5.8113    0.3612 O   0  0  0  0  0  0  0  0  0  0  0  0
    3.6175   -4.7586    0.9387 O   0  0  0  0  0  0  0  0  0  0  0  0
    3.8210   -4.1012   -0.3095 C   0  0  2  0  0  0  0  0  0  0  0  0
    5.2929   -4.0741   -0.7511 C   0  0  0  0  0  0  0  0  0  0  0  0
    5.5004   -2.6844   -1.3869 C   0  0  2  0  0  0  0  0  0  0  0  0
    5.9672   -1.6122   -0.3602 C   0  0  2  0  0  0  0  0  0  0  0  0
    6.9148   -1.8300    0.8600 C   0  0  0  0  0  0  0  0  0  0  0  0
    5.6564   -2.0218    1.7189 C   0  0  1  0  0  0  0  0  0  0  0  0
    5.2607   -1.5621    3.1170 C   0  0  0  0  0  0  0  0  0  0  0  0
    3.7289   -1.7395    3.1600 C   0  0  2  0  0  0  0  0  0  0  0  0
    2.9243   -1.4404    4.4121 C   0  0  0  0  0  0  0  0  0  0  0  0
    1.6883   -1.9781    3.9407 O   0  0  0  0  0  0  0  0  0  0  0  0
    2.1445   -2.6076    2.7528 C   0  0  2  0  0  0  0  0  0  0  0  0
    3.4333   -3.1448    3.0396 O   0  0  0  0  0  0  0  0  0  0  0  0
    2.8332   -1.5215    1.9217 C   0  0  2  0  0  0  0  0  0  0  0  0
    3.4639   -1.5474    0.4996 C   0  0  1  0  0  0  0  0  0  0  0  0
    4.9322   -1.2209    0.6639 C   0  0  2  0  0  0  0  0  0  0  0  0
    3.2406   -2.6849   -0.5767 C   0  0  1  0  0  0  0  0  0  0  0  0
    4.0671   -2.3253   -1.8720 C   0  0  0  0  0  0  0  0  0  0  0  0
    3.9035   -0.8697   -2.3815 C   0  0  0  0  0  0  0  0  0  0  0  0
    3.6656   -3.1630   -3.1129 C   0  0  0  0  0  0  0  0  0  0  0  0
    2.5380   -5.2885    3.3159 H   0  0  0  0  0  0  0  0  0  0  0  0
    3.3354   -6.7564    2.7767 H   0  0  0  0  0  0  0  0  0  0  0  0
    1.5643   -6.6289    2.7651 H   0  0  0  0  0  0  0  0  0  0  0  0
    3.3450   -4.7302   -1.0540 H   0  0  0  0  0  0  0  0  0  0  0  0
    6.0083   -4.3087    0.0344 H   0  0  0  0  0  0  0  0  0  0  0  0
    5.4195   -4.8447   -1.5083 H   0  0  0  0  0  0  0  0  0  0  0  0
    6.2101   -2.7327   -2.2171 H   0  0  0  0  0  0  0  0  0  0  0  0
    6.2302   -0.6877   -0.8582 H   0  0  0  0  0  0  0  0  0  0  0  0
    7.5477   -2.7147    0.7987 H   0  0  0  0  0  0  0  0  0  0  0  0
    7.4822   -0.9409    1.1393 H   0  0  0  0  0  0  0  0  0  0  0  0
    5.4182   -3.0695    1.6375 H   0  0  0  0  0  0  0  0  0  0  0  0
    5.7528   -2.1737    3.8719 H   0  0  0  0  0  0  0  0  0  0  0  0
    5.5374   -0.5226    3.2915 H   0  0  0  0  0  0  0  0  0  0  0  0
    3.2842   -1.9787    5.2889 H   0  0  0  0  0  0  0  0  0  0  0  0
    2.8328   -0.3764    4.6285 H   0  0  0  0  0  0  0  0  0  0  0  0
    1.4602   -3.2587    2.2064 H   0  0  0  0  0  0  0  0  0  0  0  0
    2.2803   -0.5967    2.0597 H   0  0  0  0  0  0  0  0  0  0  0  0
    3.0014   -0.6794    0.0267 H   0  0  0  0  0  0  0  0  0  0  0  0
    5.0620   -0.1592    0.8820 H   0  0  0  0  0  0  0  0  0  0  0  0
    2.1798   -2.7632   -0.8079 H   0  0  0  0  0  0  0  0  0  0  0  0
    2.8554   -0.6609   -2.5972 H   0  0  0  0  0  0  0  0  0  0  0  0
    4.4684   -0.6898   -3.2964 H   0  0  0  0  0  0  0  0  0  0  0  0
    4.2337   -0.1121   -1.6810 H   0  0  0  0  0  0  0  0  0  0  0  0
    2.6090   -3.0329   -3.3454 H   0  0  0  0  0  0  0  0  0  0  0  0
    3.8419   -4.2287   -3.0082 H   0  0  0  0  0  0  0  0  0  0  0  0
    4.2377   -2.8716   -3.9954 H   0  0  0  0  0  0  0  0  0  0  0  0
  1  2  1  0
  1 24  1  0
  1 25  1  0
  1 26  1  0
  2  3  2  0
  2  4  1  0
  4  5  1  0
  5 20  1  0
  5  6  1  0
  5 27  1  6
  6  7  1  0
  6 28  1  0
  6 29  1  0
  7 21  1  0
  7  8  1  0
  7 30  1  6
  8 19  1  0
  8  9  1  0
  8 31  1  6
  9 10  1  0
  9 32  1  0
  9 33  1  0
 10 19  1  0
 10 11  1  0
 10 34  1  1
 12 11  1  6
 11 35  1  0
 11 36  1  0
 12 16  1  0
 12 17  1  0
 12 13  1  0
 13 14  1  0
 13 37  1  0
 13 38  1  0
 14 15  1  0
 15 16  1  0
 15 17  1  0
 15 39  1  6
 17 18  1  0
 17 40  1  1
 18 19  1  0
 18 20  1  0
 18 41  1  6
 19 42  1  1
 20 21  1  0
 20 43  1  6
 21 22  1  0
 21 23  1  0
 22 44  1  0
 22 45  1  0
 22 46  1  0
 23 47  1  0
 23 48  1  0
 23 49  1  0
M  END
>  <i_m_ct_stereo_status>  (154) 
1

>  <s_m_source_file>  (154) 
/var/tmp/pbs.5076255.sched01/tmpwzsktf0x/40k9schvjs.sdf

>  <i_m_source_file_index>  (154) 
31

>  <i_lp_mmshare_version>  (154) 
48012

>  <i_f3d_flags>  (154) 
0

>  <s_epik_input>  (154) 
W0NIM11DKD1PKU9bQ0BASF0oW0NAQEhdMUMyKFtDSDNdKVtDSDNdKVtDSDJdW0NAQEhdMltDQEhdKFtDSDJdW0NASF0zW0NIMl00KVtDQEhdM1tDQEBIXTFbQ0BIXShbQ0BAXTQ1NilbQ0BASF0oTzYpT1tDSDJdNQ==

>  <s_epik_cmdline>  (154) 
J2VwaWtfcHl0aG9uJywgJy1waHQnLCAnMi4wJywgJy1waCcsICc3LjAnLCAnLXRuJywgJzgnLCAnLW1hJywgJzIwMCcsICctaW1hZScsICc8aW5maWxlLm1hZT4nLCAnLW9tYWUnLCAnPG91dGZpbGUubWFlPic=

>  <r_lp_tautomer_probability>  (154) 
1

>  <r_epik_Ionization_Penalty>  (154) 
4.8374e-13

>  <r_epik_Ionization_Penalty_Charging>  (154) 
0

>  <r_epik_Ionization_Penalty_Neutral>  (154) 
4.8374e-13

>  <r_epik_State_Penalty>  (154) 
-0

>  <r_epik_Charging_Adjusted_Penalty>  (154) 
0

>  <i_epik_Tot_Q>  (154) 
0

>  <i_epik_Tot_abs_Q>  (154) 
0

>  <s_epik_Chemistry_Notes>  (154) 
This compound has an ester and may undergo hydrolysis at high or low pH. This compound contains an acetal/aminal-like group ( X-CH(R)-Y where X, Y are N, S, or O) that may be acid/base labile, releasing an aldehyde.

>  <s_lp_Force_Field>  (154) 
OPLS3e

>  <r_lp_Energy>  (154) 
88.5458

>  <b_lp_Chiralities_Consistent>  (154) 
1

>  <s_lp_Variant>  (154) 
54:0-1

>  <s_i_glide_gridfile>  (154) 
pfpi4k_grid

>  <i_i_glide_lignum>  (154) 
31

>  <i_i_glide_rotatable_bonds>  (154) 
2

>  <r_i_docking_score>  (154) 
-3.32642

>  <r_i_glide_ligand_efficiency>  (154) 
-0.144627

>  <r_i_glide_ligand_efficiency_sa>  (154) 
-0.411299

>  <r_i_glide_ligand_efficiency_ln>  (154) 
-0.804357

>  <r_i_glide_gscore>  (154) 
-3.32642

>  <r_i_glide_lipo>  (154) 
-0.348088

>  <r_i_glide_hbond>  (154) 
-0.117304

>  <r_i_glide_metal>  (154) 
-0

>  <r_i_glide_rewards>  (154) 
-1.23813

>  <r_i_glide_evdw>  (154) 
-24.6264

>  <r_i_glide_ecoul>  (154) 
-3.62769

>  <r_i_glide_erotb>  (154) 
0.183901

>  <r_i_glide_esite>  (154) 
-0.0313184

>  <r_i_glide_emodel>  (154) 
-33.1059

>  <r_i_glide_energy>  (154) 
-28.2541

>  <r_i_glide_einternal>  (154) 
0.361267

>  <r_i_glide_intrahb_reward>  (154) 
-0

>  <i_i_glide_confnum>  (154) 
3

>  <i_i_glide_posenum>  (154) 
3

>  <r_i_glide_eff_state_penalty>  (154) 
0

>  <ligand_id>  (154) 
54

>  <original_smiles>  (154) 
CC(=O)OC1CC2C3CC4CC56COC(O5)C6C(C43)C1C2(C)C

>  <smiles>  (154) 
[H]C([H])([H])C(=O)OC1([H])C([H])([H])C2([H])C3([H])C([H])([H])C4([H])C([H])([H])C56OC([H])(OC5([H])[H])C6([H])C([H])(C43[H])C1([H])C2(C([H])([H])[H])C([H])([H])[H]

$$$$
54:0:1
     RDKit          3D

 49 54  0  0  1  0  0  0  0  0999 V2000
    5.9261   -6.8291    1.8542 C   0  0  0  0  0  0  0  0  0  0  0  0
    5.3971   -6.2480    0.5673 C   0  0  0  0  0  0  0  0  0  0  0  0
    4.4999   -6.8412   -0.0623 O   0  0  0  0  0  0  0  0  0  0  0  0
    5.8442   -5.0092    0.2654 O   0  0  0  0  0  0  0  0  0  0  0  0
    5.3734   -4.3120   -0.8866 C   0  0  2  0  0  0  0  0  0  0  0  0
    6.3219   -3.1886   -1.3794 C   0  0  0  0  0  0  0  0  0  0  0  0
    5.3856   -2.0621   -1.8166 C   0  0  2  0  0  0  0  0  0  0  0  0
    5.0649   -1.0538   -0.6686 C   0  0  2  0  0  0  0  0  0  0  0  0
    6.0270   -0.6316    0.4806 C   0  0  0  0  0  0  0  0  0  0  0  0
    5.3844   -1.7289    1.3335 C   0  0  1  0  0  0  0  0  0  0  0  0
    4.9512   -1.7646    2.8053 C   0  0  0  0  0  0  0  0  0  0  0  0
    3.9977   -2.9712    2.8943 C   0  0  2  0  0  0  0  0  0  0  0  0
    3.4078   -3.3882    4.2361 C   0  0  0  0  0  0  0  0  0  0  0  0
    2.8182   -4.5837    3.7418 O   0  0  0  0  0  0  0  0  0  0  0  0
    3.3789   -4.6768    2.4410 C   0  0  2  0  0  0  0  0  0  0  0  0
    4.7099   -4.1980    2.6120 O   0  0  0  0  0  0  0  0  0  0  0  0
    3.0260   -3.3438    1.7445 C   0  0  2  0  0  0  0  0  0  0  0  0
    3.3659   -2.8597    0.2785 C   0  0  1  0  0  0  0  0  0  0  0  0
    4.1837   -1.5939    0.4286 C   0  0  2  0  0  0  0  0  0  0  0  0
    3.9132   -3.7363   -0.9178 C   0  0  1  0  0  0  0  0  0  0  0  0
    4.0845   -2.8180   -2.1970 C   0  0  0  0  0  0  0  0  0  0  0  0
    2.8888   -1.8885   -2.5271 C   0  0  0  0  0  0  0  0  0  0  0  0
    4.2669   -3.5895   -3.5421 C   0  0  0  0  0  0  0  0  0  0  0  0
    5.9608   -6.0653    2.6288 H   0  0  0  0  0  0  0  0  0  0  0  0
    6.9202   -7.2490    1.7342 H   0  0  0  0  0  0  0  0  0  0  0  0
    5.2578   -7.6188    2.2040 H   0  0  0  0  0  0  0  0  0  0  0  0
    5.3967   -5.0451   -1.6934 H   0  0  0  0  0  0  0  0  0  0  0  0
    7.0708   -2.8909   -0.6502 H   0  0  0  0  0  0  0  0  0  0  0  0
    6.8882   -3.5448   -2.2517 H   0  0  0  0  0  0  0  0  0  0  0  0
    5.7820   -1.5247   -2.6733 H   0  0  0  0  0  0  0  0  0  0  0  0
    4.5911   -0.1653   -1.0770 H   0  0  0  0  0  0  0  0  0  0  0  0
    7.0900   -0.7698    0.3011 H   0  0  0  0  0  0  0  0  0  0  0  0
    5.7942    0.3724    0.8562 H   0  0  0  0  0  0  0  0  0  0  0  0
    5.9668   -2.6243    1.1409 H   0  0  0  0  0  0  0  0  0  0  0  0
    5.8066   -1.8999    3.4533 H   0  0  0  0  0  0  0  0  0  0  0  0
    4.4586   -0.8282    3.1016 H   0  0  0  0  0  0  0  0  0  0  0  0
    4.1798   -3.5949    4.9773 H   0  0  0  0  0  0  0  0  0  0  0  0
    2.6270   -2.7185    4.6360 H   0  0  0  0  0  0  0  0  0  0  0  0
    3.2110   -5.6090    1.8878 H   0  0  0  0  0  0  0  0  0  0  0  0
    1.9822   -3.0850    1.9933 H   0  0  0  0  0  0  0  0  0  0  0  0
    2.3879   -2.5708   -0.0854 H   0  0  0  0  0  0  0  0  0  0  0  0
    3.5488   -0.7728    0.7774 H   0  0  0  0  0  0  0  0  0  0  0  0
    3.1883   -4.5447   -1.1212 H   0  0  0  0  0  0  0  0  0  0  0  0
    1.9851   -2.4747   -2.6748 H   0  0  0  0  0  0  0  0  0  0  0  0
    3.0464   -1.2887   -3.4258 H   0  0  0  0  0  0  0  0  0  0  0  0
    2.6669   -1.1673   -1.7417 H   0  0  0  0  0  0  0  0  0  0  0  0
    3.3991   -4.2135   -3.7430 H   0  0  0  0  0  0  0  0  0  0  0  0
    5.1454   -4.2326   -3.5806 H   0  0  0  0  0  0  0  0  0  0  0  0
    4.3625   -2.8965   -4.3772 H   0  0  0  0  0  0  0  0  0  0  0  0
  1  2  1  0
  1 24  1  0
  1 25  1  0
  1 26  1  0
  2  3  2  0
  2  4  1  0
  4  5  1  0
  5 20  1  0
  5  6  1  0
  5 27  1  6
  6  7  1  0
  6 28  1  0
  6 29  1  0
  7 21  1  0
  7  8  1  0
  7 30  1  6
  8 19  1  0
  8  9  1  0
  8 31  1  6
  9 10  1  0
  9 32  1  0
  9 33  1  0
 10 19  1  0
 10 11  1  0
 10 34  1  6
 12 11  1  1
 11 35  1  0
 11 36  1  0
 12 16  1  0
 12 17  1  0
 12 13  1  0
 13 14  1  0
 13 37  1  0
 13 38  1  0
 14 15  1  0
 15 16  1  0
 15 17  1  0
 15 39  1  6
 17 18  1  0
 17 40  1  1
 18 19  1  0
 18 20  1  0
 18 41  1  6
 19 42  1  1
 20 21  1  0
 20 43  1  6
 21 22  1  0
 21 23  1  0
 22 44  1  0
 22 45  1  0
 22 46  1  0
 23 47  1  0
 23 48  1  0
 23 49  1  0
M  END
>  <i_m_ct_stereo_status>  (155) 
1

>  <s_m_source_file>  (155) 
/var/tmp/pbs.5076255.sched01/tmpwzsktf0x/40k9schvjs.sdf

>  <i_m_source_file_index>  (155) 
31

>  <i_lp_mmshare_version>  (155) 
48012

>  <i_f3d_flags>  (155) 
0

>  <s_epik_input>  (155) 
W0NIM11DKD1PKU9bQ0BASF0oW0NAQEhdMUMyKFtDSDNdKVtDSDNdKVtDSDJdW0NAQEhdMltDQEhdKFtDSDJdW0NASF0zW0NIMl00KVtDQEhdM1tDQEBIXTFbQ0BIXShbQ0BAXTQ1NilbQ0BASF0oTzYpT1tDSDJdNQ==

>  <s_epik_cmdline>  (155) 
J2VwaWtfcHl0aG9uJywgJy1waHQnLCAnMi4wJywgJy1waCcsICc3LjAnLCAnLXRuJywgJzgnLCAnLW1hJywgJzIwMCcsICctaW1hZScsICc8aW5maWxlLm1hZT4nLCAnLW9tYWUnLCAnPG91dGZpbGUubWFlPic=

>  <r_lp_tautomer_probability>  (155) 
1

>  <r_epik_Ionization_Penalty>  (155) 
4.8374e-13

>  <r_epik_Ionization_Penalty_Charging>  (155) 
0

>  <r_epik_Ionization_Penalty_Neutral>  (155) 
4.8374e-13

>  <r_epik_State_Penalty>  (155) 
-0

>  <r_epik_Charging_Adjusted_Penalty>  (155) 
0

>  <i_epik_Tot_Q>  (155) 
0

>  <i_epik_Tot_abs_Q>  (155) 
0

>  <s_epik_Chemistry_Notes>  (155) 
This compound has an ester and may undergo hydrolysis at high or low pH. This compound contains an acetal/aminal-like group ( X-CH(R)-Y where X, Y are N, S, or O) that may be acid/base labile, releasing an aldehyde.

>  <s_lp_Force_Field>  (155) 
OPLS3e

>  <r_lp_Energy>  (155) 
88.5458

>  <b_lp_Chiralities_Consistent>  (155) 
1

>  <s_lp_Variant>  (155) 
54:0-1

>  <s_i_glide_gridfile>  (155) 
pfpi4k_grid

>  <i_i_glide_lignum>  (155) 
31

>  <i_i_glide_rotatable_bonds>  (155) 
2

>  <r_i_docking_score>  (155) 
-2.98318

>  <r_i_glide_ligand_efficiency>  (155) 
-0.129703

>  <r_i_glide_ligand_efficiency_sa>  (155) 
-0.368859

>  <r_i_glide_ligand_efficiency_ln>  (155) 
-0.721359

>  <r_i_glide_gscore>  (155) 
-2.98318

>  <r_i_glide_lipo>  (155) 
-0.57524

>  <r_i_glide_hbond>  (155) 
0

>  <r_i_glide_metal>  (155) 
-0

>  <r_i_glide_rewards>  (155) 
-1.39104

>  <r_i_glide_evdw>  (155) 
-21.9327

>  <r_i_glide_ecoul>  (155) 
-0.69442

>  <r_i_glide_erotb>  (155) 
0.183901

>  <r_i_glide_esite>  (155) 
0

>  <r_i_glide_emodel>  (155) 
-26.0854

>  <r_i_glide_energy>  (155) 
-22.6272

>  <r_i_glide_einternal>  (155) 
0.286857

>  <r_i_glide_intrahb_reward>  (155) 
-0

>  <i_i_glide_confnum>  (155) 
6

>  <i_i_glide_posenum>  (155) 
26

>  <r_i_glide_eff_state_penalty>  (155) 
0

>  <ligand_id>  (155) 
54

>  <original_smiles>  (155) 
CC(=O)OC1CC2C3CC4CC56COC(O5)C6C(C43)C1C2(C)C

>  <smiles>  (155) 
[H]C([H])([H])C(=O)OC1([H])C([H])([H])C2([H])C3([H])C([H])([H])C4([H])C([H])([H])C56OC([H])(OC5([H])[H])C6([H])C([H])(C43[H])C1([H])C2(C([H])([H])[H])C([H])([H])[H]

$$$$
54:0:2
     RDKit          3D

 49 54  0  0  1  0  0  0  0  0999 V2000
    1.0330   -4.7702   -1.1531 C   0  0  0  0  0  0  0  0  0  0  0  0
    2.1068   -5.0769   -0.0772 C   0  0  0  0  0  0  0  0  0  0  0  0
    1.8038   -5.6716    0.9286 O   0  0  0  0  0  0  0  0  0  0  0  0
    3.3384   -4.5847   -0.3392 O   0  0  0  0  0  0  0  0  0  0  0  0
    3.6216   -3.8066   -1.4850 C   0  0  2  0  0  0  0  0  0  0  0  0
    4.9802   -4.0572   -2.1458 C   0  0  0  0  0  0  0  0  0  0  0  0
    5.4143   -2.6709   -2.5829 C   0  0  2  0  0  0  0  0  0  0  0  0
    6.2165   -1.9702   -1.4930 C   0  0  2  0  0  0  0  0  0  0  0  0
    7.2316   -2.5989   -0.4764 C   0  0  0  0  0  0  0  0  0  0  0  0
    6.0499   -2.6391    0.5079 C   0  0  1  0  0  0  0  0  0  0  0  0
    5.9243   -2.3774    1.9909 C   0  0  0  0  0  0  0  0  0  0  0  0
    4.4115   -2.2208    2.2505 C   0  0  2  0  0  0  0  0  0  0  0  0
    3.8481   -1.9671    3.6357 C   0  0  0  0  0  0  0  0  0  0  0  0
    2.4695   -2.1226    3.2830 O   0  0  0  0  0  0  0  0  0  0  0  0
    2.6123   -2.5816    1.9543 C   0  0  2  0  0  0  0  0  0  0  0  0
    3.7319   -3.4579    1.9844 O   0  0  0  0  0  0  0  0  0  0  0  0
    3.4853   -1.5514    1.2223 C   0  0  2  0  0  0  0  0  0  0  0  0
    3.9398   -1.4553   -0.2665 C   0  0  1  0  0  0  0  0  0  0  0  0
    5.4444   -1.5049   -0.2800 C   0  0  2  0  0  0  0  0  0  0  0  0
    3.3509   -2.2920   -1.4603 C   0  0  1  0  0  0  0  0  0  0  0  0
    4.0676   -1.9061   -2.7941 C   0  0  0  0  0  0  0  0  0  0  0  0
    4.1869   -0.3780   -3.0372 C   0  0  0  0  0  0  0  0  0  0  0  0
    3.3270   -2.3991   -4.0604 C   0  0  0  0  0  0  0  0  0  0  0  0
    1.2752   -5.0949   -2.1319 H   0  0  0  0  0  0  0  0  0  0  0  0
    0.8500   -3.7002   -1.2035 H   0  0  0  0  0  0  0  0  0  0  0  0
    0.1093   -5.2564   -0.8339 H   0  0  0  0  0  0  0  0  0  0  0  0
    2.9603   -4.1436   -2.2646 H   0  0  0  0  0  0  0  0  0  0  0  0
    5.6816   -4.5874   -1.5093 H   0  0  0  0  0  0  0  0  0  0  0  0
    4.8503   -4.6771   -3.0328 H   0  0  0  0  0  0  0  0  0  0  0  0
    5.9976   -2.7226   -3.5017 H   0  0  0  0  0  0  0  0  0  0  0  0
    6.5635   -1.0788   -1.9672 H   0  0  0  0  0  0  0  0  0  0  0  0
    7.6284   -3.5690   -0.7830 H   0  0  0  0  0  0  0  0  0  0  0  0
    8.0311   -1.9305   -0.1502 H   0  0  0  0  0  0  0  0  0  0  0  0
    5.5418   -3.5747    0.3173 H   0  0  0  0  0  0  0  0  0  0  0  0
    6.3305   -3.2177    2.5408 H   0  0  0  0  0  0  0  0  0  0  0  0
    6.4628   -1.4716    2.2734 H   0  0  0  0  0  0  0  0  0  0  0  0
    4.1583   -2.7106    4.3709 H   0  0  0  0  0  0  0  0  0  0  0  0
    4.0307   -0.9564    3.9968 H   0  0  0  0  0  0  0  0  0  0  0  0
    1.7212   -2.9273    1.4441 H   0  0  0  0  0  0  0  0  0  0  0  0
    3.2153   -0.5541    1.5730 H   0  0  0  0  0  0  0  0  0  0  0  0
    3.6665   -0.4384   -0.5232 H   0  0  0  0  0  0  0  0  0  0  0  0
    5.8676   -0.5638    0.0850 H   0  0  0  0  0  0  0  0  0  0  0  0
    2.2875   -2.1161   -1.5547 H   0  0  0  0  0  0  0  0  0  0  0  0
    3.2200    0.1174   -3.0546 H   0  0  0  0  0  0  0  0  0  0  0  0
    4.5973   -0.1850   -4.0228 H   0  0  0  0  0  0  0  0  0  0  0  0
    4.8066    0.1439   -2.3097 H   0  0  0  0  0  0  0  0  0  0  0  0
    2.3266   -1.9703   -4.1254 H   0  0  0  0  0  0  0  0  0  0  0  0
    3.2265   -3.4777   -4.1552 H   0  0  0  0  0  0  0  0  0  0  0  0
    3.8558   -2.0703   -4.9511 H   0  0  0  0  0  0  0  0  0  0  0  0
  1  2  1  0
  1 24  1  0
  1 25  1  0
  1 26  1  0
  2  3  2  0
  2  4  1  0
  4  5  1  0
  5 20  1  0
  5  6  1  0
  5 27  1  6
  6  7  1  0
  6 28  1  0
  6 29  1  0
  7 21  1  0
  7  8  1  0
  7 30  1  6
  8 19  1  0
  8  9  1  0
  8 31  1  6
  9 10  1  0
  9 32  1  0
  9 33  1  0
 10 19  1  0
 10 11  1  0
 10 34  1  1
 12 11  1  1
 11 35  1  0
 11 36  1  0
 12 16  1  0
 12 17  1  0
 12 13  1  0
 13 14  1  0
 13 37  1  0
 13 38  1  0
 14 15  1  0
 15 16  1  0
 15 17  1  0
 15 39  1  6
 17 18  1  0
 17 40  1  1
 18 19  1  0
 18 20  1  0
 18 41  1  6
 19 42  1  1
 20 21  1  0
 20 43  1  6
 21 22  1  0
 21 23  1  0
 22 44  1  0
 22 45  1  0
 22 46  1  0
 23 47  1  0
 23 48  1  0
 23 49  1  0
M  END
>  <i_m_ct_stereo_status>  (156) 
1

>  <s_m_source_file>  (156) 
/var/tmp/pbs.5076255.sched01/tmpwzsktf0x/40k9schvjs.sdf

>  <i_m_source_file_index>  (156) 
31

>  <i_lp_mmshare_version>  (156) 
48012

>  <i_f3d_flags>  (156) 
0

>  <s_epik_input>  (156) 
W0NIM11DKD1PKU9bQ0BASF0oW0NAQEhdMUMyKFtDSDNdKVtDSDNdKVtDSDJdW0NAQEhdMltDQEhdKFtDSDJdW0NASF0zW0NIMl00KVtDQEhdM1tDQEBIXTFbQ0BIXShbQ0BAXTQ1NilbQ0BASF0oTzYpT1tDSDJdNQ==

>  <s_epik_cmdline>  (156) 
J2VwaWtfcHl0aG9uJywgJy1waHQnLCAnMi4wJywgJy1waCcsICc3LjAnLCAnLXRuJywgJzgnLCAnLW1hJywgJzIwMCcsICctaW1hZScsICc8aW5maWxlLm1hZT4nLCAnLW9tYWUnLCAnPG91dGZpbGUubWFlPic=

>  <r_lp_tautomer_probability>  (156) 
1

>  <r_epik_Ionization_Penalty>  (156) 
4.8374e-13

>  <r_epik_Ionization_Penalty_Charging>  (156) 
0

>  <r_epik_Ionization_Penalty_Neutral>  (156) 
4.8374e-13

>  <r_epik_State_Penalty>  (156) 
-0

>  <r_epik_Charging_Adjusted_Penalty>  (156) 
0

>  <i_epik_Tot_Q>  (156) 
0

>  <i_epik_Tot_abs_Q>  (156) 
0

>  <s_epik_Chemistry_Notes>  (156) 
This compound has an ester and may undergo hydrolysis at high or low pH. This compound contains an acetal/aminal-like group ( X-CH(R)-Y where X, Y are N, S, or O) that may be acid/base labile, releasing an aldehyde.

>  <s_lp_Force_Field>  (156) 
OPLS3e

>  <r_lp_Energy>  (156) 
88.5458

>  <b_lp_Chiralities_Consistent>  (156) 
1

>  <s_lp_Variant>  (156) 
54:0-1

>  <s_i_glide_gridfile>  (156) 
pfpi4k_grid

>  <i_i_glide_lignum>  (156) 
31

>  <i_i_glide_rotatable_bonds>  (156) 
2

>  <r_i_docking_score>  (156) 
-2.16849

>  <r_i_glide_ligand_efficiency>  (156) 
-0.0942823

>  <r_i_glide_ligand_efficiency_sa>  (156) 
-0.268126

>  <r_i_glide_ligand_efficiency_ln>  (156) 
-0.524361

>  <r_i_glide_gscore>  (156) 
-2.16849

>  <r_i_glide_lipo>  (156) 
-0.53861

>  <r_i_glide_hbond>  (156) 
-0.0885588

>  <r_i_glide_metal>  (156) 
-0

>  <r_i_glide_rewards>  (156) 
-1.23813

>  <r_i_glide_evdw>  (156) 
-1.49372

>  <r_i_glide_ecoul>  (156) 
-2.11884

>  <r_i_glide_erotb>  (156) 
0.183901

>  <r_i_glide_esite>  (156) 
-0.0945827

>  <r_i_glide_emodel>  (156) 
-3.60106

>  <r_i_glide_energy>  (156) 
-3.61255

>  <r_i_glide_einternal>  (156) 
5.36064

>  <r_i_glide_intrahb_reward>  (156) 
-0

>  <i_i_glide_confnum>  (156) 
6

>  <i_i_glide_posenum>  (156) 
7

>  <r_i_glide_eff_state_penalty>  (156) 
0

>  <ligand_id>  (156) 
54

>  <original_smiles>  (156) 
CC(=O)OC1CC2C3CC4CC56COC(O5)C6C(C43)C1C2(C)C

>  <smiles>  (156) 
[H]C([H])([H])C(=O)OC1([H])C([H])([H])C2([H])C3([H])C([H])([H])C4([H])C([H])([H])C56OC([H])(OC5([H])[H])C6([H])C([H])(C43[H])C1([H])C2(C([H])([H])[H])C([H])([H])[H]

$$$$
55:0:0
     RDKit          3D

 80 85  0  0  1  0  0  0  0  0999 V2000
    2.6735    1.3977    4.7495 C   0  0  0  0  0  0  0  0  0  0  0  0
    2.3612    0.0530    4.1462 C   0  0  0  0  0  0  0  0  0  0  0  0
    2.8045   -1.1616    4.5297 C   0  0  0  0  0  0  0  0  0  0  0  0
    2.2583   -2.2296    3.6267 C   0  0  2  0  0  0  0  0  0  0  0  0
    3.3490   -3.0490    2.8514 C   0  0  2  0  0  0  0  0  0  0  0  0
    2.8745   -3.8499    1.6127 C   0  0  0  0  0  0  0  0  0  0  0  0
    3.7671   -5.1141    1.5306 C   0  0  2  0  0  0  0  0  0  0  0  0
    2.9554   -6.0564    2.2147 O   0  0  0  0  0  0  0  0  0  0  0  0
    2.9800   -7.4282    1.8727 C   0  0  1  0  0  0  0  0  0  0  0  0
    3.7320   -8.2460    2.9237 C   0  0  0  0  0  0  0  0  0  0  0  0
    3.4984   -7.7784    4.3818 C   0  0  2  0  0  0  0  0  0  0  0  0
    3.9156   -9.0395    5.2039 C   0  0  0  0  0  0  0  0  0  0  0  0
    1.9322   -7.5867    4.6175 C   0  0  1  0  0  0  0  0  0  0  0  0
    1.6637   -6.3429    5.4725 C   0  0  0  0  0  0  0  0  0  0  0  0
    2.2295   -5.0778    4.8424 C   0  0  0  0  0  0  0  0  0  0  0  0
    3.7676   -5.0524    4.6503 C   0  0  1  0  0  0  0  0  0  0  0  0
    4.4284   -6.4969    4.8099 C   0  0  1  0  0  0  0  0  0  0  0  0
    4.8435   -6.6292    6.3259 C   0  0  0  0  0  0  0  0  0  0  0  0
    5.8327   -6.4984    4.1357 C   0  0  0  0  0  0  0  0  0  0  0  0
    6.0025   -5.8667    2.7405 C   0  0  1  0  0  0  0  0  0  0  0  0
    6.2033   -6.8432    1.7434 O   0  0  0  0  0  0  0  0  0  0  0  0
    5.0444   -4.7081    2.3241 C   0  0  1  0  0  0  0  0  0  0  0  0
    5.9136   -3.7249    1.4151 C   0  0  0  0  0  0  0  0  0  0  0  0
    6.6696   -4.2901    0.1715 C   0  0  0  0  0  0  0  0  0  0  0  0
    7.7886   -3.3631   -0.3093 C   0  0  0  0  0  0  0  0  0  0  0  0
    7.4771   -2.2466   -0.7530 O   0  0  0  0  0  0  0  0  0  0  0  0
    8.9664   -3.8261   -0.2305 O   0  0  0  0  0  0  0  0  0  0  0  0
    4.3756   -3.9977    3.5811 C   0  0  1  0  0  0  0  0  0  0  0  0
    5.3982   -3.1191    4.3399 C   0  0  0  0  0  0  0  0  0  0  0  0
    0.9005   -7.8731    3.4123 C   0  0  0  0  0  0  0  0  0  0  0  0
    0.2767   -9.2680    3.6665 C   0  0  0  0  0  0  0  0  0  0  0  0
   -0.3110   -6.8971    3.3902 C   0  0  0  0  0  0  0  0  0  0  0  0
    1.5370   -7.9209    1.9684 C   0  0  1  0  0  0  0  0  0  0  0  0
    0.7442   -7.3721    0.9203 O   0  0  0  0  0  0  0  0  0  0  0  0
    1.4704   -1.4657    2.7177 O   0  0  0  0  0  0  0  0  0  0  0  0
    1.4792   -0.1438    3.0140 C   0  0  0  0  0  0  0  0  0  0  0  0
    0.7991    0.7311    2.4468 O   0  0  0  0  0  0  0  0  0  0  0  0
    3.1362    2.0431    3.9961 H   0  0  0  0  0  0  0  0  0  0  0  0
    3.3644    1.3235    5.5943 H   0  0  0  0  0  0  0  0  0  0  0  0
    1.7545    1.8799    5.0973 H   0  0  0  0  0  0  0  0  0  0  0  0
    3.4423   -1.3123    5.3802 H   0  0  0  0  0  0  0  0  0  0  0  0
    3.9297   -2.2356    2.4173 H   0  0  0  0  0  0  0  0  0  0  0  0
    1.8129   -4.1084    1.6589 H   0  0  0  0  0  0  0  0  0  0  0  0
    2.9997   -3.2461    0.7120 H   0  0  0  0  0  0  0  0  0  0  0  0
    3.9527   -5.4110    0.4927 H   0  0  0  0  0  0  0  0  0  0  0  0
    3.3767   -7.6080    0.8724 H   0  0  0  0  0  0  0  0  0  0  0  0
    3.3996   -9.2819    2.8131 H   0  0  0  0  0  0  0  0  0  0  0  0
    4.7758   -8.3807    2.7177 H   0  0  0  0  0  0  0  0  0  0  0  0
    3.7025   -8.9424    6.2697 H   0  0  0  0  0  0  0  0  0  0  0  0
    4.9744   -9.2718    5.0941 H   0  0  0  0  0  0  0  0  0  0  0  0
    3.3668   -9.9282    4.8930 H   0  0  0  0  0  0  0  0  0  0  0  0
    1.6667   -8.3506    5.3402 H   0  0  0  0  0  0  0  0  0  0  0  0
    0.6103   -6.2059    5.6864 H   0  0  0  0  0  0  0  0  0  0  0  0
    2.0673   -6.4748    6.4710 H   0  0  0  0  0  0  0  0  0  0  0  0
    1.7133   -4.8996    3.9070 H   0  0  0  0  0  0  0  0  0  0  0  0
    1.9508   -4.2965    5.5339 H   0  0  0  0  0  0  0  0  0  0  0  0
    4.0153   -4.5634    5.5945 H   0  0  0  0  0  0  0  0  0  0  0  0
    5.4011   -5.7586    6.6790 H   0  0  0  0  0  0  0  0  0  0  0  0
    5.5161   -7.4703    6.5023 H   0  0  0  0  0  0  0  0  0  0  0  0
    4.0145   -6.7493    7.0197 H   0  0  0  0  0  0  0  0  0  0  0  0
    6.5216   -5.9424    4.7797 H   0  0  0  0  0  0  0  0  0  0  0  0
    6.2571   -7.5008    4.1425 H   0  0  0  0  0  0  0  0  0  0  0  0
    6.9985   -5.4216    2.8088 H   0  0  0  0  0  0  0  0  0  0  0  0
    5.3657   -7.3082    1.6071 H   0  0  0  0  0  0  0  0  0  0  0  0
    5.3230   -2.9038    1.0225 H   0  0  0  0  0  0  0  0  0  0  0  0
    6.6621   -3.2444    2.0379 H   0  0  0  0  0  0  0  0  0  0  0  0
    7.1858   -5.2198    0.3842 H   0  0  0  0  0  0  0  0  0  0  0  0
    5.9711   -4.4917   -0.6423 H   0  0  0  0  0  0  0  0  0  0  0  0
    6.2113   -3.7268    4.6993 H   0  0  0  0  0  0  0  0  0  0  0  0
    4.9837   -2.6725    5.2407 H   0  0  0  0  0  0  0  0  0  0  0  0
    5.7779   -2.2892    3.7486 H   0  0  0  0  0  0  0  0  0  0  0  0
   -0.4211   -9.5555    2.8782 H   0  0  0  0  0  0  0  0  0  0  0  0
   -0.2756   -9.2994    4.6057 H   0  0  0  0  0  0  0  0  0  0  0  0
    1.0403  -10.0414    3.7200 H   0  0  0  0  0  0  0  0  0  0  0  0
   -1.0565   -7.1961    2.6471 H   0  0  0  0  0  0  0  0  0  0  0  0
   -0.0078   -5.8813    3.1351 H   0  0  0  0  0  0  0  0  0  0  0  0
   -0.8536   -6.8756    4.3356 H   0  0  0  0  0  0  0  0  0  0  0  0
    1.5925   -8.9703    1.6701 H   0  0  0  0  0  0  0  0  0  0  0  0
    0.2770   -8.1007    0.5221 H   0  0  0  0  0  0  0  0  0  0  0  0
    1.5486   -2.8303    4.1856 H   0  0  0  0  0  0  0  0  0  0  0  0
  1 38  1  0
  1 39  1  0
  1 40  1  0
  1  2  1  0
  2  3  2  0
  2 36  1  0
  3 41  1  0
  3  4  1  0
  4 35  1  0
  4  5  1  0
  4 80  1  1
  5 28  1  0
  5  6  1  0
  5 42  1  6
  6  7  1  0
  6 43  1  0
  6 44  1  0
  7 22  1  0
  7  8  1  0
  7 45  1  6
  8  9  1  0
  9 33  1  0
  9 10  1  0
  9 46  1  6
 10 11  1  0
 10 47  1  0
 10 48  1  0
 11 17  1  0
 11 12  1  1
 11 13  1  0
 12 49  1  0
 12 50  1  0
 12 51  1  0
 13 14  1  0
 13 30  1  0
 13 52  1  1
 14 15  1  0
 14 53  1  0
 14 54  1  0
 15 16  1  0
 15 55  1  0
 15 56  1  0
 16 28  1  0
 16 17  1  0
 16 57  1  1
 17 18  1  1
 17 19  1  0
 18 58  1  0
 18 59  1  0
 18 60  1  0
 19 20  1  0
 19 61  1  0
 19 62  1  0
 20 21  1  0
 20 22  1  0
 20 63  1  1
 21 64  1  0
 22 23  1  6
 22 28  1  0
 23 24  1  0
 23 65  1  0
 23 66  1  0
 24 25  1  0
 24 67  1  0
 24 68  1  0
 25 26  2  0
 25 27  1  0
 28 29  1  1
 29 69  1  0
 29 70  1  0
 29 71  1  0
 30 31  1  0
 30 32  1  0
 30 33  1  0
 31 72  1  0
 31 73  1  0
 31 74  1  0
 32 75  1  0
 32 76  1  0
 32 77  1  0
 33 34  1  0
 33 78  1  6
 34 79  1  0
 35 36  1  0
 36 37  2  0
M  CHG  1  27  -1
M  END
>  <i_m_ct_stereo_status>  (157) 
1

>  <s_m_source_file>  (157) 
/var/tmp/pbs.5076255.sched01/tmpwzsktf0x/40k9schvjs.sdf

>  <i_m_source_file_index>  (157) 
32

>  <i_lp_mmshare_version>  (157) 
48012

>  <i_f3d_flags>  (157) 
0

>  <s_epik_input>  (157) 
W0NIM11jMVtjSF1jKG9jMVtPSF0pW0NAQEhdKFtDQEBdMjNbQ0gzXSlbQ0gyXVtDQEhdKE9bQ0hdKFtDSDJdNClbQ0BIXShbT0hdKUM1KFtDSDNdKVtDSDNdKVtDQF0zKFtDSDJdW0NIMl1DKD1PKVtPSF0pW0NASF0oW09IXSlbQ0gyXVtDQEBdNihbQ0gzXSlbQ0hdMltDSDJdW0NIMl1bQ0BASF01W0NAQF00NltDSDNd

>  <s_epik_cmdline>  (157) 
J2VwaWtfcHl0aG9uJywgJy1waHQnLCAnMi4wJywgJy1waCcsICc3LjAnLCAnLXRuJywgJzgnLCAnLW1hJywgJzIwMCcsICctaW1hZScsICc8aW5maWxlLm1hZT4nLCAnLW9tYWUnLCAnPG91dGZpbGUubWFlPic=

>  <r_lp_tautomer_probability>  (157) 
0.999841

>  <r_epik_Ionization_Penalty>  (157) 
0.00339074

>  <r_epik_Ionization_Penalty_Charging>  (157) 
0.00339008

>  <r_epik_Ionization_Penalty_Neutral>  (157) 
6.54164e-07

>  <r_epik_State_Penalty>  (157) 
0.00240011

>  <r_epik_Charging_Adjusted_Penalty>  (157) 
0.0057902

>  <i_epik_Tot_Q>  (157) 
-1

>  <i_epik_Tot_abs_Q>  (157) 
1

>  <s_epik_Chemistry_Notes>  (157) 
This compound has an ester and may undergo hydrolysis at high or low pH.

>  <s_lp_Force_Field>  (157) 
OPLS3e

>  <r_lp_Energy>  (157) 
129.296

>  <b_lp_Chiralities_Consistent>  (157) 
1

>  <s_lp_Variant>  (157) 
55:0-1

>  <s_i_glide_gridfile>  (157) 
pfpi4k_grid

>  <i_i_glide_lignum>  (157) 
32

>  <i_i_glide_rotatable_bonds>  (157) 
6

>  <r_i_docking_score>  (157) 
-2.69653

>  <r_i_glide_ligand_efficiency>  (157) 
-0.0728792

>  <r_i_glide_ligand_efficiency_sa>  (157) 
-0.24285

>  <r_i_glide_ligand_efficiency_ln>  (157) 
-0.584814

>  <r_i_glide_gscore>  (157) 
-2.69653

>  <r_i_glide_lipo>  (157) 
-0.278792

>  <r_i_glide_hbond>  (157) 
-0.329838

>  <r_i_glide_metal>  (157) 
-0

>  <r_i_glide_rewards>  (157) 
-0.288364

>  <r_i_glide_evdw>  (157) 
-22.7389

>  <r_i_glide_ecoul>  (157) 
-5.83717

>  <r_i_glide_erotb>  (157) 
0.231519

>  <r_i_glide_esite>  (157) 
-0.0185321

>  <r_i_glide_emodel>  (157) 
-31.2842

>  <r_i_glide_energy>  (157) 
-28.5761

>  <r_i_glide_einternal>  (157) 
5.94134

>  <r_i_glide_intrahb_reward>  (157) 
-0

>  <i_i_glide_confnum>  (157) 
2

>  <i_i_glide_posenum>  (157) 
13

>  <r_i_glide_eff_state_penalty>  (157) 
0

>  <ligand_id>  (157) 
55

>  <original_smiles>  (157) 
Cc1cc(C2CC3OC4CC5(C)C(CCC6C5(C)CC(O)C3(CCC(=O)O)C26C)C(C)(C)C4O)oc1O

>  <smiles>  (157) 
[H]OC1([H])C2([H])OC3([H])C([H])([H])C([H])(C4([H])OC(=O)C(C([H])([H])[H])=C4[H])C4(C([H])([H])[H])C5([H])C([H])([H])C([H])([H])C([H])(C1(C([H])([H])[H])C([H])([H])[H])C(C([H])([H])[H])(C2([H])[H])C5(C([H])([H])[H])C([H])([H])C([H])(O[H])C34C([H])([H])C([H])([H])C(=O)[O-]

$$$$
55:0:1
     RDKit          3D

 80 85  0  0  1  0  0  0  0  0999 V2000
    3.3413    1.1901    4.4580 C   0  0  0  0  0  0  0  0  0  0  0  0
    2.7956   -0.0967    3.8752 C   0  0  0  0  0  0  0  0  0  0  0  0
    3.0463   -1.3616    4.2323 C   0  0  0  0  0  0  0  0  0  0  0  0
    2.2768   -2.3093    3.3460 C   0  0  2  0  0  0  0  0  0  0  0  0
    3.1949   -3.2730    2.5154 C   0  0  2  0  0  0  0  0  0  0  0  0
    2.5066   -4.1078    1.4054 C   0  0  0  0  0  0  0  0  0  0  0  0
    3.2685   -5.4405    1.3126 C   0  0  2  0  0  0  0  0  0  0  0  0
    2.4529   -6.2685    2.1315 O   0  0  0  0  0  0  0  0  0  0  0  0
    2.3026   -7.6566    1.9088 C   0  0  1  0  0  0  0  0  0  0  0  0
    3.1201   -8.4667    2.9105 C   0  0  0  0  0  0  0  0  0  0  0  0
    3.1142   -7.8977    4.3552 C   0  0  2  0  0  0  0  0  0  0  0  0
    3.5167   -9.1406    5.2139 C   0  0  0  0  0  0  0  0  0  0  0  0
    1.6168   -7.5341    4.7676 C   0  0  1  0  0  0  0  0  0  0  0  0
    1.5694   -6.2184    5.5618 C   0  0  0  0  0  0  0  0  0  0  0  0
    2.1591   -5.0593    4.7672 C   0  0  0  0  0  0  0  0  0  0  0  0
    3.6521   -5.2038    4.3813 C   0  0  1  0  0  0  0  0  0  0  0  0
    4.2043   -6.6948    4.5705 C   0  0  1  0  0  0  0  0  0  0  0  0
    4.8025   -6.7667    6.0272 C   0  0  0  0  0  0  0  0  0  0  0  0
    5.4905   -6.8864    3.7149 C   0  0  0  0  0  0  0  0  0  0  0  0
    5.5421   -6.3463    2.2725 C   0  0  1  0  0  0  0  0  0  0  0  0
    5.5158   -7.3527    1.2719 O   0  0  0  0  0  0  0  0  0  0  0  0
    4.6727   -5.0975    1.9256 C   0  0  1  0  0  0  0  0  0  0  0  0
    5.4897   -4.2919    0.8072 C   0  0  0  0  0  0  0  0  0  0  0  0
    6.8264   -3.5745    1.2168 C   0  0  0  0  0  0  0  0  0  0  0  0
    7.7756   -3.2677    0.0479 C   0  0  0  0  0  0  0  0  0  0  0  0
    7.4434   -2.3523   -0.7339 O   0  0  0  0  0  0  0  0  0  0  0  0
    8.8574   -3.9033   -0.0236 O   0  0  0  0  0  0  0  0  0  0  0  0
    4.2255   -4.2560    3.2041 C   0  0  1  0  0  0  0  0  0  0  0  0
    5.4030   -3.4325    3.8148 C   0  0  0  0  0  0  0  0  0  0  0  0
    0.4139   -7.7878    3.7274 C   0  0  0  0  0  0  0  0  0  0  0  0
   -0.2945   -9.0949    4.1631 C   0  0  0  0  0  0  0  0  0  0  0  0
   -0.6923   -6.7063    3.7873 C   0  0  0  0  0  0  0  0  0  0  0  0
    0.8515   -7.9961    2.2278 C   0  0  1  0  0  0  0  0  0  0  0  0
   -0.0127   -7.4485    1.2468 O   0  0  0  0  0  0  0  0  0  0  0  0
    1.5668   -1.4186    2.4903 O   0  0  0  0  0  0  0  0  0  0  0  0
    1.8214   -0.1226    2.7856 C   0  0  0  0  0  0  0  0  0  0  0  0
    1.2721    0.8508    2.2548 O   0  0  0  0  0  0  0  0  0  0  0  0
    3.8519    1.7622    3.6832 H   0  0  0  0  0  0  0  0  0  0  0  0
    4.0602    1.0003    5.2615 H   0  0  0  0  0  0  0  0  0  0  0  0
    2.5334    1.8028    4.8559 H   0  0  0  0  0  0  0  0  0  0  0  0
    3.7076   -1.6461    5.0398 H   0  0  0  0  0  0  0  0  0  0  0  0
    3.7980   -2.5690    1.9439 H   0  0  0  0  0  0  0  0  0  0  0  0
    1.4588   -4.2822    1.6442 H   0  0  0  0  0  0  0  0  0  0  0  0
    2.5400   -3.5819    0.4514 H   0  0  0  0  0  0  0  0  0  0  0  0
    3.2957   -5.8242    0.2909 H   0  0  0  0  0  0  0  0  0  0  0  0
    2.5542   -7.9320    0.8803 H   0  0  0  0  0  0  0  0  0  0  0  0
    2.6877   -9.4734    2.9206 H   0  0  0  0  0  0  0  0  0  0  0  0
    4.1110   -8.6919    2.5663 H   0  0  0  0  0  0  0  0  0  0  0  0
    3.4590   -8.9532    6.2861 H   0  0  0  0  0  0  0  0  0  0  0  0
    4.5255   -9.4849    4.9880 H   0  0  0  0  0  0  0  0  0  0  0  0
    2.8530   -9.9847    5.0411 H   0  0  0  0  0  0  0  0  0  0  0  0
    1.3775   -8.2133    5.5774 H   0  0  0  0  0  0  0  0  0  0  0  0
    0.5708   -5.9589    5.8966 H   0  0  0  0  0  0  0  0  0  0  0  0
    2.0956   -6.3170    6.5098 H   0  0  0  0  0  0  0  0  0  0  0  0
    1.5465   -4.9069    3.8794 H   0  0  0  0  0  0  0  0  0  0  0  0
    2.0395   -4.1863    5.3947 H   0  0  0  0  0  0  0  0  0  0  0  0
    4.0451   -4.7071    5.2701 H   0  0  0  0  0  0  0  0  0  0  0  0
    5.4752   -5.9343    6.2322 H   0  0  0  0  0  0  0  0  0  0  0  0
    5.4145   -7.6544    6.1788 H   0  0  0  0  0  0  0  0  0  0  0  0
    4.0662   -6.7548    6.8201 H   0  0  0  0  0  0  0  0  0  0  0  0
    6.3071   -6.3578    4.2226 H   0  0  0  0  0  0  0  0  0  0  0  0
    5.8274   -7.9158    3.7412 H   0  0  0  0  0  0  0  0  0  0  0  0
    6.5848   -6.0575    2.1859 H   0  0  0  0  0  0  0  0  0  0  0  0
    6.1780   -7.9969    1.4959 H   0  0  0  0  0  0  0  0  0  0  0  0
    5.6723   -4.9749   -0.0139 H   0  0  0  0  0  0  0  0  0  0  0  0
    4.8790   -3.5222    0.3334 H   0  0  0  0  0  0  0  0  0  0  0  0
    6.6331   -2.6113    1.6442 H   0  0  0  0  0  0  0  0  0  0  0  0
    7.3991   -4.1389    1.9457 H   0  0  0  0  0  0  0  0  0  0  0  0
    6.2213   -4.1011    4.0048 H   0  0  0  0  0  0  0  0  0  0  0  0
    5.0867   -2.9782    4.7893 H   0  0  0  0  0  0  0  0  0  0  0  0
    5.6565   -2.6239    3.1606 H   0  0  0  0  0  0  0  0  0  0  0  0
   -1.1130   -9.3570    3.4928 H   0  0  0  0  0  0  0  0  0  0  0  0
   -0.7206   -9.0095    5.1617 H   0  0  0  0  0  0  0  0  0  0  0  0
    0.3935   -9.9370    4.1772 H   0  0  0  0  0  0  0  0  0  0  0  0
   -1.5486   -6.9648    3.1597 H   0  0  0  0  0  0  0  0  0  0  0  0
   -0.3007   -5.7624    3.4333 H   0  0  0  0  0  0  0  0  0  0  0  0
   -1.1047   -6.5666    4.7830 H   0  0  0  0  0  0  0  0  0  0  0  0
    0.7674   -9.0592    2.0104 H   0  0  0  0  0  0  0  0  0  0  0  0
   -0.0822   -8.0953    0.5498 H   0  0  0  0  0  0  0  0  0  0  0  0
    1.5309   -2.8349    3.9553 H   0  0  0  0  0  0  0  0  0  0  0  0
  1 38  1  0
  1 39  1  0
  1 40  1  0
  1  2  1  0
  2  3  2  0
  2 36  1  0
  3 41  1  0
  3  4  1  0
  4 35  1  0
  4  5  1  0
  4 80  1  1
  5 28  1  0
  5  6  1  0
  5 42  1  6
  6  7  1  0
  6 43  1  0
  6 44  1  0
  7 22  1  0
  7  8  1  0
  7 45  1  6
  8  9  1  0
  9 33  1  0
  9 10  1  0
  9 46  1  6
 10 11  1  0
 10 47  1  0
 10 48  1  0
 11 17  1  0
 11 12  1  1
 11 13  1  0
 12 49  1  0
 12 50  1  0
 12 51  1  0
 13 14  1  0
 13 30  1  0
 13 52  1  1
 14 15  1  0
 14 53  1  0
 14 54  1  0
 15 16  1  0
 15 55  1  0
 15 56  1  0
 16 28  1  0
 16 17  1  0
 16 57  1  1
 17 18  1  1
 17 19  1  0
 18 58  1  0
 18 59  1  0
 18 60  1  0
 19 20  1  0
 19 61  1  0
 19 62  1  0
 20 21  1  0
 20 22  1  0
 20 63  1  1
 21 64  1  0
 22 23  1  6
 22 28  1  0
 23 24  1  0
 23 65  1  0
 23 66  1  0
 24 25  1  0
 24 67  1  0
 24 68  1  0
 25 26  2  0
 25 27  1  0
 28 29  1  1
 29 69  1  0
 29 70  1  0
 29 71  1  0
 30 31  1  0
 30 32  1  0
 30 33  1  0
 31 72  1  0
 31 73  1  0
 31 74  1  0
 32 75  1  0
 32 76  1  0
 32 77  1  0
 33 34  1  0
 33 78  1  6
 34 79  1  0
 35 36  1  0
 36 37  2  0
M  CHG  1  27  -1
M  END
>  <i_m_ct_stereo_status>  (158) 
1

>  <s_m_source_file>  (158) 
/var/tmp/pbs.5076255.sched01/tmpwzsktf0x/40k9schvjs.sdf

>  <i_m_source_file_index>  (158) 
32

>  <i_lp_mmshare_version>  (158) 
48012

>  <i_f3d_flags>  (158) 
0

>  <s_epik_input>  (158) 
W0NIM11jMVtjSF1jKG9jMVtPSF0pW0NAQEhdKFtDQEBdMjNbQ0gzXSlbQ0gyXVtDQEhdKE9bQ0hdKFtDSDJdNClbQ0BIXShbT0hdKUM1KFtDSDNdKVtDSDNdKVtDQF0zKFtDSDJdW0NIMl1DKD1PKVtPSF0pW0NASF0oW09IXSlbQ0gyXVtDQEBdNihbQ0gzXSlbQ0hdMltDSDJdW0NIMl1bQ0BASF01W0NAQF00NltDSDNd

>  <s_epik_cmdline>  (158) 
J2VwaWtfcHl0aG9uJywgJy1waHQnLCAnMi4wJywgJy1waCcsICc3LjAnLCAnLXRuJywgJzgnLCAnLW1hJywgJzIwMCcsICctaW1hZScsICc8aW5maWxlLm1hZT4nLCAnLW9tYWUnLCAnPG91dGZpbGUubWFlPic=

>  <r_lp_tautomer_probability>  (158) 
0.999841

>  <r_epik_Ionization_Penalty>  (158) 
0.00339074

>  <r_epik_Ionization_Penalty_Charging>  (158) 
0.00339008

>  <r_epik_Ionization_Penalty_Neutral>  (158) 
6.54164e-07

>  <r_epik_State_Penalty>  (158) 
0.00240011

>  <r_epik_Charging_Adjusted_Penalty>  (158) 
0.0057902

>  <i_epik_Tot_Q>  (158) 
-1

>  <i_epik_Tot_abs_Q>  (158) 
1

>  <s_epik_Chemistry_Notes>  (158) 
This compound has an ester and may undergo hydrolysis at high or low pH.

>  <s_lp_Force_Field>  (158) 
OPLS3e

>  <r_lp_Energy>  (158) 
129.296

>  <b_lp_Chiralities_Consistent>  (158) 
1

>  <s_lp_Variant>  (158) 
55:0-1

>  <s_i_glide_gridfile>  (158) 
pfpi4k_grid

>  <i_i_glide_lignum>  (158) 
32

>  <i_i_glide_rotatable_bonds>  (158) 
6

>  <r_i_docking_score>  (158) 
-2.56413

>  <r_i_glide_ligand_efficiency>  (158) 
-0.0693009

>  <r_i_glide_ligand_efficiency_sa>  (158) 
-0.230926

>  <r_i_glide_ligand_efficiency_ln>  (158) 
-0.5561

>  <r_i_glide_gscore>  (158) 
-2.56413

>  <r_i_glide_lipo>  (158) 
-0.200597

>  <r_i_glide_hbond>  (158) 
-0.272582

>  <r_i_glide_metal>  (158) 
-0

>  <r_i_glide_rewards>  (158) 
-0.273353

>  <r_i_glide_evdw>  (158) 
-22.7926

>  <r_i_glide_ecoul>  (158) 
-5.93407

>  <r_i_glide_erotb>  (158) 
0.231519

>  <r_i_glide_esite>  (158) 
-0.0193793

>  <r_i_glide_emodel>  (158) 
-28.5446

>  <r_i_glide_energy>  (158) 
-28.7267

>  <r_i_glide_einternal>  (158) 
9.10469

>  <r_i_glide_intrahb_reward>  (158) 
-0

>  <i_i_glide_confnum>  (158) 
1

>  <i_i_glide_posenum>  (158) 
6

>  <r_i_glide_eff_state_penalty>  (158) 
0

>  <ligand_id>  (158) 
55

>  <original_smiles>  (158) 
Cc1cc(C2CC3OC4CC5(C)C(CCC6C5(C)CC(O)C3(CCC(=O)O)C26C)C(C)(C)C4O)oc1O

>  <smiles>  (158) 
[H]OC1([H])C2([H])OC3([H])C([H])([H])C([H])(C4([H])OC(=O)C(C([H])([H])[H])=C4[H])C4(C([H])([H])[H])C5([H])C([H])([H])C([H])([H])C([H])(C1(C([H])([H])[H])C([H])([H])[H])C(C([H])([H])[H])(C2([H])[H])C5(C([H])([H])[H])C([H])([H])C([H])(O[H])C34C([H])([H])C([H])([H])C(=O)[O-]

$$$$
55:0:2
     RDKit          3D

 80 85  0  0  1  0  0  0  0  0999 V2000
    5.2833   -0.0229    4.6860 C   0  0  0  0  0  0  0  0  0  0  0  0
    4.3824   -1.0942    4.0887 C   0  0  0  0  0  0  0  0  0  0  0  0
    4.3038   -2.3884    4.3710 C   0  0  0  0  0  0  0  0  0  0  0  0
    3.2654   -3.0549    3.5019 C   0  0  2  0  0  0  0  0  0  0  0  0
    3.8311   -4.1783    2.5618 C   0  0  2  0  0  0  0  0  0  0  0  0
    2.8764   -4.7517    1.4807 C   0  0  0  0  0  0  0  0  0  0  0  0
    3.2861   -6.2269    1.3034 C   0  0  2  0  0  0  0  0  0  0  0  0
    2.3660   -6.8617    2.1774 O   0  0  0  0  0  0  0  0  0  0  0  0
    1.8701   -8.1693    1.9395 C   0  0  1  0  0  0  0  0  0  0  0  0
    2.5379   -9.2097    2.8350 C   0  0  0  0  0  0  0  0  0  0  0  0
    2.7809   -8.7213    4.2834 C   0  0  2  0  0  0  0  0  0  0  0  0
    2.9262  -10.0649    5.0645 C   0  0  0  0  0  0  0  0  0  0  0  0
    1.4553   -8.0181    4.8258 C   0  0  1  0  0  0  0  0  0  0  0  0
    1.7915   -6.7731    5.6608 C   0  0  0  0  0  0  0  0  0  0  0  0
    2.5809   -5.7574    4.8516 C   0  0  0  0  0  0  0  0  0  0  0  0
    3.9557   -6.2495    4.3406 C   0  0  1  0  0  0  0  0  0  0  0  0
    4.1456   -7.8315    4.4309 C   0  0  1  0  0  0  0  0  0  0  0  0
    4.8156   -8.1142    5.8270 C   0  0  0  0  0  0  0  0  0  0  0  0
    5.2798   -8.2861    3.4588 C   0  0  0  0  0  0  0  0  0  0  0  0
    5.3547   -7.6995    2.0346 C   0  0  1  0  0  0  0  0  0  0  0  0
    5.0233   -8.6125    1.0021 O   0  0  0  0  0  0  0  0  0  0  0  0
    4.7771   -6.2752    1.8066 C   0  0  1  0  0  0  0  0  0  0  0  0
    5.6717   -5.6248    0.6559 C   0  0  0  0  0  0  0  0  0  0  0  0
    7.2294   -5.3671    0.9381 C   0  0  0  0  0  0  0  0  0  0  0  0
    7.7781   -4.2028    0.1131 C   0  0  0  0  0  0  0  0  0  0  0  0
    7.0425   -3.2740   -0.3134 O   0  0  0  0  0  0  0  0  0  0  0  0
    9.0194   -4.2149   -0.0687 O   0  0  0  0  0  0  0  0  0  0  0  0
    4.6272   -5.4228    3.1424 C   0  0  1  0  0  0  0  0  0  0  0  0
    5.9887   -4.8985    3.6546 C   0  0  0  0  0  0  0  0  0  0  0  0
    0.1497   -7.9115    3.8834 C   0  0  0  0  0  0  0  0  0  0  0  0
   -0.8159   -9.0290    4.3337 C   0  0  0  0  0  0  0  0  0  0  0  0
   -0.6512   -6.6003    4.0606 C   0  0  0  0  0  0  0  0  0  0  0  0
    0.4020   -8.1639    2.3496 C   0  0  1  0  0  0  0  0  0  0  0  0
   -0.3486   -7.3781    1.4411 O   0  0  0  0  0  0  0  0  0  0  0  0
    2.7620   -1.9614    2.7451 O   0  0  0  0  0  0  0  0  0  0  0  0
    3.3752   -0.7907    3.0706 C   0  0  0  0  0  0  0  0  0  0  0  0
    3.0898    0.3164    2.6233 O   0  0  0  0  0  0  0  0  0  0  0  0
    5.8830    0.4359    3.9025 H   0  0  0  0  0  0  0  0  0  0  0  0
    5.9649   -0.4385    5.4345 H   0  0  0  0  0  0  0  0  0  0  0  0
    4.6841    0.7518    5.1583 H   0  0  0  0  0  0  0  0  0  0  0  0
    4.9008   -2.8825    5.1266 H   0  0  0  0  0  0  0  0  0  0  0  0
    4.5357   -3.6002    1.9569 H   0  0  0  0  0  0  0  0  0  0  0  0
    1.8240   -4.6425    1.7489 H   0  0  0  0  0  0  0  0  0  0  0  0
    2.9951   -4.2113    0.5440 H   0  0  0  0  0  0  0  0  0  0  0  0
    3.1530   -6.5600    0.2700 H   0  0  0  0  0  0  0  0  0  0  0  0
    1.9702   -8.4665    0.9163 H   0  0  0  0  0  0  0  0  0  0  0  0
    1.8667  -10.0750    2.8429 H   0  0  0  0  0  0  0  0  0  0  0  0
    3.4081   -9.6595    2.3937 H   0  0  0  0  0  0  0  0  0  0  0  0
    2.9970   -9.9244    6.1419 H   0  0  0  0  0  0  0  0  0  0  0  0
    3.7980  -10.6351    4.7442 H   0  0  0  0  0  0  0  0  0  0  0  0
    2.0641  -10.7151    4.9259 H   0  0  0  0  0  0  0  0  0  0  0  0
    1.1152   -8.6573    5.6340 H   0  0  0  0  0  0  0  0  0  0  0  0
    0.9150   -6.2968    6.0872 H   0  0  0  0  0  0  0  0  0  0  0  0
    2.3490   -7.0443    6.5572 H   0  0  0  0  0  0  0  0  0  0  0  0
    1.9591   -5.4310    4.0184 H   0  0  0  0  0  0  0  0  0  0  0  0
    2.7305   -4.9039    5.4995 H   0  0  0  0  0  0  0  0  0  0  0  0
    4.5386   -5.8965    5.1964 H   0  0  0  0  0  0  0  0  0  0  0  0
    5.6865   -7.4812    6.0014 H   0  0  0  0  0  0  0  0  0  0  0  0
    5.2007   -9.1290    5.9069 H   0  0  0  0  0  0  0  0  0  0  0  0
    4.1691   -7.9623    6.6817 H   0  0  0  0  0  0  0  0  0  0  0  0
    6.2363   -7.9965    3.9107 H   0  0  0  0  0  0  0  0  0  0  0  0
    5.3564   -9.3694    3.4270 H   0  0  0  0  0  0  0  0  0  0  0  0
    6.4283   -7.6324    1.8776 H   0  0  0  0  0  0  0  0  0  0  0  0
    4.2227   -9.0730    1.2473 H   0  0  0  0  0  0  0  0  0  0  0  0
    5.6162   -6.2716   -0.2018 H   0  0  0  0  0  0  0  0  0  0  0  0
    5.2025   -4.7270    0.2785 H   0  0  0  0  0  0  0  0  0  0  0  0
    7.5136   -5.0456    1.9098 H   0  0  0  0  0  0  0  0  0  0  0  0
    7.7978   -6.2857    0.7268 H   0  0  0  0  0  0  0  0  0  0  0  0
    6.7158   -5.7022    3.7396 H   0  0  0  0  0  0  0  0  0  0  0  0
    5.9281   -4.4393    4.6790 H   0  0  0  0  0  0  0  0  0  0  0  0
    6.2862   -4.1818    2.9303 H   0  0  0  0  0  0  0  0  0  0  0  0
   -1.7265   -9.0554    3.7339 H   0  0  0  0  0  0  0  0  0  0  0  0
   -1.1289   -8.9051    5.3688 H   0  0  0  0  0  0  0  0  0  0  0  0
   -0.3447  -10.0063    4.2575 H   0  0  0  0  0  0  0  0  0  0  0  0
   -1.5939   -6.6404    3.5132 H   0  0  0  0  0  0  0  0  0  0  0  0
   -0.1072   -5.7360    3.6933 H   0  0  0  0  0  0  0  0  0  0  0  0
   -0.9357   -6.4167    5.0937 H   0  0  0  0  0  0  0  0  0  0  0  0
    0.0397   -9.1640    2.1094 H   0  0  0  0  0  0  0  0  0  0  0  0
   -0.4373   -7.8939    0.6407 H   0  0  0  0  0  0  0  0  0  0  0  0
    2.4471   -3.4111    4.1364 H   0  0  0  0  0  0  0  0  0  0  0  0
  1 38  1  0
  1 39  1  0
  1 40  1  0
  1  2  1  0
  2  3  2  0
  2 36  1  0
  3 41  1  0
  3  4  1  0
  4 35  1  0
  4  5  1  0
  4 80  1  1
  5 28  1  0
  5  6  1  0
  5 42  1  6
  6  7  1  0
  6 43  1  0
  6 44  1  0
  7 22  1  0
  7  8  1  0
  7 45  1  6
  8  9  1  0
  9 33  1  0
  9 10  1  0
  9 46  1  6
 10 11  1  0
 10 47  1  0
 10 48  1  0
 11 17  1  0
 11 12  1  1
 11 13  1  0
 12 49  1  0
 12 50  1  0
 12 51  1  0
 13 14  1  0
 13 30  1  0
 13 52  1  1
 14 15  1  0
 14 53  1  0
 14 54  1  0
 15 16  1  0
 15 55  1  0
 15 56  1  0
 16 28  1  0
 16 17  1  0
 16 57  1  1
 17 18  1  1
 17 19  1  0
 18 58  1  0
 18 59  1  0
 18 60  1  0
 19 20  1  0
 19 61  1  0
 19 62  1  0
 20 21  1  0
 20 22  1  0
 20 63  1  6
 21 64  1  0
 22 23  1  6
 22 28  1  0
 23 24  1  0
 23 65  1  0
 23 66  1  0
 24 25  1  0
 24 67  1  0
 24 68  1  0
 25 26  2  0
 25 27  1  0
 28 29  1  1
 29 69  1  0
 29 70  1  0
 29 71  1  0
 30 31  1  0
 30 32  1  0
 30 33  1  0
 31 72  1  0
 31 73  1  0
 31 74  1  0
 32 75  1  0
 32 76  1  0
 32 77  1  0
 33 34  1  0
 33 78  1  6
 34 79  1  0
 35 36  1  0
 36 37  2  0
M  CHG  1  27  -1
M  END
>  <i_m_ct_stereo_status>  (159) 
1

>  <s_m_source_file>  (159) 
/var/tmp/pbs.5076255.sched01/tmpwzsktf0x/40k9schvjs.sdf

>  <i_m_source_file_index>  (159) 
32

>  <i_lp_mmshare_version>  (159) 
48012

>  <i_f3d_flags>  (159) 
0

>  <s_epik_input>  (159) 
W0NIM11jMVtjSF1jKG9jMVtPSF0pW0NAQEhdKFtDQEBdMjNbQ0gzXSlbQ0gyXVtDQEhdKE9bQ0hdKFtDSDJdNClbQ0BIXShbT0hdKUM1KFtDSDNdKVtDSDNdKVtDQF0zKFtDSDJdW0NIMl1DKD1PKVtPSF0pW0NASF0oW09IXSlbQ0gyXVtDQEBdNihbQ0gzXSlbQ0hdMltDSDJdW0NIMl1bQ0BASF01W0NAQF00NltDSDNd

>  <s_epik_cmdline>  (159) 
J2VwaWtfcHl0aG9uJywgJy1waHQnLCAnMi4wJywgJy1waCcsICc3LjAnLCAnLXRuJywgJzgnLCAnLW1hJywgJzIwMCcsICctaW1hZScsICc8aW5maWxlLm1hZT4nLCAnLW9tYWUnLCAnPG91dGZpbGUubWFlPic=

>  <r_lp_tautomer_probability>  (159) 
0.999841

>  <r_epik_Ionization_Penalty>  (159) 
0.00339074

>  <r_epik_Ionization_Penalty_Charging>  (159) 
0.00339008

>  <r_epik_Ionization_Penalty_Neutral>  (159) 
6.54164e-07

>  <r_epik_State_Penalty>  (159) 
0.00240011

>  <r_epik_Charging_Adjusted_Penalty>  (159) 
0.0057902

>  <i_epik_Tot_Q>  (159) 
-1

>  <i_epik_Tot_abs_Q>  (159) 
1

>  <s_epik_Chemistry_Notes>  (159) 
This compound has an ester and may undergo hydrolysis at high or low pH.

>  <s_lp_Force_Field>  (159) 
OPLS3e

>  <r_lp_Energy>  (159) 
129.296

>  <b_lp_Chiralities_Consistent>  (159) 
1

>  <s_lp_Variant>  (159) 
55:0-1

>  <s_i_glide_gridfile>  (159) 
pfpi4k_grid

>  <i_i_glide_lignum>  (159) 
32

>  <i_i_glide_rotatable_bonds>  (159) 
6

>  <r_i_docking_score>  (159) 
-2.48806

>  <r_i_glide_ligand_efficiency>  (159) 
-0.0672449

>  <r_i_glide_ligand_efficiency_sa>  (159) 
-0.224075

>  <r_i_glide_ligand_efficiency_ln>  (159) 
-0.539602

>  <r_i_glide_gscore>  (159) 
-2.48806

>  <r_i_glide_lipo>  (159) 
-0.433803

>  <r_i_glide_hbond>  (159) 
-0.126799

>  <r_i_glide_metal>  (159) 
-0

>  <r_i_glide_rewards>  (159) 
-0.193417

>  <r_i_glide_evdw>  (159) 
-24.3672

>  <r_i_glide_ecoul>  (159) 
-4.98134

>  <r_i_glide_erotb>  (159) 
0.231519

>  <r_i_glide_esite>  (159) 
0

>  <r_i_glide_emodel>  (159) 
-28.5319

>  <r_i_glide_energy>  (159) 
-29.3485

>  <r_i_glide_einternal>  (159) 
7.90613

>  <r_i_glide_intrahb_reward>  (159) 
-0

>  <i_i_glide_confnum>  (159) 
1

>  <i_i_glide_posenum>  (159) 
1

>  <r_i_glide_eff_state_penalty>  (159) 
0

>  <ligand_id>  (159) 
55

>  <original_smiles>  (159) 
Cc1cc(C2CC3OC4CC5(C)C(CCC6C5(C)CC(O)C3(CCC(=O)O)C26C)C(C)(C)C4O)oc1O

>  <smiles>  (159) 
[H]OC1([H])C2([H])OC3([H])C([H])([H])C([H])(C4([H])OC(=O)C(C([H])([H])[H])=C4[H])C4(C([H])([H])[H])C5([H])C([H])([H])C([H])([H])C([H])(C1(C([H])([H])[H])C([H])([H])[H])C(C([H])([H])[H])(C2([H])[H])C5(C([H])([H])[H])C([H])([H])C([H])(O[H])C34C([H])([H])C([H])([H])C(=O)[O-]

$$$$
57:0:0
     RDKit          3D

 58 64  0  0  1  0  0  0  0  0999 V2000
    5.2970   -4.1426    4.8834 C   0  0  0  0  0  0  0  0  0  0  0  0
    4.6885   -3.2161    4.1098 C   0  0  0  0  0  0  0  0  0  0  0  0
    5.3714   -2.7705    2.9733 O   0  0  0  0  0  0  0  0  0  0  0  0
    5.3626   -1.4452    2.4396 C   0  0  2  0  0  0  0  0  0  0  0  0
    4.8220   -0.5193    3.2785 O   0  0  0  0  0  0  0  0  0  0  0  0
    3.4414   -0.7128    3.4378 C   0  0  2  0  0  0  0  0  0  0  0  0
    3.0866   -0.4442    4.8800 C   0  0  0  0  0  0  0  0  0  0  0  0
    3.0745   -1.8487    5.4887 C   0  0  0  0  0  0  0  0  0  0  0  0
    3.2067   -2.8381    4.2993 C   0  0  1  0  0  0  0  0  0  0  0  0
    2.8412   -2.1055    3.0392 C   0  0  2  0  0  0  0  0  0  0  0  0
    2.5424   -3.0716    1.8076 C   0  0  0  0  0  0  0  0  0  0  0  0
    3.6163   -3.6441    0.8858 C   0  0  1  0  0  0  0  0  0  0  0  0
    4.2026   -4.7433    1.5573 O   0  0  0  0  0  0  0  0  0  0  0  0
    3.1751   -4.0518   -0.5322 C   0  0  1  0  0  0  0  0  0  0  0  0
    1.8271   -4.4497   -0.7278 O   0  0  0  0  0  0  0  0  0  0  0  0
    3.5624   -2.6503   -0.9899 C   0  0  2  0  0  0  0  0  0  0  0  0
    4.0275   -2.3614   -2.4283 C   0  0  0  0  0  0  0  0  0  0  0  0
    2.9967   -2.8595   -3.4601 C   0  0  0  0  0  0  0  0  0  0  0  0
    4.1895   -0.8409   -2.6392 C   0  0  0  0  0  0  0  0  0  0  0  0
    5.3686   -3.0658   -2.6912 C   0  0  0  0  0  0  0  0  0  0  0  0
    6.4208   -2.7485   -1.6269 C   0  0  0  0  0  0  0  0  0  0  0  0
    5.9611   -3.2141   -0.2450 C   0  0  1  0  0  0  0  0  0  0  0  0
    7.0195   -3.0326    0.6687 O   0  0  0  0  0  0  0  0  0  0  0  0
    4.5769   -2.6354    0.2085 C   0  0  2  0  0  0  0  0  0  0  0  0
    4.7527   -1.2826    0.9770 C   0  0  1  0  0  0  0  0  0  0  0  0
    3.4854   -0.2991    1.0029 C   0  0  0  0  0  0  0  0  0  0  0  0
    2.6458   -0.2452    2.3109 C   0  0  1  0  0  0  0  0  0  0  0  0
    1.6947   -1.2954    2.7099 O   0  0  0  0  0  0  0  0  0  0  0  0
    4.7951   -4.5792    5.7335 H   0  0  0  0  0  0  0  0  0  0  0  0
    6.3035   -4.4658    4.6738 H   0  0  0  0  0  0  0  0  0  0  0  0
    6.4140   -1.1700    2.4023 H   0  0  0  0  0  0  0  0  0  0  0  0
    3.7876    0.2333    5.3733 H   0  0  0  0  0  0  0  0  0  0  0  0
    2.0883   -0.0070    4.9670 H   0  0  0  0  0  0  0  0  0  0  0  0
    3.8881   -1.9719    6.2035 H   0  0  0  0  0  0  0  0  0  0  0  0
    2.1367   -2.0198    6.0198 H   0  0  0  0  0  0  0  0  0  0  0  0
    2.6057   -3.7338    4.4563 H   0  0  0  0  0  0  0  0  0  0  0  0
    1.9480   -3.9042    2.1876 H   0  0  0  0  0  0  0  0  0  0  0  0
    1.8174   -2.6232    1.1220 H   0  0  0  0  0  0  0  0  0  0  0  0
    4.7933   -5.1495    0.9557 H   0  0  0  0  0  0  0  0  0  0  0  0
    3.8354   -4.8039   -0.9595 H   0  0  0  0  0  0  0  0  0  0  0  0
    1.8191   -4.8358   -1.6007 H   0  0  0  0  0  0  0  0  0  0  0  0
    2.6665   -2.0745   -0.7943 H   0  0  0  0  0  0  0  0  0  0  0  0
    3.3089   -2.6365   -4.4791 H   0  0  0  0  0  0  0  0  0  0  0  0
    2.0150   -2.4145   -3.3018 H   0  0  0  0  0  0  0  0  0  0  0  0
    2.8696   -3.9367   -3.4046 H   0  0  0  0  0  0  0  0  0  0  0  0
    4.6021   -0.6180   -3.6224 H   0  0  0  0  0  0  0  0  0  0  0  0
    4.8426   -0.3874   -1.8961 H   0  0  0  0  0  0  0  0  0  0  0  0
    3.2314   -0.3264   -2.5725 H   0  0  0  0  0  0  0  0  0  0  0  0
    5.2169   -4.1457   -2.7232 H   0  0  0  0  0  0  0  0  0  0  0  0
    5.7460   -2.7964   -3.6679 H   0  0  0  0  0  0  0  0  0  0  0  0
    7.3504   -3.2510   -1.8974 H   0  0  0  0  0  0  0  0  0  0  0  0
    6.6370   -1.6846   -1.6099 H   0  0  0  0  0  0  0  0  0  0  0  0
    5.8848   -4.2981   -0.3378 H   0  0  0  0  0  0  0  0  0  0  0  0
    6.7851   -3.4762    1.4692 H   0  0  0  0  0  0  0  0  0  0  0  0
    5.5084   -0.7110    0.4382 H   0  0  0  0  0  0  0  0  0  0  0  0
    3.9451    0.6847    0.9382 H   0  0  0  0  0  0  0  0  0  0  0  0
    2.8550   -0.2992    0.1211 H   0  0  0  0  0  0  0  0  0  0  0  0
    2.2580    0.7481    2.5265 H   0  0  0  0  0  0  0  0  0  0  0  0
  1  2  2  0
  1 29  1  0
  1 30  1  0
  2  9  1  0
  2  3  1  0
  3  4  1  0
  4 25  1  0
  4  5  1  0
  4 31  1  6
  5  6  1  0
  6 10  1  0
  6 27  1  0
  6  7  1  1
  7  8  1  0
  7 32  1  0
  7 33  1  0
  8  9  1  0
  8 34  1  0
  8 35  1  0
  9 10  1  0
  9 36  1  1
 10 28  1  1
 10 11  1  0
 11 12  1  0
 11 37  1  0
 11 38  1  0
 24 12  1  1
 12 13  1  1
 12 14  1  0
 13 39  1  0
 14 15  1  0
 14 16  1  0
 14 40  1  6
 15 41  1  0
 16 24  1  0
 16 17  1  0
 16 42  1  1
 17 18  1  0
 17 19  1  0
 17 20  1  0
 18 43  1  0
 18 44  1  0
 18 45  1  0
 19 46  1  0
 19 47  1  0
 19 48  1  0
 20 21  1  0
 20 49  1  0
 20 50  1  0
 21 22  1  0
 21 51  1  0
 21 52  1  0
 22 23  1  0
 22 24  1  0
 22 53  1  6
 23 54  1  0
 24 25  1  0
 25 26  1  0
 25 55  1  6
 26 27  1  0
 26 56  1  0
 26 57  1  0
 27 28  1  0
 27 58  1  1
M  END
>  <i_m_ct_stereo_status>  (160) 
1

>  <s_m_source_file>  (160) 
/var/tmp/pbs.5076255.sched01/tmpwzsktf0x/40k9schvjs.sdf

>  <i_m_source_file_index>  (160) 
35

>  <i_lp_mmshare_version>  (160) 
48012

>  <i_f3d_flags>  (160) 
0

>  <s_epik_input>  (160) 
W0NAQF0xMjNbQ0BdNDVbQ0hdKFtDSDJdW0NIMl0yKUMoPVtDSDJdKU9bQ0BIXShPMSlbQ0BIXShbQ0gyXVtDQEhdM081KVtDQEBdNjdbQ0BdKFtDSDJdNCkoW09IXSlbQ0BASF0oW09IXSlbQ0BASF02QyhbQ0gzXSkoW0NIM10pW0NIMl1bQ0gyXVtDQEhdN1tPSF0=

>  <s_epik_cmdline>  (160) 
J2VwaWtfcHl0aG9uJywgJy1waHQnLCAnMi4wJywgJy1waCcsICc3LjAnLCAnLXRuJywgJzgnLCAnLW1hJywgJzIwMCcsICctaW1hZScsICc8aW5maWxlLm1hZT4nLCAnLW9tYWUnLCAnPG91dGZpbGUubWFlPic=

>  <r_lp_tautomer_probability>  (160) 
1

>  <r_epik_Ionization_Penalty>  (160) 
9.31782e-07

>  <r_epik_Ionization_Penalty_Charging>  (160) 
0

>  <r_epik_Ionization_Penalty_Neutral>  (160) 
9.31782e-07

>  <r_epik_State_Penalty>  (160) 
-0

>  <r_epik_Charging_Adjusted_Penalty>  (160) 
0

>  <i_epik_Tot_Q>  (160) 
0

>  <i_epik_Tot_abs_Q>  (160) 
0

>  <s_epik_Chemistry_Notes>  (160) 
This compound contains an acetal/aminal-like group ( X-CH(R)-Y where X, Y are N, S, or O) that may be acid/base labile, releasing an aldehyde.

>  <s_lp_Force_Field>  (160) 
OPLS3e

>  <r_lp_Energy>  (160) 
150.728

>  <b_lp_Chiralities_Consistent>  (160) 
1

>  <s_lp_Variant>  (160) 
57:0-1

>  <s_i_glide_gridfile>  (160) 
pfpi4k_grid

>  <i_i_glide_lignum>  (160) 
35

>  <i_i_glide_rotatable_bonds>  (160) 
3

>  <r_i_docking_score>  (160) 
-4.02832

>  <r_i_glide_ligand_efficiency>  (160) 
-0.143869

>  <r_i_glide_ligand_efficiency_sa>  (160) 
-0.43687

>  <r_i_glide_ligand_efficiency_ln>  (160) 
-0.929856

>  <r_i_glide_gscore>  (160) 
-4.02832

>  <r_i_glide_lipo>  (160) 
-0.627867

>  <r_i_glide_hbond>  (160) 
0

>  <r_i_glide_metal>  (160) 
-0

>  <r_i_glide_rewards>  (160) 
-1.39194

>  <r_i_glide_evdw>  (160) 
-28.7114

>  <r_i_glide_ecoul>  (160) 
-3.81966

>  <r_i_glide_erotb>  (160) 
0

>  <r_i_glide_esite>  (160) 
0

>  <r_i_glide_emodel>  (160) 
-44.7269

>  <r_i_glide_energy>  (160) 
-32.531

>  <r_i_glide_einternal>  (160) 
1.55635

>  <r_i_glide_intrahb_reward>  (160) 
-0.5

>  <i_i_glide_confnum>  (160) 
2

>  <i_i_glide_posenum>  (160) 
27

>  <r_i_glide_eff_state_penalty>  (160) 
0

>  <ligand_id>  (160) 
57

>  <original_smiles>  (160) 
C=C1OC2OC34CCC1C31CC3(O)C(O)C5C(C)(C)CCC(O)C53C2CC4O1

>  <smiles>  (160) 
[H]OC1([H])C2([H])C(C([H])([H])[H])(C([H])([H])[H])C([H])([H])C([H])([H])C([H])(O[H])C23C2([H])C4([H])OC(=C([H])[H])C5([H])C([H])([H])C([H])([H])C6(O4)C([H])(OC56C([H])([H])C13O[H])C2([H])[H]

$$$$
57:0:1
     RDKit          3D

 58 64  0  0  1  0  0  0  0  0999 V2000
    5.2828   -4.6171    4.9242 C   0  0  0  0  0  0  0  0  0  0  0  0
    4.6685   -3.6527    4.2206 C   0  0  0  0  0  0  0  0  0  0  0  0
    5.3503   -3.1113    3.1212 O   0  0  0  0  0  0  0  0  0  0  0  0
    5.3161   -1.7534    2.6937 C   0  0  2  0  0  0  0  0  0  0  0  0
    4.7581   -0.9044    3.5984 O   0  0  0  0  0  0  0  0  0  0  0  0
    3.3792   -1.1345    3.7151 C   0  0  2  0  0  0  0  0  0  0  0  0
    3.0063   -0.9703    5.1753 C   0  0  0  0  0  0  0  0  0  0  0  0
    3.0124   -2.4160    5.6838 C   0  0  0  0  0  0  0  0  0  0  0  0
    3.1741   -3.3151    4.4258 C   0  0  1  0  0  0  0  0  0  0  0  0
    2.7902   -2.4983    3.2238 C   0  0  2  0  0  0  0  0  0  0  0  0
    2.5321   -3.3697    1.9159 C   0  0  0  0  0  0  0  0  0  0  0  0
    3.6272   -3.8614    0.9680 C   0  0  1  0  0  0  0  0  0  0  0  0
    4.2082   -5.0081    1.5532 O   0  0  0  0  0  0  0  0  0  0  0  0
    3.1892   -4.1576   -0.4811 C   0  0  1  0  0  0  0  0  0  0  0  0
    1.8513   -4.5566   -0.7145 O   0  0  0  0  0  0  0  0  0  0  0  0
    3.5703   -2.7195   -0.8302 C   0  0  2  0  0  0  0  0  0  0  0  0
    4.0547   -2.3238   -2.2474 C   0  0  0  0  0  0  0  0  0  0  0  0
    3.0425   -2.7689   -3.3215 C   0  0  0  0  0  0  0  0  0  0  0  0
    4.2075   -0.7909   -2.3454 C   0  0  0  0  0  0  0  0  0  0  0  0
    5.4103   -2.9861   -2.5540 C   0  0  0  0  0  0  0  0  0  0  0  0
    6.4468   -2.7283   -1.4543 C   0  0  0  0  0  0  0  0  0  0  0  0
    5.9819   -3.3065   -0.1112 C   0  0  1  0  0  0  0  0  0  0  0  0
    7.0404   -3.1951    0.8143 O   0  0  0  0  0  0  0  0  0  0  0  0
    4.5785   -2.7827    0.3739 C   0  0  2  0  0  0  0  0  0  0  0  0
    4.7182   -1.4868    1.2449 C   0  0  1  0  0  0  0  0  0  0  0  0
    3.4420   -0.5170    1.3289 C   0  0  0  0  0  0  0  0  0  0  0  0
    2.5824   -0.5678    2.6334 C   0  0  1  0  0  0  0  0  0  0  0  0
    1.6342   -1.6633    2.9409 O   0  0  0  0  0  0  0  0  0  0  0  0
    4.7824   -5.1325    5.7319 H   0  0  0  0  0  0  0  0  0  0  0  0
    6.2989   -4.9015    4.7013 H   0  0  0  0  0  0  0  0  0  0  0  0
    6.3559   -1.4503    2.6998 H   0  0  0  0  0  0  0  0  0  0  0  0
    3.6898   -0.3259    5.7269 H   0  0  0  0  0  0  0  0  0  0  0  0
    2.0018   -0.5573    5.2872 H   0  0  0  0  0  0  0  0  0  0  0  0
    3.8214   -2.5819    6.3973 H   0  0  0  0  0  0  0  0  0  0  0  0
    2.0751   -2.6454    6.1915 H   0  0  0  0  0  0  0  0  0  0  0  0
    2.5838   -4.2328    4.5136 H   0  0  0  0  0  0  0  0  0  0  0  0
    1.9477   -4.2364    2.2240 H   0  0  0  0  0  0  0  0  0  0  0  0
    1.8188   -2.8762    1.2558 H   0  0  0  0  0  0  0  0  0  0  0  0
    4.8633   -5.3252    0.9532 H   0  0  0  0  0  0  0  0  0  0  0  0
    3.8465   -4.8770   -0.9664 H   0  0  0  0  0  0  0  0  0  0  0  0
    1.8561   -4.9517   -1.5752 H   0  0  0  0  0  0  0  0  0  0  0  0
    2.6669   -2.1584   -0.6108 H   0  0  0  0  0  0  0  0  0  0  0  0
    3.3601   -2.4548   -4.3160 H   0  0  0  0  0  0  0  0  0  0  0  0
    2.0556   -2.3431   -3.1405 H   0  0  0  0  0  0  0  0  0  0  0  0
    2.9357   -3.8537   -3.3410 H   0  0  0  0  0  0  0  0  0  0  0  0
    4.6342   -0.4877   -3.2994 H   0  0  0  0  0  0  0  0  0  0  0  0
    4.8313   -0.3788   -1.5504 H   0  0  0  0  0  0  0  0  0  0  0  0
    3.2370   -0.3014   -2.2873 H   0  0  0  0  0  0  0  0  0  0  0  0
    5.2757   -4.0630   -2.6579 H   0  0  0  0  0  0  0  0  0  0  0  0
    5.7960   -2.6543   -3.5166 H   0  0  0  0  0  0  0  0  0  0  0  0
    7.3867   -3.1997   -1.7453 H   0  0  0  0  0  0  0  0  0  0  0  0
    6.6500   -1.6651   -1.3497 H   0  0  0  0  0  0  0  0  0  0  0  0
    5.9190   -4.3807   -0.2831 H   0  0  0  0  0  0  0  0  0  0  0  0
    7.1352   -2.2898    1.0672 H   0  0  0  0  0  0  0  0  0  0  0  0
    5.4706   -0.8702    0.7559 H   0  0  0  0  0  0  0  0  0  0  0  0
    3.8912    0.4771    1.3447 H   0  0  0  0  0  0  0  0  0  0  0  0
    2.8184   -0.4590    0.4417 H   0  0  0  0  0  0  0  0  0  0  0  0
    2.1769    0.4021    2.9133 H   0  0  0  0  0  0  0  0  0  0  0  0
  1  2  2  0
  1 29  1  0
  1 30  1  0
  2  9  1  0
  2  3  1  0
  3  4  1  0
  4 25  1  0
  4  5  1  0
  4 31  1  6
  5  6  1  0
  6 10  1  0
  6 27  1  0
  6  7  1  1
  7  8  1  0
  7 32  1  0
  7 33  1  0
  8  9  1  0
  8 34  1  0
  8 35  1  0
  9 10  1  0
  9 36  1  1
 10 28  1  1
 10 11  1  0
 11 12  1  0
 11 37  1  0
 11 38  1  0
 24 12  1  1
 12 13  1  1
 12 14  1  0
 13 39  1  0
 14 15  1  0
 14 16  1  0
 14 40  1  6
 15 41  1  0
 16 24  1  0
 16 17  1  0
 16 42  1  1
 17 18  1  0
 17 19  1  0
 17 20  1  0
 18 43  1  0
 18 44  1  0
 18 45  1  0
 19 46  1  0
 19 47  1  0
 19 48  1  0
 20 21  1  0
 20 49  1  0
 20 50  1  0
 21 22  1  0
 21 51  1  0
 21 52  1  0
 22 23  1  0
 22 24  1  0
 22 53  1  6
 23 54  1  0
 24 25  1  0
 25 26  1  0
 25 55  1  6
 26 27  1  0
 26 56  1  0
 26 57  1  0
 27 28  1  0
 27 58  1  1
M  END
>  <i_m_ct_stereo_status>  (161) 
1

>  <s_m_source_file>  (161) 
/var/tmp/pbs.5076255.sched01/tmpwzsktf0x/40k9schvjs.sdf

>  <i_m_source_file_index>  (161) 
35

>  <i_lp_mmshare_version>  (161) 
48012

>  <i_f3d_flags>  (161) 
0

>  <s_epik_input>  (161) 
W0NAQF0xMjNbQ0BdNDVbQ0hdKFtDSDJdW0NIMl0yKUMoPVtDSDJdKU9bQ0BIXShPMSlbQ0BIXShbQ0gyXVtDQEhdM081KVtDQEBdNjdbQ0BdKFtDSDJdNCkoW09IXSlbQ0BASF0oW09IXSlbQ0BASF02QyhbQ0gzXSkoW0NIM10pW0NIMl1bQ0gyXVtDQEhdN1tPSF0=

>  <s_epik_cmdline>  (161) 
J2VwaWtfcHl0aG9uJywgJy1waHQnLCAnMi4wJywgJy1waCcsICc3LjAnLCAnLXRuJywgJzgnLCAnLW1hJywgJzIwMCcsICctaW1hZScsICc8aW5maWxlLm1hZT4nLCAnLW9tYWUnLCAnPG91dGZpbGUubWFlPic=

>  <r_lp_tautomer_probability>  (161) 
1

>  <r_epik_Ionization_Penalty>  (161) 
9.31782e-07

>  <r_epik_Ionization_Penalty_Charging>  (161) 
0

>  <r_epik_Ionization_Penalty_Neutral>  (161) 
9.31782e-07

>  <r_epik_State_Penalty>  (161) 
-0

>  <r_epik_Charging_Adjusted_Penalty>  (161) 
0

>  <i_epik_Tot_Q>  (161) 
0

>  <i_epik_Tot_abs_Q>  (161) 
0

>  <s_epik_Chemistry_Notes>  (161) 
This compound contains an acetal/aminal-like group ( X-CH(R)-Y where X, Y are N, S, or O) that may be acid/base labile, releasing an aldehyde.

>  <s_lp_Force_Field>  (161) 
OPLS3e

>  <r_lp_Energy>  (161) 
150.728

>  <b_lp_Chiralities_Consistent>  (161) 
1

>  <s_lp_Variant>  (161) 
57:0-1

>  <s_i_glide_gridfile>  (161) 
pfpi4k_grid

>  <i_i_glide_lignum>  (161) 
35

>  <i_i_glide_rotatable_bonds>  (161) 
3

>  <r_i_docking_score>  (161) 
-3.25201

>  <r_i_glide_ligand_efficiency>  (161) 
-0.116143

>  <r_i_glide_ligand_efficiency_sa>  (161) 
-0.352679

>  <r_i_glide_ligand_efficiency_ln>  (161) 
-0.750659

>  <r_i_glide_gscore>  (161) 
-3.25201

>  <r_i_glide_lipo>  (161) 
-0.482905

>  <r_i_glide_hbond>  (161) 
0

>  <r_i_glide_metal>  (161) 
-0

>  <r_i_glide_rewards>  (161) 
-0.857293

>  <r_i_glide_evdw>  (161) 
-27.0148

>  <r_i_glide_ecoul>  (161) 
-3.74046

>  <r_i_glide_erotb>  (161) 
0

>  <r_i_glide_esite>  (161) 
0

>  <r_i_glide_emodel>  (161) 
-36.4816

>  <r_i_glide_energy>  (161) 
-30.7553

>  <r_i_glide_einternal>  (161) 
1.3217

>  <r_i_glide_intrahb_reward>  (161) 
-0

>  <i_i_glide_confnum>  (161) 
1

>  <i_i_glide_posenum>  (161) 
1

>  <r_i_glide_eff_state_penalty>  (161) 
0

>  <ligand_id>  (161) 
57

>  <original_smiles>  (161) 
C=C1OC2OC34CCC1C31CC3(O)C(O)C5C(C)(C)CCC(O)C53C2CC4O1

>  <smiles>  (161) 
[H]OC1([H])C2([H])C(C([H])([H])[H])(C([H])([H])[H])C([H])([H])C([H])([H])C([H])(O[H])C23C2([H])C4([H])OC(=C([H])[H])C5([H])C([H])([H])C([H])([H])C6(O4)C([H])(OC56C([H])([H])C13O[H])C2([H])[H]

$$$$
57:0:2
     RDKit          3D

 58 64  0  0  1  0  0  0  0  0999 V2000
    5.0218   -4.6046    4.9344 C   0  0  0  0  0  0  0  0  0  0  0  0
    4.5003   -3.6006    4.2097 C   0  0  0  0  0  0  0  0  0  0  0  0
    5.2601   -3.1222    3.1368 O   0  0  0  0  0  0  0  0  0  0  0  0
    5.3701   -1.7699    2.6826 C   0  0  2  0  0  0  0  0  0  0  0  0
    4.8480   -0.8651    3.5526 O   0  0  0  0  0  0  0  0  0  0  0  0
    3.4554   -0.9675    3.6433 C   0  0  2  0  0  0  0  0  0  0  0  0
    3.0472   -0.7834    5.0983 C   0  0  0  0  0  0  0  0  0  0  0  0
    2.9113   -2.2257    5.5889 C   0  0  0  0  0  0  0  0  0  0  0  0
    3.0388   -3.1303    4.3363 C   0  0  1  0  0  0  0  0  0  0  0  0
    2.8059   -2.2929    3.1248 C   0  0  2  0  0  0  0  0  0  0  0  0
    2.4934   -3.1530    1.8160 C   0  0  0  0  0  0  0  0  0  0  0  0
    3.5788   -3.7379    0.9079 C   0  0  1  0  0  0  0  0  0  0  0  0
    4.0312   -4.9250    1.5278 O   0  0  0  0  0  0  0  0  0  0  0  0
    3.1903   -4.0111   -0.5445 C   0  0  1  0  0  0  0  0  0  0  0  0
    1.8412   -4.2802   -0.8178 O   0  0  0  0  0  0  0  0  0  0  0  0
    3.6972   -2.6287   -0.8930 C   0  0  2  0  0  0  0  0  0  0  0  0
    4.2508   -2.2941   -2.2898 C   0  0  0  0  0  0  0  0  0  0  0  0
    3.2358   -2.6601   -3.3901 C   0  0  0  0  0  0  0  0  0  0  0  0
    4.5109   -0.7880   -2.3750 C   0  0  0  0  0  0  0  0  0  0  0  0
    5.5563   -3.0594   -2.5467 C   0  0  0  0  0  0  0  0  0  0  0  0
    6.5673   -2.8857   -1.4114 C   0  0  0  0  0  0  0  0  0  0  0  0
    6.0054   -3.4011   -0.0842 C   0  0  1  0  0  0  0  0  0  0  0  0
    7.0490   -3.3228    0.8580 O   0  0  0  0  0  0  0  0  0  0  0  0
    4.6409   -2.7581    0.3479 C   0  0  2  0  0  0  0  0  0  0  0  0
    4.8552   -1.4756    1.2081 C   0  0  1  0  0  0  0  0  0  0  0  0
    3.6512   -0.4190    1.2432 C   0  0  0  0  0  0  0  0  0  0  0  0
    2.7539   -0.3865    2.5154 C   0  0  1  0  0  0  0  0  0  0  0  0
    1.7209   -1.4032    2.7960 O   0  0  0  0  0  0  0  0  0  0  0  0
    4.4565   -5.0748    5.7308 H   0  0  0  0  0  0  0  0  0  0  0  0
    6.0319   -4.9715    4.7461 H   0  0  0  0  0  0  0  0  0  0  0  0
    6.4388   -1.5639    2.6965 H   0  0  0  0  0  0  0  0  0  0  0  0
    3.7662   -0.1889    5.6550 H   0  0  0  0  0  0  0  0  0  0  0  0
    2.0812   -0.2867    5.1527 H   0  0  0  0  0  0  0  0  0  0  0  0
    3.6820   -2.4435    6.3358 H   0  0  0  0  0  0  0  0  0  0  0  0
    1.9410   -2.3596    6.0661 H   0  0  0  0  0  0  0  0  0  0  0  0
    2.3817   -3.9982    4.4111 H   0  0  0  0  0  0  0  0  0  0  0  0
    1.8417   -3.9794    2.1168 H   0  0  0  0  0  0  0  0  0  0  0  0
    1.8204   -2.6297    1.1377 H   0  0  0  0  0  0  0  0  0  0  0  0
    4.6489   -5.3184    0.9403 H   0  0  0  0  0  0  0  0  0  0  0  0
    3.8144   -4.7826   -0.9941 H   0  0  0  0  0  0  0  0  0  0  0  0
    1.8361   -4.6937   -1.6697 H   0  0  0  0  0  0  0  0  0  0  0  0
    2.8342   -2.0104   -0.6992 H   0  0  0  0  0  0  0  0  0  0  0  0
    3.6102   -2.3836   -4.3745 H   0  0  0  0  0  0  0  0  0  0  0  0
    2.2783   -2.1533   -3.2496 H   0  0  0  0  0  0  0  0  0  0  0  0
    3.0399   -3.7302   -3.4112 H   0  0  0  0  0  0  0  0  0  0  0  0
    4.9875   -0.5334   -3.3134 H   0  0  0  0  0  0  0  0  0  0  0  0
    5.1428   -0.4167   -1.5720 H   0  0  0  0  0  0  0  0  0  0  0  0
    3.5750   -0.2398   -2.3301 H   0  0  0  0  0  0  0  0  0  0  0  0
    5.3354   -4.1186   -2.6563 H   0  0  0  0  0  0  0  0  0  0  0  0
    5.9942   -2.7464   -3.4925 H   0  0  0  0  0  0  0  0  0  0  0  0
    7.4728   -3.4304   -1.6755 H   0  0  0  0  0  0  0  0  0  0  0  0
    6.8651   -1.8494   -1.3032 H   0  0  0  0  0  0  0  0  0  0  0  0
    5.8631   -4.4678   -0.2379 H   0  0  0  0  0  0  0  0  0  0  0  0
    7.7154   -3.9435    0.6142 H   0  0  0  0  0  0  0  0  0  0  0  0
    5.6777   -0.9184    0.7516 H   0  0  0  0  0  0  0  0  0  0  0  0
    4.1745    0.5363    1.2666 H   0  0  0  0  0  0  0  0  0  0  0  0
    3.0669   -0.3091    0.3329 H   0  0  0  0  0  0  0  0  0  0  0  0
    2.4212    0.5940    2.7783 H   0  0  0  0  0  0  0  0  0  0  0  0
  1  2  2  0
  1 29  1  0
  1 30  1  0
  2  9  1  0
  2  3  1  0
  3  4  1  0
  4 25  1  0
  4  5  1  0
  4 31  1  6
  5  6  1  0
  6 10  1  0
  6 27  1  0
  6  7  1  1
  7  8  1  0
  7 32  1  0
  7 33  1  0
  8  9  1  0
  8 34  1  0
  8 35  1  0
  9 10  1  0
  9 36  1  1
 10 28  1  1
 10 11  1  0
 11 12  1  0
 11 37  1  0
 11 38  1  0
 24 12  1  1
 12 13  1  1
 12 14  1  0
 13 39  1  0
 14 15  1  0
 14 16  1  0
 14 40  1  6
 15 41  1  0
 16 24  1  0
 16 17  1  0
 16 42  1  1
 17 18  1  0
 17 19  1  0
 17 20  1  0
 18 43  1  0
 18 44  1  0
 18 45  1  0
 19 46  1  0
 19 47  1  0
 19 48  1  0
 20 21  1  0
 20 49  1  0
 20 50  1  0
 21 22  1  0
 21 51  1  0
 21 52  1  0
 22 23  1  0
 22 24  1  0
 22 53  1  6
 23 54  1  0
 24 25  1  0
 25 26  1  0
 25 55  1  6
 26 27  1  0
 26 56  1  0
 26 57  1  0
 27 28  1  0
 27 58  1  1
M  END
>  <i_m_ct_stereo_status>  (162) 
1

>  <s_m_source_file>  (162) 
/var/tmp/pbs.5076255.sched01/tmpwzsktf0x/40k9schvjs.sdf

>  <i_m_source_file_index>  (162) 
35

>  <i_lp_mmshare_version>  (162) 
48012

>  <i_f3d_flags>  (162) 
0

>  <s_epik_input>  (162) 
W0NAQF0xMjNbQ0BdNDVbQ0hdKFtDSDJdW0NIMl0yKUMoPVtDSDJdKU9bQ0BIXShPMSlbQ0BIXShbQ0gyXVtDQEhdM081KVtDQEBdNjdbQ0BdKFtDSDJdNCkoW09IXSlbQ0BASF0oW09IXSlbQ0BASF02QyhbQ0gzXSkoW0NIM10pW0NIMl1bQ0gyXVtDQEhdN1tPSF0=

>  <s_epik_cmdline>  (162) 
J2VwaWtfcHl0aG9uJywgJy1waHQnLCAnMi4wJywgJy1waCcsICc3LjAnLCAnLXRuJywgJzgnLCAnLW1hJywgJzIwMCcsICctaW1hZScsICc8aW5maWxlLm1hZT4nLCAnLW9tYWUnLCAnPG91dGZpbGUubWFlPic=

>  <r_lp_tautomer_probability>  (162) 
1

>  <r_epik_Ionization_Penalty>  (162) 
9.31782e-07

>  <r_epik_Ionization_Penalty_Charging>  (162) 
0

>  <r_epik_Ionization_Penalty_Neutral>  (162) 
9.31782e-07

>  <r_epik_State_Penalty>  (162) 
-0

>  <r_epik_Charging_Adjusted_Penalty>  (162) 
0

>  <i_epik_Tot_Q>  (162) 
0

>  <i_epik_Tot_abs_Q>  (162) 
0

>  <s_epik_Chemistry_Notes>  (162) 
This compound contains an acetal/aminal-like group ( X-CH(R)-Y where X, Y are N, S, or O) that may be acid/base labile, releasing an aldehyde.

>  <s_lp_Force_Field>  (162) 
OPLS3e

>  <r_lp_Energy>  (162) 
150.728

>  <b_lp_Chiralities_Consistent>  (162) 
1

>  <s_lp_Variant>  (162) 
57:0-1

>  <s_i_glide_gridfile>  (162) 
pfpi4k_grid

>  <i_i_glide_lignum>  (162) 
35

>  <i_i_glide_rotatable_bonds>  (162) 
3

>  <r_i_docking_score>  (162) 
-3.22034

>  <r_i_glide_ligand_efficiency>  (162) 
-0.115012

>  <r_i_glide_ligand_efficiency_sa>  (162) 
-0.349244

>  <r_i_glide_ligand_efficiency_ln>  (162) 
-0.743348

>  <r_i_glide_gscore>  (162) 
-3.22034

>  <r_i_glide_lipo>  (162) 
-0.556283

>  <r_i_glide_hbond>  (162) 
0

>  <r_i_glide_metal>  (162) 
-0

>  <r_i_glide_rewards>  (162) 
-0.854869

>  <r_i_glide_evdw>  (162) 
-27.3695

>  <r_i_glide_ecoul>  (162) 
-2.93808

>  <r_i_glide_erotb>  (162) 
0

>  <r_i_glide_esite>  (162) 
0

>  <r_i_glide_emodel>  (162) 
-35.6008

>  <r_i_glide_energy>  (162) 
-30.3076

>  <r_i_glide_einternal>  (162) 
1.65148

>  <r_i_glide_intrahb_reward>  (162) 
-0

>  <i_i_glide_confnum>  (162) 
2

>  <i_i_glide_posenum>  (162) 
20

>  <r_i_glide_eff_state_penalty>  (162) 
0

>  <ligand_id>  (162) 
57

>  <original_smiles>  (162) 
C=C1OC2OC34CCC1C31CC3(O)C(O)C5C(C)(C)CCC(O)C53C2CC4O1

>  <smiles>  (162) 
[H]OC1([H])C2([H])C(C([H])([H])[H])(C([H])([H])[H])C([H])([H])C([H])([H])C([H])(O[H])C23C2([H])C4([H])OC(=C([H])[H])C5([H])C([H])([H])C([H])([H])C6(O4)C([H])(OC56C([H])([H])C13O[H])C2([H])[H]

$$$$
58:0:0
     RDKit          3D

 66 72  0  0  1  0  0  0  0  0999 V2000
    3.4420   -9.3715    1.0789 C   0  0  0  0  0  0  0  0  0  0  0  0
    3.8038   -8.5873    2.1117 C   0  0  0  0  0  0  0  0  0  0  0  0
    5.1661   -7.9469    2.0977 C   0  0  0  0  0  0  0  0  0  0  0  0
    6.2331   -8.4900    3.0270 C   0  0  0  0  0  0  0  0  0  0  0  0
    6.3444   -8.7420    1.5472 C   0  0  0  0  0  0  0  0  0  0  0  0
    5.1642   -6.4446    1.7974 C   0  0  1  0  0  0  0  0  0  0  0  0
    4.5846   -6.1287    0.4046 C   0  0  0  0  0  0  0  0  0  0  0  0
    4.5750   -5.6821    2.9854 C   0  0  2  0  0  0  0  0  0  0  0  0
    3.0618   -5.7338    3.4001 C   0  0  2  0  0  0  0  0  0  0  0  0
    2.1739   -6.9192    2.9668 C   0  0  0  0  0  0  0  0  0  0  0  0
    2.8098   -8.2914    3.2713 C   0  0  1  0  0  0  0  0  0  0  0  0
    1.9679   -9.5639    3.5266 C   0  0  0  0  0  0  0  0  0  0  0  0
    0.6586   -9.8401    3.6542 C   0  0  0  0  0  0  0  0  0  0  0  0
   -0.3553   -8.8351    3.8196 C   0  0  0  0  0  0  0  0  0  0  0  0
   -1.4896   -8.7262    2.8202 C   0  0  0  0  0  0  0  0  0  0  0  0
   -0.2505   -8.0222    4.8878 C   0  0  0  0  0  0  0  0  0  0  0  0
    0.7869   -8.0440    5.9880 C   0  0  2  0  0  0  0  0  0  0  0  0
    1.7098   -6.9458    5.9329 O   0  0  0  0  0  0  0  0  0  0  0  0
    2.3192   -8.2377    5.9353 C   0  0  2  0  0  0  0  0  0  0  0  0
    3.2214   -8.6716    4.7378 C   0  0  1  0  0  0  0  0  0  0  0  0
    3.1027  -10.1736    4.3322 C   0  0  1  0  0  0  0  0  0  0  0  0
    2.7176  -11.1001    5.3190 O   0  0  0  0  0  0  0  0  0  0  0  0
    2.9801   -4.4108    2.6371 C   0  0  1  0  0  0  0  0  0  0  0  0
    2.3368   -3.0602    2.7689 C   0  0  0  0  0  0  0  0  0  0  0  0
    3.4795   -2.3132    2.0716 C   0  0  0  0  0  0  0  0  0  0  0  0
    4.6321   -3.0053    2.1556 C   0  0  0  0  0  0  0  0  0  0  0  0
    6.0251   -2.6361    1.7184 C   0  0  0  0  0  0  0  0  0  0  0  0
    6.0968   -2.2869    0.3415 O   0  0  0  0  0  0  0  0  0  0  0  0
    7.1060   -2.6998   -0.4758 C   0  0  0  0  0  0  0  0  0  0  0  0
    8.0738   -3.7416    0.0876 C   0  0  0  0  0  0  0  0  0  0  0  0
    7.2470   -2.2784   -1.6189 O   0  0  0  0  0  0  0  0  0  0  0  0
    4.4092   -4.1637    3.0883 C   0  0  2  0  0  0  0  0  0  0  0  0
    2.4680   -9.8384    1.0182 H   0  0  0  0  0  0  0  0  0  0  0  0
    4.1128   -9.5474    0.2593 H   0  0  0  0  0  0  0  0  0  0  0  0
    6.9249   -7.7743    3.4672 H   0  0  0  0  0  0  0  0  0  0  0  0
    5.9883   -9.3407    3.6580 H   0  0  0  0  0  0  0  0  0  0  0  0
    6.1863   -9.7642    1.2051 H   0  0  0  0  0  0  0  0  0  0  0  0
    7.1201   -8.1959    1.0130 H   0  0  0  0  0  0  0  0  0  0  0  0
    6.2152   -6.1525    1.7286 H   0  0  0  0  0  0  0  0  0  0  0  0
    3.5513   -6.4583    0.2979 H   0  0  0  0  0  0  0  0  0  0  0  0
    5.1574   -6.6366   -0.3657 H   0  0  0  0  0  0  0  0  0  0  0  0
    4.6292   -5.0638    0.1830 H   0  0  0  0  0  0  0  0  0  0  0  0
    5.1441   -5.9637    3.8723 H   0  0  0  0  0  0  0  0  0  0  0  0
    2.9920   -5.5445    4.4748 H   0  0  0  0  0  0  0  0  0  0  0  0
    1.1985   -6.7743    3.4073 H   0  0  0  0  0  0  0  0  0  0  0  0
    1.9583   -6.8591    1.8972 H   0  0  0  0  0  0  0  0  0  0  0  0
    0.4006  -10.8082    4.0600 H   0  0  0  0  0  0  0  0  0  0  0  0
   -1.1010   -8.5285    1.8243 H   0  0  0  0  0  0  0  0  0  0  0  0
   -2.1847   -7.9288    3.0829 H   0  0  0  0  0  0  0  0  0  0  0  0
   -2.0564   -9.6557    2.7912 H   0  0  0  0  0  0  0  0  0  0  0  0
   -1.0036   -7.2529    5.0135 H   0  0  0  0  0  0  0  0  0  0  0  0
    0.3209   -8.1910    6.9630 H   0  0  0  0  0  0  0  0  0  0  0  0
    2.7571   -8.5016    6.8988 H   0  0  0  0  0  0  0  0  0  0  0  0
    4.2601   -8.3576    4.8910 H   0  0  0  0  0  0  0  0  0  0  0  0
    3.9728  -10.5610    3.8031 H   0  0  0  0  0  0  0  0  0  0  0  0
    1.8535  -10.8880    5.6377 H   0  0  0  0  0  0  0  0  0  0  0  0
    2.8994   -4.6985    1.5804 H   0  0  0  0  0  0  0  0  0  0  0  0
    1.4063   -2.9718    2.2190 H   0  0  0  0  0  0  0  0  0  0  0  0
    2.2160   -2.7269    3.8102 H   0  0  0  0  0  0  0  0  0  0  0  0
    3.3585   -1.3610    1.5825 H   0  0  0  0  0  0  0  0  0  0  0  0
    6.4316   -1.8340    2.3437 H   0  0  0  0  0  0  0  0  0  0  0  0
    6.5787   -3.5448    1.9435 H   0  0  0  0  0  0  0  0  0  0  0  0
    7.5130   -4.6275    0.3973 H   0  0  0  0  0  0  0  0  0  0  0  0
    8.6048   -3.3356    0.9499 H   0  0  0  0  0  0  0  0  0  0  0  0
    8.8031   -4.0463   -0.6446 H   0  0  0  0  0  0  0  0  0  0  0  0
    4.4961   -3.8353    4.1301 H   0  0  0  0  0  0  0  0  0  0  0  0
  1  2  2  0
  1 33  1  0
  1 34  1  0
  2 11  1  0
  2  3  1  0
  3  5  1  0
  3  4  1  0
  3  6  1  0
  4  5  1  0
  4 35  1  0
  4 36  1  0
  5 37  1  0
  5 38  1  0
  6  7  1  0
  6  8  1  0
  6 39  1  6
  7 40  1  0
  7 41  1  0
  7 42  1  0
  8 32  1  0
  8  9  1  0
  8 43  1  1
  9 10  1  0
  9 23  1  0
  9 44  1  1
 11 10  1  1
 10 45  1  0
 10 46  1  0
 11 20  1  0
 11 12  1  0
 12 21  1  0
 12 13  2  3
 13 14  1  0
 13 47  1  0
 14 15  1  0
 14 16  2  3
 15 48  1  0
 15 49  1  0
 15 50  1  0
 16 17  1  0
 16 51  1  0
 17 19  1  0
 17 18  1  0
 17 52  1  1
 18 19  1  0
 19 20  1  0
 19 53  1  1
 20 21  1  0
 20 54  1  1
 21 22  1  0
 21 55  1  6
 22 56  1  0
 23 32  1  0
 23 24  1  0
 23 57  1  6
 24 25  1  0
 24 58  1  0
 24 59  1  0
 25 26  2  0
 25 60  1  0
 26 27  1  0
 26 32  1  0
 27 28  1  0
 27 61  1  0
 27 62  1  0
 28 29  1  0
 29 30  1  0
 29 31  2  0
 30 63  1  0
 30 64  1  0
 30 65  1  0
 32 66  1  1
M  END
>  <i_m_ct_stereo_status>  (163) 
1

>  <s_m_source_file>  (163) 
/var/tmp/pbs.5076255.sched01/tmpwzsktf0x/40k9schvjs.sdf

>  <i_m_source_file_index>  (163) 
36

>  <i_lp_mmshare_version>  (163) 
48012

>  <i_f3d_flags>  (163) 
0

>  <s_epik_input>  (163) 
W09IXVtDQEBIXTFbQ0BASF0yW0NAQEhdKE8zKVtDQEBIXTNcW0NIXT1DKFtDSDNdKS9bQ0hdPUMxXFtDQEBdMihDKD1bQ0gyXSlDNDVbQ0gyXVtDSDJdNClbQ0gyXVtDQEhdNltDQEBIXShbQ0BASF01W0NIM10pW0NAQEhdN1tDQEBIXTZbQ0gyXVtDSF09QzdbQ0gyXU9DKD1PKVtDSDNd

>  <s_epik_cmdline>  (163) 
J2VwaWtfcHl0aG9uJywgJy1waHQnLCAnMi4wJywgJy1waCcsICc3LjAnLCAnLXRuJywgJzgnLCAnLW1hJywgJzIwMCcsICctaW1hZScsICc8aW5maWxlLm1hZT4nLCAnLW9tYWUnLCAnPG91dGZpbGUubWFlPic=

>  <r_lp_tautomer_probability>  (163) 
1

>  <r_epik_Ionization_Penalty>  (163) 
3.613e-07

>  <r_epik_Ionization_Penalty_Charging>  (163) 
0

>  <r_epik_Ionization_Penalty_Neutral>  (163) 
3.613e-07

>  <r_epik_State_Penalty>  (163) 
-0

>  <r_epik_Charging_Adjusted_Penalty>  (163) 
0

>  <i_epik_Tot_Q>  (163) 
0

>  <i_epik_Tot_abs_Q>  (163) 
0

>  <s_epik_Chemistry_Notes>  (163) 
This compound has an ester and may undergo hydrolysis at high or low pH.

>  <s_lp_Force_Field>  (163) 
OPLS3e

>  <r_lp_Energy>  (163) 
105.635

>  <b_lp_Chiralities_Consistent>  (163) 
1

>  <s_lp_Variant>  (163) 
58:0-1

>  <s_i_glide_gridfile>  (163) 
pfpi4k_grid

>  <i_i_glide_lignum>  (163) 
36

>  <i_i_glide_rotatable_bonds>  (163) 
4

>  <r_i_docking_score>  (163) 
-2.88705

>  <r_i_glide_ligand_efficiency>  (163) 
-0.0902204

>  <r_i_glide_ligand_efficiency_sa>  (163) 
-0.286432

>  <r_i_glide_ligand_efficiency_ln>  (163) 
-0.64649

>  <r_i_glide_gscore>  (163) 
-2.88705

>  <r_i_glide_lipo>  (163) 
-0.637366

>  <r_i_glide_hbond>  (163) 
-0.16

>  <r_i_glide_metal>  (163) 
-0

>  <r_i_glide_rewards>  (163) 
-0.446133

>  <r_i_glide_evdw>  (163) 
-31.7646

>  <r_i_glide_ecoul>  (163) 
-1.7312

>  <r_i_glide_erotb>  (163) 
0.210929

>  <r_i_glide_esite>  (163) 
-0.00657627

>  <r_i_glide_emodel>  (163) 
-35.8841

>  <r_i_glide_energy>  (163) 
-33.4958

>  <r_i_glide_einternal>  (163) 
7.72646

>  <r_i_glide_intrahb_reward>  (163) 
-0

>  <i_i_glide_confnum>  (163) 
4

>  <i_i_glide_posenum>  (163) 
25

>  <r_i_glide_eff_state_penalty>  (163) 
0

>  <ligand_id>  (163) 
58

>  <original_smiles>  (163) 
C=C1C2(CC2)C(C)C2C(CC13C1=CC(C)=CC4OC4C3C1O)C1CC=C(COC(C)=O)C12

>  <smiles>  (163) 
[H]OC1([H])C2=C([H])C(C([H])([H])[H])=C([H])C3([H])OC3([H])C1([H])C21C(=C([H])[H])C2(C([H])([H])C2([H])[H])C([H])(C([H])([H])[H])C2([H])C3([H])C(C([H])([H])OC(=O)C([H])([H])[H])=C([H])C([H])([H])C3([H])C2([H])C1([H])[H]

$$$$
58:0:1
     RDKit          3D

 66 72  0  0  1  0  0  0  0  0999 V2000
    2.9246   -9.4371    1.8460 C   0  0  0  0  0  0  0  0  0  0  0  0
    3.5752   -8.5642    2.6440 C   0  0  0  0  0  0  0  0  0  0  0  0
    4.9734   -8.1273    2.2762 C   0  0  0  0  0  0  0  0  0  0  0  0
    6.1401   -8.6725    3.0745 C   0  0  0  0  0  0  0  0  0  0  0  0
    5.9179   -9.1550    1.6672 C   0  0  0  0  0  0  0  0  0  0  0  0
    5.0753   -6.7020    1.7311 C   0  0  1  0  0  0  0  0  0  0  0  0
    4.2555   -6.5379    0.4375 C   0  0  0  0  0  0  0  0  0  0  0  0
    4.8316   -5.6929    2.8725 C   0  0  2  0  0  0  0  0  0  0  0  0
    3.4330   -5.4660    3.5493 C   0  0  2  0  0  0  0  0  0  0  0  0
    2.3485   -6.5643    3.4848 C   0  0  0  0  0  0  0  0  0  0  0  0
    2.8769   -7.9608    3.8911 C   0  0  1  0  0  0  0  0  0  0  0  0
    1.9714   -9.0405    4.5217 C   0  0  0  0  0  0  0  0  0  0  0  0
    0.6999   -9.1066    4.9396 C   0  0  0  0  0  0  0  0  0  0  0  0
   -0.1381   -7.9468    5.1218 C   0  0  0  0  0  0  0  0  0  0  0  0
   -1.4246   -7.8282    4.3311 C   0  0  0  0  0  0  0  0  0  0  0  0
    0.2659   -7.0118    5.9922 C   0  0  0  0  0  0  0  0  0  0  0  0
    1.5076   -7.0147    6.8694 C   0  0  2  0  0  0  0  0  0  0  0  0
    2.5029   -6.0790    6.4500 O   0  0  0  0  0  0  0  0  0  0  0  0
    2.9587   -7.4193    6.5575 C   0  0  2  0  0  0  0  0  0  0  0  0
    3.5448   -8.1518    5.2961 C   0  0  1  0  0  0  0  0  0  0  0  0
    3.1686   -9.6613    5.2309 C   0  0  1  0  0  0  0  0  0  0  0  0
    2.8988  -10.2557    6.4804 O   0  0  0  0  0  0  0  0  0  0  0  0
    3.3617   -4.2708    2.6046 C   0  0  1  0  0  0  0  0  0  0  0  0
    2.9010   -2.8349    2.6520 C   0  0  0  0  0  0  0  0  0  0  0  0
    3.9819   -2.3680    1.6813 C   0  0  0  0  0  0  0  0  0  0  0  0
    5.0454   -3.1884    1.6646 C   0  0  0  0  0  0  0  0  0  0  0  0
    6.3282   -3.1342    0.8408 C   0  0  0  0  0  0  0  0  0  0  0  0
    6.3105   -2.0713   -0.1094 O   0  0  0  0  0  0  0  0  0  0  0  0
    5.4823   -2.0454   -1.1836 C   0  0  0  0  0  0  0  0  0  0  0  0
    4.5962   -3.2713   -1.4378 C   0  0  0  0  0  0  0  0  0  0  0  0
    5.4243   -1.0740   -1.9263 O   0  0  0  0  0  0  0  0  0  0  0  0
    4.8761   -4.1716    2.7905 C   0  0  2  0  0  0  0  0  0  0  0  0
    1.9133   -9.7555    2.0493 H   0  0  0  0  0  0  0  0  0  0  0  0
    3.3928   -9.8277    0.9613 H   0  0  0  0  0  0  0  0  0  0  0  0
    6.9787   -8.0019    3.2491 H   0  0  0  0  0  0  0  0  0  0  0  0
    5.9370   -9.3749    3.8803 H   0  0  0  0  0  0  0  0  0  0  0  0
    5.5784  -10.1856    1.5419 H   0  0  0  0  0  0  0  0  0  0  0  0
    6.6164   -8.8069    0.9069 H   0  0  0  0  0  0  0  0  0  0  0  0
    6.1116   -6.5733    1.4136 H   0  0  0  0  0  0  0  0  0  0  0  0
    3.1914   -6.7240    0.5858 H   0  0  0  0  0  0  0  0  0  0  0  0
    4.6072   -7.2276   -0.3320 H   0  0  0  0  0  0  0  0  0  0  0  0
    4.3728   -5.5366    0.0395 H   0  0  0  0  0  0  0  0  0  0  0  0
    5.5316   -5.9400    3.6689 H   0  0  0  0  0  0  0  0  0  0  0  0
    3.5946   -5.1268    4.5721 H   0  0  0  0  0  0  0  0  0  0  0  0
    1.5080   -6.2219    4.0735 H   0  0  0  0  0  0  0  0  0  0  0  0
    1.9174   -6.6342    2.4841 H   0  0  0  0  0  0  0  0  0  0  0  0
    0.4362   -9.9556    5.5558 H   0  0  0  0  0  0  0  0  0  0  0  0
   -1.2258   -7.8428    3.2644 H   0  0  0  0  0  0  0  0  0  0  0  0
   -1.9547   -6.9120    4.5748 H   0  0  0  0  0  0  0  0  0  0  0  0
   -2.0890   -8.6563    4.5689 H   0  0  0  0  0  0  0  0  0  0  0  0
   -0.3526   -6.1297    6.1200 H   0  0  0  0  0  0  0  0  0  0  0  0
    1.2359   -6.9444    7.9255 H   0  0  0  0  0  0  0  0  0  0  0  0
    3.5523   -7.6093    7.4549 H   0  0  0  0  0  0  0  0  0  0  0  0
    4.6208   -7.9787    5.2081 H   0  0  0  0  0  0  0  0  0  0  0  0
    3.8534  -10.2909    4.6626 H   0  0  0  0  0  0  0  0  0  0  0  0
    2.2503  -10.9475    6.3840 H   0  0  0  0  0  0  0  0  0  0  0  0
    3.0542   -4.6701    1.6303 H   0  0  0  0  0  0  0  0  0  0  0  0
    1.9106   -2.6950    2.2323 H   0  0  0  0  0  0  0  0  0  0  0  0
    2.9677   -2.3597    3.6415 H   0  0  0  0  0  0  0  0  0  0  0  0
    3.8548   -1.4764    1.0695 H   0  0  0  0  0  0  0  0  0  0  0  0
    7.2059   -3.0267    1.4887 H   0  0  0  0  0  0  0  0  0  0  0  0
    6.4497   -4.0838    0.3307 H   0  0  0  0  0  0  0  0  0  0  0  0
    3.9929   -3.4872   -0.5591 H   0  0  0  0  0  0  0  0  0  0  0  0
    5.2148   -4.1372   -1.6888 H   0  0  0  0  0  0  0  0  0  0  0  0
    3.9243   -3.0976   -2.2831 H   0  0  0  0  0  0  0  0  0  0  0  0
    5.1717   -3.7440    3.7657 H   0  0  0  0  0  0  0  0  0  0  0  0
  1  2  2  0
  1 33  1  0
  1 34  1  0
  2 11  1  0
  2  3  1  0
  3  5  1  0
  3  4  1  0
  3  6  1  0
  4  5  1  0
  4 35  1  0
  4 36  1  0
  5 37  1  0
  5 38  1  0
  6  7  1  0
  6  8  1  0
  6 39  1  6
  7 40  1  0
  7 41  1  0
  7 42  1  0
  8 32  1  0
  8  9  1  0
  8 43  1  1
  9 10  1  0
  9 23  1  0
  9 44  1  1
 11 10  1  6
 10 45  1  0
 10 46  1  0
 11 20  1  0
 11 12  1  0
 12 21  1  0
 12 13  2  3
 13 14  1  0
 13 47  1  0
 14 15  1  0
 14 16  2  3
 15 48  1  0
 15 49  1  0
 15 50  1  0
 16 17  1  0
 16 51  1  0
 17 19  1  0
 17 18  1  0
 17 52  1  1
 18 19  1  0
 19 20  1  0
 19 53  1  1
 20 21  1  0
 20 54  1  6
 21 22  1  0
 21 55  1  6
 22 56  1  0
 23 32  1  0
 23 24  1  0
 23 57  1  6
 24 25  1  0
 24 58  1  0
 24 59  1  0
 25 26  2  0
 25 60  1  0
 26 27  1  0
 26 32  1  0
 27 28  1  0
 27 61  1  0
 27 62  1  0
 28 29  1  0
 29 30  1  0
 29 31  2  0
 30 63  1  0
 30 64  1  0
 30 65  1  0
 32 66  1  1
M  END
>  <i_m_ct_stereo_status>  (164) 
1

>  <s_m_source_file>  (164) 
/var/tmp/pbs.5076255.sched01/tmpwzsktf0x/40k9schvjs.sdf

>  <i_m_source_file_index>  (164) 
36

>  <i_lp_mmshare_version>  (164) 
48012

>  <i_f3d_flags>  (164) 
0

>  <s_epik_input>  (164) 
W09IXVtDQEBIXTFbQ0BASF0yW0NAQEhdKE8zKVtDQEBIXTNcW0NIXT1DKFtDSDNdKS9bQ0hdPUMxXFtDQEBdMihDKD1bQ0gyXSlDNDVbQ0gyXVtDSDJdNClbQ0gyXVtDQEhdNltDQEBIXShbQ0BASF01W0NIM10pW0NAQEhdN1tDQEBIXTZbQ0gyXVtDSF09QzdbQ0gyXU9DKD1PKVtDSDNd

>  <s_epik_cmdline>  (164) 
J2VwaWtfcHl0aG9uJywgJy1waHQnLCAnMi4wJywgJy1waCcsICc3LjAnLCAnLXRuJywgJzgnLCAnLW1hJywgJzIwMCcsICctaW1hZScsICc8aW5maWxlLm1hZT4nLCAnLW9tYWUnLCAnPG91dGZpbGUubWFlPic=

>  <r_lp_tautomer_probability>  (164) 
1

>  <r_epik_Ionization_Penalty>  (164) 
3.613e-07

>  <r_epik_Ionization_Penalty_Charging>  (164) 
0

>  <r_epik_Ionization_Penalty_Neutral>  (164) 
3.613e-07

>  <r_epik_State_Penalty>  (164) 
-0

>  <r_epik_Charging_Adjusted_Penalty>  (164) 
0

>  <i_epik_Tot_Q>  (164) 
0

>  <i_epik_Tot_abs_Q>  (164) 
0

>  <s_epik_Chemistry_Notes>  (164) 
This compound has an ester and may undergo hydrolysis at high or low pH.

>  <s_lp_Force_Field>  (164) 
OPLS3e

>  <r_lp_Energy>  (164) 
105.635

>  <b_lp_Chiralities_Consistent>  (164) 
1

>  <s_lp_Variant>  (164) 
58:0-1

>  <s_i_glide_gridfile>  (164) 
pfpi4k_grid

>  <i_i_glide_lignum>  (164) 
36

>  <i_i_glide_rotatable_bonds>  (164) 
4

>  <r_i_docking_score>  (164) 
-2.76102

>  <r_i_glide_ligand_efficiency>  (164) 
-0.0862818

>  <r_i_glide_ligand_efficiency_sa>  (164) 
-0.273927

>  <r_i_glide_ligand_efficiency_ln>  (164) 
-0.618267

>  <r_i_glide_gscore>  (164) 
-2.76102

>  <r_i_glide_lipo>  (164) 
-0.408625

>  <r_i_glide_hbond>  (164) 
-0.105446

>  <r_i_glide_metal>  (164) 
-0

>  <r_i_glide_rewards>  (164) 
-0.446133

>  <r_i_glide_evdw>  (164) 
-29.755

>  <r_i_glide_ecoul>  (164) 
-3.25568

>  <r_i_glide_erotb>  (164) 
0.210929

>  <r_i_glide_esite>  (164) 
-0.0356363

>  <r_i_glide_emodel>  (164) 
-34.773

>  <r_i_glide_energy>  (164) 
-33.0107

>  <r_i_glide_einternal>  (164) 
7.85835

>  <r_i_glide_intrahb_reward>  (164) 
-0

>  <i_i_glide_confnum>  (164) 
4

>  <i_i_glide_posenum>  (164) 
13

>  <r_i_glide_eff_state_penalty>  (164) 
0

>  <ligand_id>  (164) 
58

>  <original_smiles>  (164) 
C=C1C2(CC2)C(C)C2C(CC13C1=CC(C)=CC4OC4C3C1O)C1CC=C(COC(C)=O)C12

>  <smiles>  (164) 
[H]OC1([H])C2=C([H])C(C([H])([H])[H])=C([H])C3([H])OC3([H])C1([H])C21C(=C([H])[H])C2(C([H])([H])C2([H])[H])C([H])(C([H])([H])[H])C2([H])C3([H])C(C([H])([H])OC(=O)C([H])([H])[H])=C([H])C([H])([H])C3([H])C2([H])C1([H])[H]

$$$$
58:0:2
     RDKit          3D

 66 72  0  0  1  0  0  0  0  0999 V2000
    3.8174   -8.9065    1.0353 C   0  0  0  0  0  0  0  0  0  0  0  0
    4.0089   -8.1382    2.1251 C   0  0  0  0  0  0  0  0  0  0  0  0
    5.2816   -7.3324    2.2223 C   0  0  0  0  0  0  0  0  0  0  0  0
    6.3665   -7.7927    3.1752 C   0  0  0  0  0  0  0  0  0  0  0  0
    6.5780   -7.9372    1.6908 C   0  0  0  0  0  0  0  0  0  0  0  0
    5.1026   -5.8361    1.9943 C   0  0  1  0  0  0  0  0  0  0  0  0
    4.5480   -5.5188    0.5886 C   0  0  0  0  0  0  0  0  0  0  0  0
    4.3659   -5.2344    3.1996 C   0  0  2  0  0  0  0  0  0  0  0  0
    2.8517   -5.4854    3.5284 C   0  0  2  0  0  0  0  0  0  0  0  0
    2.1405   -6.7412    2.9833 C   0  0  0  0  0  0  0  0  0  0  0  0
    2.9412   -8.0407    3.2498 C   0  0  1  0  0  0  0  0  0  0  0  0
    2.2500   -9.4178    3.3848 C   0  0  0  0  0  0  0  0  0  0  0  0
    0.9835   -9.8548    3.4361 C   0  0  0  0  0  0  0  0  0  0  0  0
   -0.1665   -9.0032    3.6014 C   0  0  0  0  0  0  0  0  0  0  0  0
   -1.2587   -8.9629    2.5529 C   0  0  0  0  0  0  0  0  0  0  0  0
   -0.2100   -8.2468    4.7240 C   0  0  0  0  0  0  0  0  0  0  0  0
    0.7724   -8.2095    5.8653 C   0  0  2  0  0  0  0  0  0  0  0  0
    1.5514   -6.9963    5.9153 O   0  0  0  0  0  0  0  0  0  0  0  0
    2.3195   -8.2051    5.8824 C   0  0  2  0  0  0  0  0  0  0  0  0
    3.3218   -8.4565    4.7152 C   0  0  1  0  0  0  0  0  0  0  0  0
    3.4120   -9.9313    4.2219 C   0  0  1  0  0  0  0  0  0  0  0  0
    3.0826  -10.9579    5.1449 O   0  0  0  0  0  0  0  0  0  0  0  0
    2.6441   -4.1391    2.8482 C   0  0  1  0  0  0  0  0  0  0  0  0
    1.8478   -2.8752    3.0523 C   0  0  0  0  0  0  0  0  0  0  0  0
    2.9388   -1.9730    2.4639 C   0  0  0  0  0  0  0  0  0  0  0  0
    4.1619   -2.5392    2.5429 C   0  0  0  0  0  0  0  0  0  0  0  0
    5.5285   -1.9677    2.1935 C   0  0  0  0  0  0  0  0  0  0  0  0
    6.0636   -2.4545    0.9604 O   0  0  0  0  0  0  0  0  0  0  0  0
    5.7235   -1.9436   -0.2487 C   0  0  0  0  0  0  0  0  0  0  0  0
    4.5621   -0.9522   -0.2792 C   0  0  0  0  0  0  0  0  0  0  0  0
    6.3004   -2.2586   -1.2927 O   0  0  0  0  0  0  0  0  0  0  0  0
    4.0165   -3.7671    3.3876 C   0  0  2  0  0  0  0  0  0  0  0  0
    2.9120   -9.4834    0.8959 H   0  0  0  0  0  0  0  0  0  0  0  0
    4.5358   -8.9340    0.2332 H   0  0  0  0  0  0  0  0  0  0  0  0
    6.9372   -7.0235    3.6882 H   0  0  0  0  0  0  0  0  0  0  0  0
    6.2007   -8.7019    3.7420 H   0  0  0  0  0  0  0  0  0  0  0  0
    6.5690   -8.9470    1.2854 H   0  0  0  0  0  0  0  0  0  0  0  0
    7.2952   -7.2627    1.2248 H   0  0  0  0  0  0  0  0  0  0  0  0
    6.1021   -5.3975    1.9998 H   0  0  0  0  0  0  0  0  0  0  0  0
    3.5764   -5.9763    0.4095 H   0  0  0  0  0  0  0  0  0  0  0  0
    5.2286   -5.8801   -0.1818 H   0  0  0  0  0  0  0  0  0  0  0  0
    4.4367   -4.4487    0.4328 H   0  0  0  0  0  0  0  0  0  0  0  0
    4.9250   -5.4849    4.0980 H   0  0  0  0  0  0  0  0  0  0  0  0
    2.7127   -5.3726    4.6047 H   0  0  0  0  0  0  0  0  0  0  0  0
    1.1383   -6.7449    3.3806 H   0  0  0  0  0  0  0  0  0  0  0  0
    1.9710   -6.6381    1.9086 H   0  0  0  0  0  0  0  0  0  0  0  0
    0.8308  -10.8762    3.7692 H   0  0  0  0  0  0  0  0  0  0  0  0
   -0.8498   -8.6389    1.5994 H   0  0  0  0  0  0  0  0  0  0  0  0
   -2.0601   -8.2805    2.8249 H   0  0  0  0  0  0  0  0  0  0  0  0
   -1.6981   -9.9508    2.4242 H   0  0  0  0  0  0  0  0  0  0  0  0
   -1.0586   -7.5886    4.8452 H   0  0  0  0  0  0  0  0  0  0  0  0
    0.2855   -8.4671    6.8030 H   0  0  0  0  0  0  0  0  0  0  0  0
    2.7392   -8.4674    6.8464 H   0  0  0  0  0  0  0  0  0  0  0  0
    4.3029   -8.0215    4.9313 H   0  0  0  0  0  0  0  0  0  0  0  0
    4.3489  -10.1803    3.7260 H   0  0  0  0  0  0  0  0  0  0  0  0
    2.1861  -10.8524    5.4146 H   0  0  0  0  0  0  0  0  0  0  0  0
    2.6451   -4.3538    1.7753 H   0  0  0  0  0  0  0  0  0  0  0  0
    0.9181   -2.8529    2.4864 H   0  0  0  0  0  0  0  0  0  0  0  0
    1.6376   -2.6385    4.0972 H   0  0  0  0  0  0  0  0  0  0  0  0
    2.7125   -1.0116    2.0357 H   0  0  0  0  0  0  0  0  0  0  0  0
    5.5249   -0.8786    2.2139 H   0  0  0  0  0  0  0  0  0  0  0  0
    6.2094   -2.2752    2.9920 H   0  0  0  0  0  0  0  0  0  0  0  0
    4.7214   -0.1280    0.4179 H   0  0  0  0  0  0  0  0  0  0  0  0
    3.6385   -1.4698   -0.0198 H   0  0  0  0  0  0  0  0  0  0  0  0
    4.4201   -0.5182   -1.2681 H   0  0  0  0  0  0  0  0  0  0  0  0
    4.0027   -3.4922    4.4478 H   0  0  0  0  0  0  0  0  0  0  0  0
  1  2  2  0
  1 33  1  0
  1 34  1  0
  2 11  1  0
  2  3  1  0
  3  5  1  0
  3  4  1  0
  3  6  1  0
  4  5  1  0
  4 35  1  0
  4 36  1  0
  5 37  1  0
  5 38  1  0
  6  7  1  0
  6  8  1  0
  6 39  1  6
  7 40  1  0
  7 41  1  0
  7 42  1  0
  8 32  1  0
  8  9  1  0
  8 43  1  1
  9 10  1  0
  9 23  1  0
  9 44  1  1
 11 10  1  1
 10 45  1  0
 10 46  1  0
 11 20  1  0
 11 12  1  0
 12 21  1  0
 12 13  2  3
 13 14  1  0
 13 47  1  0
 14 15  1  0
 14 16  2  3
 15 48  1  0
 15 49  1  0
 15 50  1  0
 16 17  1  0
 16 51  1  0
 17 19  1  0
 17 18  1  0
 17 52  1  1
 18 19  1  0
 19 20  1  0
 19 53  1  1
 20 21  1  0
 20 54  1  1
 21 22  1  0
 21 55  1  6
 22 56  1  0
 23 32  1  0
 23 24  1  0
 23 57  1  6
 24 25  1  0
 24 58  1  0
 24 59  1  0
 25 26  2  0
 25 60  1  0
 26 27  1  0
 26 32  1  0
 27 28  1  0
 27 61  1  0
 27 62  1  0
 28 29  1  0
 29 30  1  0
 29 31  2  0
 30 63  1  0
 30 64  1  0
 30 65  1  0
 32 66  1  1
M  END
>  <i_m_ct_stereo_status>  (165) 
1

>  <s_m_source_file>  (165) 
/var/tmp/pbs.5076255.sched01/tmpwzsktf0x/40k9schvjs.sdf

>  <i_m_source_file_index>  (165) 
36

>  <i_lp_mmshare_version>  (165) 
48012

>  <i_f3d_flags>  (165) 
0

>  <s_epik_input>  (165) 
W09IXVtDQEBIXTFbQ0BASF0yW0NAQEhdKE8zKVtDQEBIXTNcW0NIXT1DKFtDSDNdKS9bQ0hdPUMxXFtDQEBdMihDKD1bQ0gyXSlDNDVbQ0gyXVtDSDJdNClbQ0gyXVtDQEhdNltDQEBIXShbQ0BASF01W0NIM10pW0NAQEhdN1tDQEBIXTZbQ0gyXVtDSF09QzdbQ0gyXU9DKD1PKVtDSDNd

>  <s_epik_cmdline>  (165) 
J2VwaWtfcHl0aG9uJywgJy1waHQnLCAnMi4wJywgJy1waCcsICc3LjAnLCAnLXRuJywgJzgnLCAnLW1hJywgJzIwMCcsICctaW1hZScsICc8aW5maWxlLm1hZT4nLCAnLW9tYWUnLCAnPG91dGZpbGUubWFlPic=

>  <r_lp_tautomer_probability>  (165) 
1

>  <r_epik_Ionization_Penalty>  (165) 
3.613e-07

>  <r_epik_Ionization_Penalty_Charging>  (165) 
0

>  <r_epik_Ionization_Penalty_Neutral>  (165) 
3.613e-07

>  <r_epik_State_Penalty>  (165) 
-0

>  <r_epik_Charging_Adjusted_Penalty>  (165) 
0

>  <i_epik_Tot_Q>  (165) 
0

>  <i_epik_Tot_abs_Q>  (165) 
0

>  <s_epik_Chemistry_Notes>  (165) 
This compound has an ester and may undergo hydrolysis at high or low pH.

>  <s_lp_Force_Field>  (165) 
OPLS3e

>  <r_lp_Energy>  (165) 
105.635

>  <b_lp_Chiralities_Consistent>  (165) 
1

>  <s_lp_Variant>  (165) 
58:0-1

>  <s_i_glide_gridfile>  (165) 
pfpi4k_grid

>  <i_i_glide_lignum>  (165) 
36

>  <i_i_glide_rotatable_bonds>  (165) 
4

>  <r_i_docking_score>  (165) 
-2.62675

>  <r_i_glide_ligand_efficiency>  (165) 
-0.0820859

>  <r_i_glide_ligand_efficiency_sa>  (165) 
-0.260606

>  <r_i_glide_ligand_efficiency_ln>  (165) 
-0.5882

>  <r_i_glide_gscore>  (165) 
-2.62675

>  <r_i_glide_lipo>  (165) 
-0.432901

>  <r_i_glide_hbond>  (165) 
-0.0794646

>  <r_i_glide_metal>  (165) 
-0

>  <r_i_glide_rewards>  (165) 
-0.446133

>  <r_i_glide_evdw>  (165) 
-32.2652

>  <r_i_glide_ecoul>  (165) 
-1.6744

>  <r_i_glide_erotb>  (165) 
0.210929

>  <r_i_glide_esite>  (165) 
-0.0147588

>  <r_i_glide_emodel>  (165) 
-36.4194

>  <r_i_glide_energy>  (165) 
-33.9396

>  <r_i_glide_einternal>  (165) 
6.44428

>  <r_i_glide_intrahb_reward>  (165) 
-0

>  <i_i_glide_confnum>  (165) 
2

>  <i_i_glide_posenum>  (165) 
19

>  <r_i_glide_eff_state_penalty>  (165) 
0

>  <ligand_id>  (165) 
58

>  <original_smiles>  (165) 
C=C1C2(CC2)C(C)C2C(CC13C1=CC(C)=CC4OC4C3C1O)C1CC=C(COC(C)=O)C12

>  <smiles>  (165) 
[H]OC1([H])C2=C([H])C(C([H])([H])[H])=C([H])C3([H])OC3([H])C1([H])C21C(=C([H])[H])C2(C([H])([H])C2([H])[H])C([H])(C([H])([H])[H])C2([H])C3([H])C(C([H])([H])OC(=O)C([H])([H])[H])=C([H])C([H])([H])C3([H])C2([H])C1([H])[H]

$$$$
58:1:0
     RDKit          3D

 66 72  0  0  1  0  0  0  0  0999 V2000
    5.8415   -8.4688    2.3384 C   0  0  0  0  0  0  0  0  0  0  0  0
    5.2122   -7.3153    2.6393 C   0  0  0  0  0  0  0  0  0  0  0  0
    6.0141   -6.0738    2.9225 C   0  0  0  0  0  0  0  0  0  0  0  0
    6.2123   -5.6470    4.3628 C   0  0  0  0  0  0  0  0  0  0  0  0
    7.3813   -6.2022    3.5916 C   0  0  0  0  0  0  0  0  0  0  0  0
    5.8967   -4.9790    1.8591 C   0  0  1  0  0  0  0  0  0  0  0  0
    6.4365   -5.4208    0.4899 C   0  0  0  0  0  0  0  0  0  0  0  0
    4.4831   -4.3764    1.8814 C   0  0  2  0  0  0  0  0  0  0  0  0
    3.1768   -5.1162    1.3982 C   0  0  2  0  0  0  0  0  0  0  0  0
    3.1641   -6.6472    1.3553 C   0  0  0  0  0  0  0  0  0  0  0  0
    3.6679   -7.2297    2.6824 C   0  0  1  0  0  0  0  0  0  0  0  0
    3.0556   -8.5509    3.1604 C   0  0  0  0  0  0  0  0  0  0  0  0
    2.0985   -9.2838    2.5828 C   0  0  0  0  0  0  0  0  0  0  0  0
    0.9296   -9.7753    3.2900 C   0  0  0  0  0  0  0  0  0  0  0  0
    0.6457  -11.2592    3.3121 C   0  0  0  0  0  0  0  0  0  0  0  0
    0.1373   -8.8870    3.9312 C   0  0  0  0  0  0  0  0  0  0  0  0
    0.2139   -7.3766    4.0618 C   0  0  2  0  0  0  0  0  0  0  0  0
    0.6483   -6.7104    2.8788 O   0  0  0  0  0  0  0  0  0  0  0  0
    1.4383   -6.4105    4.0546 C   0  0  2  0  0  0  0  0  0  0  0  0
    2.9531   -6.7994    4.0324 C   0  0  1  0  0  0  0  0  0  0  0  0
    3.3216   -8.1703    4.6212 C   0  0  1  0  0  0  0  0  0  0  0  0
    2.4872   -8.7514    5.6012 O   0  0  0  0  0  0  0  0  0  0  0  0
    3.4039   -4.3424    0.0979 C   0  0  1  0  0  0  0  0  0  0  0  0
    2.6166   -3.5318   -0.9050 C   0  0  0  0  0  0  0  0  0  0  0  0
    3.7355   -2.5187   -1.1570 C   0  0  0  0  0  0  0  0  0  0  0  0
    4.5898   -2.4512   -0.1148 C   0  0  0  0  0  0  0  0  0  0  0  0
    5.7634   -1.5054    0.0982 C   0  0  0  0  0  0  0  0  0  0  0  0
    5.9872   -1.1887    1.4764 O   0  0  0  0  0  0  0  0  0  0  0  0
    5.0531   -0.5279    2.1955 C   0  0  0  0  0  0  0  0  0  0  0  0
    5.4353   -0.3793    3.6570 C   0  0  0  0  0  0  0  0  0  0  0  0
    3.9930   -0.0795    1.7620 O   0  0  0  0  0  0  0  0  0  0  0  0
    3.9825   -3.2599    0.9903 C   0  0  2  0  0  0  0  0  0  0  0  0
    5.2897   -9.3699    2.1179 H   0  0  0  0  0  0  0  0  0  0  0  0
    6.9165   -8.5160    2.2734 H   0  0  0  0  0  0  0  0  0  0  0  0
    6.2141   -4.5823    4.5751 H   0  0  0  0  0  0  0  0  0  0  0  0
    5.8050   -6.2691    5.1520 H   0  0  0  0  0  0  0  0  0  0  0  0
    7.7495   -7.1838    3.8904 H   0  0  0  0  0  0  0  0  0  0  0  0
    8.1572   -5.4983    3.2831 H   0  0  0  0  0  0  0  0  0  0  0  0
    6.5725   -4.1790    2.1594 H   0  0  0  0  0  0  0  0  0  0  0  0
    5.8802   -6.2672    0.0941 H   0  0  0  0  0  0  0  0  0  0  0  0
    7.4824   -5.7128    0.5664 H   0  0  0  0  0  0  0  0  0  0  0  0
    6.3796   -4.6113   -0.2386 H   0  0  0  0  0  0  0  0  0  0  0  0
    4.2815   -4.0192    2.8885 H   0  0  0  0  0  0  0  0  0  0  0  0
    2.3315   -4.7109    1.9731 H   0  0  0  0  0  0  0  0  0  0  0  0
    2.1691   -6.9925    1.0778 H   0  0  0  0  0  0  0  0  0  0  0  0
    3.7901   -6.9992    0.5323 H   0  0  0  0  0  0  0  0  0  0  0  0
    1.9880   -9.1994    1.5079 H   0  0  0  0  0  0  0  0  0  0  0  0
    1.5396  -11.8213    3.5727 H   0  0  0  0  0  0  0  0  0  0  0  0
    0.2786  -11.5853    2.3432 H   0  0  0  0  0  0  0  0  0  0  0  0
   -0.1198  -11.4841    4.0444 H   0  0  0  0  0  0  0  0  0  0  0  0
   -0.7020   -9.3156    4.4608 H   0  0  0  0  0  0  0  0  0  0  0  0
   -0.7271   -6.9928    4.4513 H   0  0  0  0  0  0  0  0  0  0  0  0
    1.2591   -5.4047    4.4203 H   0  0  0  0  0  0  0  0  0  0  0  0
    3.5533   -6.0707    4.5864 H   0  0  0  0  0  0  0  0  0  0  0  0
    4.3513   -8.2140    4.9667 H   0  0  0  0  0  0  0  0  0  0  0  0
    1.7781   -9.1744    5.1403 H   0  0  0  0  0  0  0  0  0  0  0  0
    4.1620   -4.9066   -0.4593 H   0  0  0  0  0  0  0  0  0  0  0  0
    2.3196   -4.0950   -1.7862 H   0  0  0  0  0  0  0  0  0  0  0  0
    1.7465   -3.0439   -0.4707 H   0  0  0  0  0  0  0  0  0  0  0  0
    3.7909   -1.9257   -2.0509 H   0  0  0  0  0  0  0  0  0  0  0  0
    6.6615   -2.0103   -0.2665 H   0  0  0  0  0  0  0  0  0  0  0  0
    5.6416   -0.6001   -0.5039 H   0  0  0  0  0  0  0  0  0  0  0  0
    6.3947    0.1310    3.7352 H   0  0  0  0  0  0  0  0  0  0  0  0
    5.5019   -1.3543    4.1385 H   0  0  0  0  0  0  0  0  0  0  0  0
    4.6781    0.2088    4.1660 H   0  0  0  0  0  0  0  0  0  0  0  0
    3.2003   -2.6865    1.5036 H   0  0  0  0  0  0  0  0  0  0  0  0
  1  2  2  0
  1 33  1  0
  1 34  1  0
  2 11  1  0
  2  3  1  0
  3  5  1  0
  3  4  1  0
  3  6  1  0
  4  5  1  0
  4 35  1  0
  4 36  1  0
  5 37  1  0
  5 38  1  0
  6  7  1  0
  6  8  1  0
  6 39  1  1
  7 40  1  0
  7 41  1  0
  7 42  1  0
  8 32  1  0
  8  9  1  0
  8 43  1  1
  9 10  1  0
  9 23  1  0
  9 44  1  1
 11 10  1  6
 10 45  1  0
 10 46  1  0
 11 20  1  0
 11 12  1  0
 12 21  1  0
 12 13  2  3
 13 14  1  0
 13 47  1  0
 14 15  1  0
 14 16  2  3
 15 48  1  0
 15 49  1  0
 15 50  1  0
 16 17  1  0
 16 51  1  0
 17 19  1  0
 17 18  1  0
 17 52  1  1
 18 19  1  0
 19 20  1  0
 19 53  1  1
 20 21  1  0
 20 54  1  1
 21 22  1  0
 21 55  1  1
 22 56  1  0
 23 32  1  0
 23 24  1  0
 23 57  1  6
 24 25  1  0
 24 58  1  0
 24 59  1  0
 25 26  2  0
 25 60  1  0
 26 27  1  0
 26 32  1  0
 27 28  1  0
 27 61  1  0
 27 62  1  0
 28 29  1  0
 29 30  1  0
 29 31  2  0
 30 63  1  0
 30 64  1  0
 30 65  1  0
 32 66  1  1
M  END
>  <i_m_ct_stereo_status>  (166) 
1

>  <s_m_source_file>  (166) 
/var/tmp/pbs.5076255.sched01/tmpwzsktf0x/40k9schvjs.sdf

>  <i_m_source_file_index>  (166) 
37

>  <i_lp_mmshare_version>  (166) 
48012

>  <i_f3d_flags>  (166) 
0

>  <s_epik_input>  (166) 
W09IXVtDQEBIXTFbQ0BASF0yW0NAQEhdKE8zKVtDQEBIXTNcW0NIXT1DKFtDSDNdKS9bQ0hdPUMxXFtDQEBdMihDKD1bQ0gyXSlDNDVbQ0gyXVtDSDJdNClbQ0gyXVtDQEhdNltDQEBIXShbQ0BASF01W0NIM10pW0NAQEhdN1tDQEBIXTZbQ0gyXVtDSF09QzdbQ0gyXU9DKD1PKVtDSDNd

>  <s_epik_cmdline>  (166) 
J2VwaWtfcHl0aG9uJywgJy1waHQnLCAnMi4wJywgJy1waCcsICc3LjAnLCAnLXRuJywgJzgnLCAnLW1hJywgJzIwMCcsICctaW1hZScsICc8aW5maWxlLm1hZT4nLCAnLW9tYWUnLCAnPG91dGZpbGUubWFlPic=

>  <r_lp_tautomer_probability>  (166) 
1

>  <r_epik_Ionization_Penalty>  (166) 
3.613e-07

>  <r_epik_Ionization_Penalty_Charging>  (166) 
0

>  <r_epik_Ionization_Penalty_Neutral>  (166) 
3.613e-07

>  <r_epik_State_Penalty>  (166) 
-0

>  <r_epik_Charging_Adjusted_Penalty>  (166) 
0

>  <i_epik_Tot_Q>  (166) 
0

>  <i_epik_Tot_abs_Q>  (166) 
0

>  <s_epik_Chemistry_Notes>  (166) 
This compound has an ester and may undergo hydrolysis at high or low pH.

>  <s_lp_Force_Field>  (166) 
OPLS3e

>  <r_lp_Energy>  (166) 
100.725

>  <b_lp_Chiralities_Consistent>  (166) 
1

>  <s_lp_Variant>  (166) 
58:0-2

>  <s_i_glide_gridfile>  (166) 
pfpi4k_grid

>  <i_i_glide_lignum>  (166) 
37

>  <i_i_glide_rotatable_bonds>  (166) 
4

>  <r_i_docking_score>  (166) 
-2.60577

>  <r_i_glide_ligand_efficiency>  (166) 
-0.0814303

>  <r_i_glide_ligand_efficiency_sa>  (166) 
-0.258525

>  <r_i_glide_ligand_efficiency_ln>  (166) 
-0.583503

>  <r_i_glide_gscore>  (166) 
-2.60577

>  <r_i_glide_lipo>  (166) 
-0.59876

>  <r_i_glide_hbond>  (166) 
0

>  <r_i_glide_metal>  (166) 
-0

>  <r_i_glide_rewards>  (166) 
-0.635661

>  <r_i_glide_evdw>  (166) 
-31.6028

>  <r_i_glide_ecoul>  (166) 
-0.0142361

>  <r_i_glide_erotb>  (166) 
0.210929

>  <r_i_glide_esite>  (166) 
0

>  <r_i_glide_emodel>  (166) 
-35.7872

>  <r_i_glide_energy>  (166) 
-31.6171

>  <r_i_glide_einternal>  (166) 
1.65888

>  <r_i_glide_intrahb_reward>  (166) 
-0

>  <i_i_glide_confnum>  (166) 
3

>  <i_i_glide_posenum>  (166) 
2

>  <r_i_glide_eff_state_penalty>  (166) 
0

>  <ligand_id>  (166) 
58

>  <original_smiles>  (166) 
C=C1C2(CC2)C(C)C2C(CC13C1=CC(C)=CC4OC4C3C1O)C1CC=C(COC(C)=O)C12

>  <smiles>  (166) 
[H]OC1([H])C2=C([H])C(C([H])([H])[H])=C([H])C3([H])OC3([H])C1([H])C21C(=C([H])[H])C2(C([H])([H])C2([H])[H])C([H])(C([H])([H])[H])C2([H])C3([H])C(C([H])([H])OC(=O)C([H])([H])[H])=C([H])C([H])([H])C3([H])C2([H])C1([H])[H]

$$$$
58:1:1
     RDKit          3D

 66 72  0  0  1  0  0  0  0  0999 V2000
    4.0813   -6.2188    6.0263 C   0  0  0  0  0  0  0  0  0  0  0  0
    3.2059   -5.6225    5.1917 C   0  0  0  0  0  0  0  0  0  0  0  0
    2.9602   -4.1386    5.2978 C   0  0  0  0  0  0  0  0  0  0  0  0
    1.7072   -3.6554    5.9998 C   0  0  0  0  0  0  0  0  0  0  0  0
    3.0445   -3.4620    6.6648 C   0  0  0  0  0  0  0  0  0  0  0  0
    3.4859   -3.3206    4.1212 C   0  0  1  0  0  0  0  0  0  0  0  0
    5.0168   -3.3965    3.9821 C   0  0  0  0  0  0  0  0  0  0  0  0
    2.6520   -3.6171    2.8597 C   0  0  2  0  0  0  0  0  0  0  0  0
    2.7010   -4.9599    2.0464 C   0  0  2  0  0  0  0  0  0  0  0  0
    3.1876   -6.2293    2.7565 C   0  0  0  0  0  0  0  0  0  0  0  0
    2.4587   -6.4243    4.0999 C   0  0  1  0  0  0  0  0  0  0  0  0
    2.1715   -7.8558    4.5647 C   0  0  0  0  0  0  0  0  0  0  0  0
    2.4544   -9.0073    3.9413 C   0  0  0  0  0  0  0  0  0  0  0  0
    1.4851  -10.0699    3.7448 C   0  0  0  0  0  0  0  0  0  0  0  0
    1.7860  -11.4564    4.2681 C   0  0  0  0  0  0  0  0  0  0  0  0
    0.3223   -9.7783    3.1126 C   0  0  0  0  0  0  0  0  0  0  0  0
   -0.1918   -8.4922    2.5081 C   0  0  2  0  0  0  0  0  0  0  0  0
    0.8113   -7.7013    1.8807 O   0  0  0  0  0  0  0  0  0  0  0  0
    0.0693   -7.0027    2.8977 C   0  0  2  0  0  0  0  0  0  0  0  0
    0.8728   -6.4664    4.1220 C   0  0  1  0  0  0  0  0  0  0  0  0
    0.9473   -7.3829    5.3492 C   0  0  1  0  0  0  0  0  0  0  0  0
   -0.0919   -8.3184    5.5790 O   0  0  0  0  0  0  0  0  0  0  0  0
    3.6449   -4.1856    1.1295 C   0  0  1  0  0  0  0  0  0  0  0  0
    3.9135   -3.9932   -0.3426 C   0  0  0  0  0  0  0  0  0  0  0  0
    4.3269   -2.5220   -0.1831 C   0  0  0  0  0  0  0  0  0  0  0  0
    3.7878   -1.9614    0.9216 C   0  0  0  0  0  0  0  0  0  0  0  0
    3.9105   -0.5393    1.4508 C   0  0  0  0  0  0  0  0  0  0  0  0
    2.7034    0.2120    1.3241 O   0  0  0  0  0  0  0  0  0  0  0  0
    1.6810    0.0705    2.1981 C   0  0  0  0  0  0  0  0  0  0  0  0
    0.5244    1.0069    1.9205 C   0  0  0  0  0  0  0  0  0  0  0  0
    1.6326   -0.6995    3.1539 O   0  0  0  0  0  0  0  0  0  0  0  0
    2.8267   -2.9575    1.4974 C   0  0  2  0  0  0  0  0  0  0  0  0
    4.2921   -7.2767    5.9599 H   0  0  0  0  0  0  0  0  0  0  0  0
    4.6347   -5.6531    6.7598 H   0  0  0  0  0  0  0  0  0  0  0  0
    1.2178   -2.7716    5.5995 H   0  0  0  0  0  0  0  0  0  0  0  0
    1.0426   -4.3929    6.4335 H   0  0  0  0  0  0  0  0  0  0  0  0
    3.2470   -4.0595    7.5524 H   0  0  0  0  0  0  0  0  0  0  0  0
    3.4390   -2.4451    6.7022 H   0  0  0  0  0  0  0  0  0  0  0  0
    3.3064   -2.2756    4.3756 H   0  0  0  0  0  0  0  0  0  0  0  0
    5.3662   -4.4130    3.8117 H   0  0  0  0  0  0  0  0  0  0  0  0
    5.4986   -3.0348    4.8889 H   0  0  0  0  0  0  0  0  0  0  0  0
    5.3739   -2.7699    3.1654 H   0  0  0  0  0  0  0  0  0  0  0  0
    1.6051   -3.4553    3.1014 H   0  0  0  0  0  0  0  0  0  0  0  0
    1.7320   -5.1068    1.5664 H   0  0  0  0  0  0  0  0  0  0  0  0
    3.0855   -7.0814    2.0874 H   0  0  0  0  0  0  0  0  0  0  0  0
    4.2646   -6.1739    2.9281 H   0  0  0  0  0  0  0  0  0  0  0  0
    3.2882   -9.0109    3.2549 H   0  0  0  0  0  0  0  0  0  0  0  0
    2.1070  -11.4121    5.3087 H   0  0  0  0  0  0  0  0  0  0  0  0
    2.5709  -11.9269    3.6770 H   0  0  0  0  0  0  0  0  0  0  0  0
    0.9117  -12.0994    4.2138 H   0  0  0  0  0  0  0  0  0  0  0  0
   -0.3778  -10.5954    3.0252 H   0  0  0  0  0  0  0  0  0  0  0  0
   -1.0411   -8.6933    1.8635 H   0  0  0  0  0  0  0  0  0  0  0  0
   -0.5960   -6.2724    2.4666 H   0  0  0  0  0  0  0  0  0  0  0  0
    0.4577   -5.5166    4.4748 H   0  0  0  0  0  0  0  0  0  0  0  0
    1.1353   -6.8364    6.2747 H   0  0  0  0  0  0  0  0  0  0  0  0
    0.0254   -9.0288    4.9622 H   0  0  0  0  0  0  0  0  0  0  0  0
    4.6163   -4.2245    1.6269 H   0  0  0  0  0  0  0  0  0  0  0  0
    4.7090   -4.6407   -0.7164 H   0  0  0  0  0  0  0  0  0  0  0  0
    3.0205   -4.0908   -0.9677 H   0  0  0  0  0  0  0  0  0  0  0  0
    4.9746   -2.0270   -0.8832 H   0  0  0  0  0  0  0  0  0  0  0  0
    4.2178   -0.5743    2.4980 H   0  0  0  0  0  0  0  0  0  0  0  0
    4.7061   -0.0199    0.9107 H   0  0  0  0  0  0  0  0  0  0  0  0
    0.2146    0.9418    0.8791 H   0  0  0  0  0  0  0  0  0  0  0  0
    0.8304    2.0264    2.1399 H   0  0  0  0  0  0  0  0  0  0  0  0
   -0.3230    0.7394    2.5488 H   0  0  0  0  0  0  0  0  0  0  0  0
    1.8731   -2.8820    0.9698 H   0  0  0  0  0  0  0  0  0  0  0  0
  1  2  2  0
  1 33  1  0
  1 34  1  0
  2 11  1  0
  2  3  1  0
  3  5  1  0
  3  4  1  0
  3  6  1  0
  4  5  1  0
  4 35  1  0
  4 36  1  0
  5 37  1  0
  5 38  1  0
  6  7  1  0
  6  8  1  0
  6 39  1  1
  7 40  1  0
  7 41  1  0
  7 42  1  0
  8 32  1  0
  8  9  1  0
  8 43  1  1
  9 10  1  0
  9 23  1  0
  9 44  1  6
 11 10  1  6
 10 45  1  0
 10 46  1  0
 11 20  1  0
 11 12  1  0
 12 21  1  0
 12 13  2  3
 13 14  1  0
 13 47  1  0
 14 15  1  0
 14 16  2  3
 15 48  1  0
 15 49  1  0
 15 50  1  0
 16 17  1  0
 16 51  1  0
 17 19  1  0
 17 18  1  0
 17 52  1  6
 18 19  1  0
 19 20  1  0
 19 53  1  6
 20 21  1  0
 20 54  1  1
 21 22  1  0
 21 55  1  1
 22 56  1  0
 23 32  1  0
 23 24  1  0
 23 57  1  1
 24 25  1  0
 24 58  1  0
 24 59  1  0
 25 26  2  0
 25 60  1  0
 26 27  1  0
 26 32  1  0
 27 28  1  0
 27 61  1  0
 27 62  1  0
 28 29  1  0
 29 30  1  0
 29 31  2  0
 30 63  1  0
 30 64  1  0
 30 65  1  0
 32 66  1  6
M  END
>  <i_m_ct_stereo_status>  (167) 
1

>  <s_m_source_file>  (167) 
/var/tmp/pbs.5076255.sched01/tmpwzsktf0x/40k9schvjs.sdf

>  <i_m_source_file_index>  (167) 
37

>  <i_lp_mmshare_version>  (167) 
48012

>  <i_f3d_flags>  (167) 
0

>  <s_epik_input>  (167) 
W09IXVtDQEBIXTFbQ0BASF0yW0NAQEhdKE8zKVtDQEBIXTNcW0NIXT1DKFtDSDNdKS9bQ0hdPUMxXFtDQEBdMihDKD1bQ0gyXSlDNDVbQ0gyXVtDSDJdNClbQ0gyXVtDQEhdNltDQEBIXShbQ0BASF01W0NIM10pW0NAQEhdN1tDQEBIXTZbQ0gyXVtDSF09QzdbQ0gyXU9DKD1PKVtDSDNd

>  <s_epik_cmdline>  (167) 
J2VwaWtfcHl0aG9uJywgJy1waHQnLCAnMi4wJywgJy1waCcsICc3LjAnLCAnLXRuJywgJzgnLCAnLW1hJywgJzIwMCcsICctaW1hZScsICc8aW5maWxlLm1hZT4nLCAnLW9tYWUnLCAnPG91dGZpbGUubWFlPic=

>  <r_lp_tautomer_probability>  (167) 
1

>  <r_epik_Ionization_Penalty>  (167) 
3.613e-07

>  <r_epik_Ionization_Penalty_Charging>  (167) 
0

>  <r_epik_Ionization_Penalty_Neutral>  (167) 
3.613e-07

>  <r_epik_State_Penalty>  (167) 
-0

>  <r_epik_Charging_Adjusted_Penalty>  (167) 
0

>  <i_epik_Tot_Q>  (167) 
0

>  <i_epik_Tot_abs_Q>  (167) 
0

>  <s_epik_Chemistry_Notes>  (167) 
This compound has an ester and may undergo hydrolysis at high or low pH.

>  <s_lp_Force_Field>  (167) 
OPLS3e

>  <r_lp_Energy>  (167) 
100.725

>  <b_lp_Chiralities_Consistent>  (167) 
1

>  <s_lp_Variant>  (167) 
58:0-2

>  <s_i_glide_gridfile>  (167) 
pfpi4k_grid

>  <i_i_glide_lignum>  (167) 
37

>  <i_i_glide_rotatable_bonds>  (167) 
4

>  <r_i_docking_score>  (167) 
-1.91567

>  <r_i_glide_ligand_efficiency>  (167) 
-0.0598647

>  <r_i_glide_ligand_efficiency_sa>  (167) 
-0.190059

>  <r_i_glide_ligand_efficiency_ln>  (167) 
-0.428971

>  <r_i_glide_gscore>  (167) 
-1.91567

>  <r_i_glide_lipo>  (167) 
-0.093579

>  <r_i_glide_hbond>  (167) 
0

>  <r_i_glide_metal>  (167) 
-0

>  <r_i_glide_rewards>  (167) 
-0.446133

>  <r_i_glide_evdw>  (167) 
-30.785

>  <r_i_glide_ecoul>  (167) 
-0.0244479

>  <r_i_glide_erotb>  (167) 
0.210929

>  <r_i_glide_esite>  (167) 
-0.0439696

>  <r_i_glide_emodel>  (167) 
-34.208

>  <r_i_glide_energy>  (167) 
-30.8095

>  <r_i_glide_einternal>  (167) 
0.586157

>  <r_i_glide_intrahb_reward>  (167) 
-0

>  <i_i_glide_confnum>  (167) 
3

>  <i_i_glide_posenum>  (167) 
3

>  <r_i_glide_eff_state_penalty>  (167) 
0

>  <ligand_id>  (167) 
58

>  <original_smiles>  (167) 
C=C1C2(CC2)C(C)C2C(CC13C1=CC(C)=CC4OC4C3C1O)C1CC=C(COC(C)=O)C12

>  <smiles>  (167) 
[H]OC1([H])C2=C([H])C(C([H])([H])[H])=C([H])C3([H])OC3([H])C1([H])C21C(=C([H])[H])C2(C([H])([H])C2([H])[H])C([H])(C([H])([H])[H])C2([H])C3([H])C(C([H])([H])OC(=O)C([H])([H])[H])=C([H])C([H])([H])C3([H])C2([H])C1([H])[H]

$$$$
58:1:2
     RDKit          3D

 66 72  0  0  1  0  0  0  0  0999 V2000
    3.9830   -6.6868    6.5236 C   0  0  0  0  0  0  0  0  0  0  0  0
    2.9761   -5.9832    5.9647 C   0  0  0  0  0  0  0  0  0  0  0  0
    2.6645   -4.5899    6.4692 C   0  0  0  0  0  0  0  0  0  0  0  0
    1.4879   -4.4084    7.4073 C   0  0  0  0  0  0  0  0  0  0  0  0
    2.8882   -4.2681    7.9439 C   0  0  0  0  0  0  0  0  0  0  0  0
    2.9905   -3.4675    5.4923 C   0  0  1  0  0  0  0  0  0  0  0  0
    4.4941   -3.3823    5.1626 C   0  0  0  0  0  0  0  0  0  0  0  0
    2.0114   -3.5141    4.2989 C   0  0  2  0  0  0  0  0  0  0  0  0
    2.0281   -4.6100    3.1760 C   0  0  2  0  0  0  0  0  0  0  0  0
    2.6761   -5.9736    3.4773 C   0  0  0  0  0  0  0  0  0  0  0  0
    2.1391   -6.5595    4.8041 C   0  0  1  0  0  0  0  0  0  0  0  0
    1.9958   -8.0791    4.9162 C   0  0  0  0  0  0  0  0  0  0  0  0
    2.2598   -9.0085    4.0015 C   0  0  0  0  0  0  0  0  0  0  0  0
    1.3398  -10.0758    3.6494 C   0  0  0  0  0  0  0  0  0  0  0  0
    1.7759  -11.5143    3.7756 C   0  0  0  0  0  0  0  0  0  0  0  0
    0.0879   -9.7348    3.2410 C   0  0  0  0  0  0  0  0  0  0  0  0
   -0.5749   -8.3975    3.0440 C   0  0  2  0  0  0  0  0  0  0  0  0
    0.2770   -7.3797    2.5273 O   0  0  0  0  0  0  0  0  0  0  0  0
   -0.3561   -7.0308    3.7710 C   0  0  2  0  0  0  0  0  0  0  0  0
    0.5761   -6.7447    4.9912 C   0  0  1  0  0  0  0  0  0  0  0  0
    0.8618   -7.9191    5.9295 C   0  0  1  0  0  0  0  0  0  0  0  0
   -0.0886   -8.9730    6.0424 O   0  0  0  0  0  0  0  0  0  0  0  0
    2.7960   -3.5601    2.3899 C   0  0  1  0  0  0  0  0  0  0  0  0
    2.8841   -3.0124    0.9820 C   0  0  0  0  0  0  0  0  0  0  0  0
    3.2450   -1.6007    1.4521 C   0  0  0  0  0  0  0  0  0  0  0  0
    2.8306   -1.3633    2.7125 C   0  0  0  0  0  0  0  0  0  0  0  0
    2.9365   -0.0881    3.5262 C   0  0  0  0  0  0  0  0  0  0  0  0
    1.6660    0.5211    3.6977 O   0  0  0  0  0  0  0  0  0  0  0  0
    1.1768    1.3069    2.7252 C   0  0  0  0  0  0  0  0  0  0  0  0
   -0.2252    1.8210    3.0355 C   0  0  0  0  0  0  0  0  0  0  0  0
    1.7620    1.5991    1.6873 O   0  0  0  0  0  0  0  0  0  0  0  0
    1.9736   -2.5221    3.1413 C   0  0  2  0  0  0  0  0  0  0  0  0
    4.2409   -7.6762    6.1746 H   0  0  0  0  0  0  0  0  0  0  0  0
    4.5952   -6.2738    7.3110 H   0  0  0  0  0  0  0  0  0  0  0  0
    0.9030   -3.5002    7.2987 H   0  0  0  0  0  0  0  0  0  0  0  0
    0.9278   -5.2847    7.7105 H   0  0  0  0  0  0  0  0  0  0  0  0
    3.2349   -5.0428    8.6262 H   0  0  0  0  0  0  0  0  0  0  0  0
    3.2273   -3.2617    8.1926 H   0  0  0  0  0  0  0  0  0  0  0  0
    2.7818   -2.5335    6.0152 H   0  0  0  0  0  0  0  0  0  0  0  0
    4.8698   -4.2969    4.7067 H   0  0  0  0  0  0  0  0  0  0  0  0
    5.0705   -3.2145    6.0703 H   0  0  0  0  0  0  0  0  0  0  0  0
    4.7131   -2.5512    4.4912 H   0  0  0  0  0  0  0  0  0  0  0  0
    1.0012   -3.4888    4.6888 H   0  0  0  0  0  0  0  0  0  0  0  0
    1.0151   -4.7148    2.7938 H   0  0  0  0  0  0  0  0  0  0  0  0
    2.5357   -6.6457    2.6337 H   0  0  0  0  0  0  0  0  0  0  0  0
    3.7639   -5.8744    3.5381 H   0  0  0  0  0  0  0  0  0  0  0  0
    3.0012   -8.7859    3.2473 H   0  0  0  0  0  0  0  0  0  0  0  0
    2.2207  -11.6980    4.7558 H   0  0  0  0  0  0  0  0  0  0  0  0
    2.5039  -11.7671    3.0038 H   0  0  0  0  0  0  0  0  0  0  0  0
    0.9399  -12.1975    3.6565 H   0  0  0  0  0  0  0  0  0  0  0  0
   -0.5704  -10.5649    3.0372 H   0  0  0  0  0  0  0  0  0  0  0  0
   -1.4871   -8.5154    2.4760 H   0  0  0  0  0  0  0  0  0  0  0  0
   -1.1270   -6.2899    3.6488 H   0  0  0  0  0  0  0  0  0  0  0  0
    0.1614   -5.9496    5.6142 H   0  0  0  0  0  0  0  0  0  0  0  0
    1.1387   -7.5957    6.9346 H   0  0  0  0  0  0  0  0  0  0  0  0
   -0.0948   -9.4578    5.2272 H   0  0  0  0  0  0  0  0  0  0  0  0
    3.8133   -3.6444    2.7513 H   0  0  0  0  0  0  0  0  0  0  0  0
    3.6663   -3.4871    0.3825 H   0  0  0  0  0  0  0  0  0  0  0  0
    1.9343   -3.0110    0.4470 H   0  0  0  0  0  0  0  0  0  0  0  0
    3.7540   -0.8905    0.8258 H   0  0  0  0  0  0  0  0  0  0  0  0
    3.2979   -0.3562    4.5155 H   0  0  0  0  0  0  0  0  0  0  0  0
    3.6730    0.6060    3.1004 H   0  0  0  0  0  0  0  0  0  0  0  0
   -0.2452    2.3092    4.0089 H   0  0  0  0  0  0  0  0  0  0  0  0
   -0.9397    0.9992    3.0377 H   0  0  0  0  0  0  0  0  0  0  0  0
   -0.5334    2.5425    2.2789 H   0  0  0  0  0  0  0  0  0  0  0  0
    0.9605   -2.4070    2.7503 H   0  0  0  0  0  0  0  0  0  0  0  0
  1  2  2  0
  1 33  1  0
  1 34  1  0
  2 11  1  0
  2  3  1  0
  3  5  1  0
  3  4  1  0
  3  6  1  0
  4  5  1  0
  4 35  1  0
  4 36  1  0
  5 37  1  0
  5 38  1  0
  6  7  1  0
  6  8  1  0
  6 39  1  1
  7 40  1  0
  7 41  1  0
  7 42  1  0
  8 32  1  0
  8  9  1  0
  8 43  1  1
  9 10  1  0
  9 23  1  0
  9 44  1  6
 11 10  1  6
 10 45  1  0
 10 46  1  0
 11 20  1  0
 11 12  1  0
 12 21  1  0
 12 13  2  3
 13 14  1  0
 13 47  1  0
 14 15  1  0
 14 16  2  3
 15 48  1  0
 15 49  1  0
 15 50  1  0
 16 17  1  0
 16 51  1  0
 17 19  1  0
 17 18  1  0
 17 52  1  6
 18 19  1  0
 19 20  1  0
 19 53  1  6
 20 21  1  0
 20 54  1  1
 21 22  1  0
 21 55  1  1
 22 56  1  0
 23 32  1  0
 23 24  1  0
 23 57  1  1
 24 25  1  0
 24 58  1  0
 24 59  1  0
 25 26  2  0
 25 60  1  0
 26 27  1  0
 26 32  1  0
 27 28  1  0
 27 61  1  0
 27 62  1  0
 28 29  1  0
 29 30  1  0
 29 31  2  0
 30 63  1  0
 30 64  1  0
 30 65  1  0
 32 66  1  6
M  END
>  <i_m_ct_stereo_status>  (168) 
1

>  <s_m_source_file>  (168) 
/var/tmp/pbs.5076255.sched01/tmpwzsktf0x/40k9schvjs.sdf

>  <i_m_source_file_index>  (168) 
37

>  <i_lp_mmshare_version>  (168) 
48012

>  <i_f3d_flags>  (168) 
0

>  <s_epik_input>  (168) 
W09IXVtDQEBIXTFbQ0BASF0yW0NAQEhdKE8zKVtDQEBIXTNcW0NIXT1DKFtDSDNdKS9bQ0hdPUMxXFtDQEBdMihDKD1bQ0gyXSlDNDVbQ0gyXVtDSDJdNClbQ0gyXVtDQEhdNltDQEBIXShbQ0BASF01W0NIM10pW0NAQEhdN1tDQEBIXTZbQ0gyXVtDSF09QzdbQ0gyXU9DKD1PKVtDSDNd

>  <s_epik_cmdline>  (168) 
J2VwaWtfcHl0aG9uJywgJy1waHQnLCAnMi4wJywgJy1waCcsICc3LjAnLCAnLXRuJywgJzgnLCAnLW1hJywgJzIwMCcsICctaW1hZScsICc8aW5maWxlLm1hZT4nLCAnLW9tYWUnLCAnPG91dGZpbGUubWFlPic=

>  <r_lp_tautomer_probability>  (168) 
1

>  <r_epik_Ionization_Penalty>  (168) 
3.613e-07

>  <r_epik_Ionization_Penalty_Charging>  (168) 
0

>  <r_epik_Ionization_Penalty_Neutral>  (168) 
3.613e-07

>  <r_epik_State_Penalty>  (168) 
-0

>  <r_epik_Charging_Adjusted_Penalty>  (168) 
0

>  <i_epik_Tot_Q>  (168) 
0

>  <i_epik_Tot_abs_Q>  (168) 
0

>  <s_epik_Chemistry_Notes>  (168) 
This compound has an ester and may undergo hydrolysis at high or low pH.

>  <s_lp_Force_Field>  (168) 
OPLS3e

>  <r_lp_Energy>  (168) 
100.725

>  <b_lp_Chiralities_Consistent>  (168) 
1

>  <s_lp_Variant>  (168) 
58:0-2

>  <s_i_glide_gridfile>  (168) 
pfpi4k_grid

>  <i_i_glide_lignum>  (168) 
37

>  <i_i_glide_rotatable_bonds>  (168) 
4

>  <r_i_docking_score>  (168) 
-1.88178

>  <r_i_glide_ligand_efficiency>  (168) 
-0.0588057

>  <r_i_glide_ligand_efficiency_sa>  (168) 
-0.186697

>  <r_i_glide_ligand_efficiency_ln>  (168) 
-0.421383

>  <r_i_glide_gscore>  (168) 
-1.88178

>  <r_i_glide_lipo>  (168) 
-0.0944501

>  <r_i_glide_hbond>  (168) 
0

>  <r_i_glide_metal>  (168) 
-0

>  <r_i_glide_rewards>  (168) 
-0.446133

>  <r_i_glide_evdw>  (168) 
-28.5113

>  <r_i_glide_ecoul>  (168) 
-0.626614

>  <r_i_glide_erotb>  (168) 
0.210929

>  <r_i_glide_esite>  (168) 
-0.0325754

>  <r_i_glide_emodel>  (168) 
-32.6683

>  <r_i_glide_energy>  (168) 
-29.1379

>  <r_i_glide_einternal>  (168) 
0.333731

>  <r_i_glide_intrahb_reward>  (168) 
-0

>  <i_i_glide_confnum>  (168) 
3

>  <i_i_glide_posenum>  (168) 
34

>  <r_i_glide_eff_state_penalty>  (168) 
0

>  <ligand_id>  (168) 
58

>  <original_smiles>  (168) 
C=C1C2(CC2)C(C)C2C(CC13C1=CC(C)=CC4OC4C3C1O)C1CC=C(COC(C)=O)C12

>  <smiles>  (168) 
[H]OC1([H])C2=C([H])C(C([H])([H])[H])=C([H])C3([H])OC3([H])C1([H])C21C(=C([H])[H])C2(C([H])([H])C2([H])[H])C([H])(C([H])([H])[H])C2([H])C3([H])C(C([H])([H])OC(=O)C([H])([H])[H])=C([H])C([H])([H])C3([H])C2([H])C1([H])[H]

$$$$
58:2:0
     RDKit          3D

 66 72  0  0  1  0  0  0  0  0999 V2000
   -0.8449   -0.7116    5.0468 C   0  0  0  0  0  0  0  0  0  0  0  0
    0.4249   -0.3345    4.7788 C   0  0  0  0  0  0  0  0  0  0  0  0
    1.5237   -1.2025    5.3731 C   0  0  0  0  0  0  0  0  0  0  0  0
    2.4611   -0.5603    6.3738 C   0  0  0  0  0  0  0  0  0  0  0  0
    1.4106   -1.5282    6.8534 C   0  0  0  0  0  0  0  0  0  0  0  0
    2.1322   -2.3000    4.4722 C   0  0  1  0  0  0  0  0  0  0  0  0
    1.0978   -3.3262    3.9716 C   0  0  0  0  0  0  0  0  0  0  0  0
    2.9370   -1.6351    3.3765 C   0  0  2  0  0  0  0  0  0  0  0  0
    2.1738   -0.6821    2.4631 C   0  0  1  0  0  0  0  0  0  0  0  0
    2.0133    0.7295    2.9874 C   0  0  0  0  0  0  0  0  0  0  0  0
    0.8319    0.9563    3.9873 C   0  0  1  0  0  0  0  0  0  0  0  0
   -0.2583    1.8273    3.3305 C   0  0  0  0  0  0  0  0  0  0  0  0
   -1.6133    1.6958    3.2126 C   0  0  0  0  0  0  0  0  0  0  0  0
   -2.6294    2.6889    3.6910 C   0  0  0  0  0  0  0  0  0  0  0  0
   -3.5995    3.3244    2.6093 C   0  0  0  0  0  0  0  0  0  0  0  0
   -2.4922    3.1565    4.9742 C   0  0  0  0  0  0  0  0  0  0  0  0
   -1.6347    2.7706    6.1769 C   0  0  2  0  0  0  0  0  0  0  0  0
   -0.5452    3.6334    6.5547 O   0  0  0  0  0  0  0  0  0  0  0  0
   -0.0883    2.3248    6.1589 C   0  0  2  0  0  0  0  0  0  0  0  0
    0.8601    2.2396    4.9259 C   0  0  2  0  0  0  0  0  0  0  0  0
    0.4542    3.1396    3.7344 C   0  0  1  0  0  0  0  0  0  0  0  0
    1.4705    3.6174    2.8680 O   0  0  0  0  0  0  0  0  0  0  0  0
    3.1766   -1.0376    1.3409 C   0  0  1  0  0  0  0  0  0  0  0  0
    4.5031   -0.3013    1.1512 C   0  0  0  0  0  0  0  0  0  0  0  0
    5.5225   -1.3717    1.4917 C   0  0  0  0  0  0  0  0  0  0  0  0
    4.9480   -2.4656    2.0197 C   0  0  0  0  0  0  0  0  0  0  0  0
    5.5752   -3.7718    2.4767 C   0  0  0  0  0  0  0  0  0  0  0  0
    4.8794   -4.9081    1.9712 O   0  0  0  0  0  0  0  0  0  0  0  0
    5.0103   -5.2633    0.6788 C   0  0  0  0  0  0  0  0  0  0  0  0
    4.2415   -6.5328    0.3413 C   0  0  0  0  0  0  0  0  0  0  0  0
    5.6752   -4.6678   -0.1687 O   0  0  0  0  0  0  0  0  0  0  0  0
    3.4542   -2.3368    2.1081 C   0  0  1  0  0  0  0  0  0  0  0  0
   -1.7215   -0.1690    4.7499 H   0  0  0  0  0  0  0  0  0  0  0  0
   -1.0278   -1.6039    5.6249 H   0  0  0  0  0  0  0  0  0  0  0  0
    3.4956   -0.8971    6.3729 H   0  0  0  0  0  0  0  0  0  0  0  0
    2.3214    0.4934    6.5963 H   0  0  0  0  0  0  0  0  0  0  0  0
    0.5699   -1.1168    7.4085 H   0  0  0  0  0  0  0  0  0  0  0  0
    1.7409   -2.5114    7.1830 H   0  0  0  0  0  0  0  0  0  0  0  0
    2.8451   -2.8778    5.0653 H   0  0  0  0  0  0  0  0  0  0  0  0
    0.3522   -2.8765    3.3183 H   0  0  0  0  0  0  0  0  0  0  0  0
    0.5693   -3.7789    4.8090 H   0  0  0  0  0  0  0  0  0  0  0  0
    1.5718   -4.1400    3.4206 H   0  0  0  0  0  0  0  0  0  0  0  0
    3.7657   -1.0889    3.8433 H   0  0  0  0  0  0  0  0  0  0  0  0
    1.1941   -1.0949    2.2059 H   0  0  0  0  0  0  0  0  0  0  0  0
    2.9353    1.0242    3.4903 H   0  0  0  0  0  0  0  0  0  0  0  0
    1.9557    1.3782    2.1165 H   0  0  0  0  0  0  0  0  0  0  0  0
   -1.7171    2.4850    2.5884 H   0  0  0  0  0  0  0  0  0  0  0  0
   -3.0511    3.6631    1.7110 H   0  0  0  0  0  0  0  0  0  0  0  0
   -4.1347    4.1911    2.9339 H   0  0  0  0  0  0  0  0  0  0  0  0
   -4.2842    2.5615    2.2227 H   0  0  0  0  0  0  0  0  0  0  0  0
   -1.7489    2.5069    4.9974 H   0  0  0  0  0  0  0  0  0  0  0  0
   -2.2098    2.2397    6.9315 H   0  0  0  0  0  0  0  0  0  0  0  0
    0.2228    1.6643    6.9603 H   0  0  0  0  0  0  0  0  0  0  0  0
    1.8894    2.4730    5.2190 H   0  0  0  0  0  0  0  0  0  0  0  0
   -0.1483    4.0007    4.0234 H   0  0  0  0  0  0  0  0  0  0  0  0
    1.0547    3.8956    2.0448 H   0  0  0  0  0  0  0  0  0  0  0  0
    2.7022   -1.2415    0.3772 H   0  0  0  0  0  0  0  0  0  0  0  0
    4.6134    0.0710    0.1335 H   0  0  0  0  0  0  0  0  0  0  0  0
    4.5895    0.5412    1.8348 H   0  0  0  0  0  0  0  0  0  0  0  0
    6.5801   -1.2090    1.3222 H   0  0  0  0  0  0  0  0  0  0  0  0
    6.6246   -3.8318    2.1980 H   0  0  0  0  0  0  0  0  0  0  0  0
    5.5265   -3.8046    3.5665 H   0  0  0  0  0  0  0  0  0  0  0  0
    4.5758   -7.3578    0.9698 H   0  0  0  0  0  0  0  0  0  0  0  0
    4.4027   -6.8091   -0.7020 H   0  0  0  0  0  0  0  0  0  0  0  0
    3.1730   -6.3849    0.4947 H   0  0  0  0  0  0  0  0  0  0  0  0
    2.8992   -3.2101    1.7715 H   0  0  0  0  0  0  0  0  0  0  0  0
  1  2  2  0
  1 33  1  0
  1 34  1  0
  2 11  1  0
  2  3  1  0
  3  5  1  0
  3  4  1  0
  3  6  1  0
  4  5  1  0
  4 35  1  0
  4 36  1  0
  5 37  1  0
  5 38  1  0
  6  7  1  0
  6  8  1  0
  6 39  1  1
  7 40  1  0
  7 41  1  0
  7 42  1  0
  8 32  1  0
  8  9  1  0
  8 43  1  1
  9 10  1  0
  9 23  1  0
  9 44  1  6
 11 10  1  6
 10 45  1  0
 10 46  1  0
 11 20  1  0
 11 12  1  0
 12 21  1  0
 12 13  2  3
 13 14  1  0
 13 47  1  0
 14 15  1  0
 14 16  2  3
 15 48  1  0
 15 49  1  0
 15 50  1  0
 16 17  1  0
 16 51  1  0
 17 19  1  0
 17 18  1  0
 17 52  1  1
 18 19  1  0
 19 20  1  0
 19 53  1  1
 20 21  1  0
 20 54  1  1
 21 22  1  0
 21 55  1  1
 22 56  1  0
 23 32  1  0
 23 24  1  0
 23 57  1  6
 24 25  1  0
 24 58  1  0
 24 59  1  0
 25 26  2  0
 25 60  1  0
 26 27  1  0
 26 32  1  0
 27 28  1  0
 27 61  1  0
 27 62  1  0
 28 29  1  0
 29 30  1  0
 29 31  2  0
 30 63  1  0
 30 64  1  0
 30 65  1  0
 32 66  1  6
M  END
>  <i_m_ct_stereo_status>  (169) 
1

>  <s_m_source_file>  (169) 
/var/tmp/pbs.5076255.sched01/tmpwzsktf0x/40k9schvjs.sdf

>  <i_m_source_file_index>  (169) 
38

>  <i_lp_mmshare_version>  (169) 
48012

>  <i_f3d_flags>  (169) 
3

>  <s_epik_input>  (169) 
W09IXVtDQEBIXTFbQ0BASF0yW0NAQEhdKE8zKVtDQEBIXTNcW0NIXT1DKFtDSDNdKS9bQ0hdPUMxXFtDQEBdMihDKD1bQ0gyXSlDNDVbQ0gyXVtDSDJdNClbQ0gyXVtDQEhdNltDQEBIXShbQ0BASF01W0NIM10pW0NAQEhdN1tDQEBIXTZbQ0gyXVtDSF09QzdbQ0gyXU9DKD1PKVtDSDNd

>  <s_epik_cmdline>  (169) 
J2VwaWtfcHl0aG9uJywgJy1waHQnLCAnMi4wJywgJy1waCcsICc3LjAnLCAnLXRuJywgJzgnLCAnLW1hJywgJzIwMCcsICctaW1hZScsICc8aW5maWxlLm1hZT4nLCAnLW9tYWUnLCAnPG91dGZpbGUubWFlPic=

>  <r_lp_tautomer_probability>  (169) 
1

>  <r_epik_Ionization_Penalty>  (169) 
3.613e-07

>  <r_epik_Ionization_Penalty_Charging>  (169) 
0

>  <r_epik_Ionization_Penalty_Neutral>  (169) 
3.613e-07

>  <r_epik_State_Penalty>  (169) 
-0

>  <r_epik_Charging_Adjusted_Penalty>  (169) 
0

>  <i_epik_Tot_Q>  (169) 
0

>  <i_epik_Tot_abs_Q>  (169) 
0

>  <s_epik_Chemistry_Notes>  (169) 
This compound has an ester and may undergo hydrolysis at high or low pH.

>  <s_lp_Force_Field>  (169) 
OPLS3e

>  <r_lp_Energy>  (169) 
72.4921

>  <b_lp_Chiralities_Consistent>  (169) 
0

>  <s_lp_Variant>  (169) 
58:0-3

>  <s_i_glide_gridfile>  (169) 
pfpi4k_grid

>  <i_i_glide_lignum>  (169) 
38

>  <i_i_glide_rotatable_bonds>  (169) 
4

>  <r_i_docking_score>  (169) 
4.3689

>  <r_i_glide_ligand_efficiency>  (169) 
0.136528

>  <r_i_glide_ligand_efficiency_sa>  (169) 
0.43345

>  <r_i_glide_ligand_efficiency_ln>  (169) 
0.978316

>  <r_i_glide_gscore>  (169) 
4.3689

>  <r_i_glide_lipo>  (169) 
-0.627874

>  <r_i_glide_hbond>  (169) 
-0.16

>  <r_i_glide_metal>  (169) 
-0

>  <r_i_glide_rewards>  (169) 
-0.549307

>  <r_i_glide_evdw>  (169) 
-25.8841

>  <r_i_glide_ecoul>  (169) 
-3.69248

>  <r_i_glide_erotb>  (169) 
0.210929

>  <r_i_glide_esite>  (169) 
0

>  <r_i_glide_emodel>  (169) 
-1.90744

>  <r_i_glide_energy>  (169) 
-29.5766

>  <r_i_glide_einternal>  (169) 
2.02675

>  <r_i_glide_intrahb_reward>  (169) 
-0

>  <i_i_glide_confnum>  (169) 
1

>  <i_i_glide_posenum>  (169) 
7

>  <r_i_glide_eff_state_penalty>  (169) 
0

>  <ligand_id>  (169) 
58

>  <original_smiles>  (169) 
C=C1C2(CC2)C(C)C2C(CC13C1=CC(C)=CC4OC4C3C1O)C1CC=C(COC(C)=O)C12

>  <smiles>  (169) 
[H]OC1([H])C2=C([H])C(C([H])([H])[H])=C([H])C3([H])OC3([H])C1([H])C21C(=C([H])[H])C2(C([H])([H])C2([H])[H])C([H])(C([H])([H])[H])C2([H])C3([H])C(C([H])([H])OC(=O)C([H])([H])[H])=C([H])C([H])([H])C3([H])C2([H])C1([H])[H]

$$$$
58:2:1
     RDKit          3D

 66 72  0  0  1  0  0  0  0  0999 V2000
    3.4162   -7.8508    1.6599 C   0  0  0  0  0  0  0  0  0  0  0  0
    3.5011   -6.6819    2.3417 C   0  0  0  0  0  0  0  0  0  0  0  0
    4.8628   -6.0190    2.3647 C   0  0  0  0  0  0  0  0  0  0  0  0
    5.5413   -5.8483    3.7082 C   0  0  0  0  0  0  0  0  0  0  0  0
    6.0473   -6.8928    2.7471 C   0  0  0  0  0  0  0  0  0  0  0  0
    5.1265   -4.9182    1.3201 C   0  0  1  0  0  0  0  0  0  0  0  0
    5.0074   -5.3997   -0.1358 C   0  0  0  0  0  0  0  0  0  0  0  0
    4.2913   -3.7059    1.6520 C   0  0  2  0  0  0  0  0  0  0  0  0
    2.7872   -3.9255    1.6835 C   0  0  1  0  0  0  0  0  0  0  0  0
    2.2371   -4.4809    2.9795 C   0  0  0  0  0  0  0  0  0  0  0  0
    2.3304   -6.0372    3.1526 C   0  0  1  0  0  0  0  0  0  0  0  0
    0.9206   -6.6503    3.0973 C   0  0  0  0  0  0  0  0  0  0  0  0
    0.3577   -7.6887    2.3843 C   0  0  0  0  0  0  0  0  0  0  0  0
   -0.2683   -8.8999    2.9949 C   0  0  0  0  0  0  0  0  0  0  0  0
   -1.7824   -9.1675    2.6271 C   0  0  0  0  0  0  0  0  0  0  0  0
    0.3926   -9.5410    4.0245 C   0  0  0  0  0  0  0  0  0  0  0  0
    1.7932   -9.4565    4.6413 C   0  0  2  0  0  0  0  0  0  0  0  0
    1.9611   -8.8301    5.9248 O   0  0  0  0  0  0  0  0  0  0  0  0
    2.6485   -8.1261    4.8817 C   0  0  2  0  0  0  0  0  0  0  0  0
    2.2197   -6.6460    4.6169 C   0  0  2  0  0  0  0  0  0  0  0  0
    0.6903   -6.4117    4.6051 C   0  0  1  0  0  0  0  0  0  0  0  0
    0.1723   -5.1415    4.9941 O   0  0  0  0  0  0  0  0  0  0  0  0
    2.6191   -2.4445    1.2804 C   0  0  1  0  0  0  0  0  0  0  0  0
    2.5624   -1.3050    2.2979 C   0  0  0  0  0  0  0  0  0  0  0  0
    3.8466   -0.5499    2.0075 C   0  0  0  0  0  0  0  0  0  0  0  0
    4.6462   -1.2128    1.1550 C   0  0  0  0  0  0  0  0  0  0  0  0
    6.0035   -0.8345    0.5937 C   0  0  0  0  0  0  0  0  0  0  0  0
    6.9589   -1.8670    0.8320 O   0  0  0  0  0  0  0  0  0  0  0  0
    7.5606   -2.5081   -0.1928 C   0  0  0  0  0  0  0  0  0  0  0  0
    8.5097   -3.6063    0.2702 C   0  0  0  0  0  0  0  0  0  0  0  0
    7.4124   -2.2565   -1.3883 O   0  0  0  0  0  0  0  0  0  0  0  0
    4.0416   -2.5136    0.7088 C   0  0  1  0  0  0  0  0  0  0  0  0
    2.5420   -8.4660    1.6026 H   0  0  0  0  0  0  0  0  0  0  0  0
    4.2840   -8.2373    1.1510 H   0  0  0  0  0  0  0  0  0  0  0  0
    6.1506   -4.9588    3.8521 H   0  0  0  0  0  0  0  0  0  0  0  0
    5.0066   -6.1863    4.5909 H   0  0  0  0  0  0  0  0  0  0  0  0
    5.8558   -7.9350    2.9974 H   0  0  0  0  0  0  0  0  0  0  0  0
    6.9993   -6.7088    2.2534 H   0  0  0  0  0  0  0  0  0  0  0  0
    6.1524   -4.6008    1.4424 H   0  0  0  0  0  0  0  0  0  0  0  0
    3.9925   -5.7041   -0.3818 H   0  0  0  0  0  0  0  0  0  0  0  0
    5.6548   -6.2557   -0.3131 H   0  0  0  0  0  0  0  0  0  0  0  0
    5.3038   -4.6292   -0.8497 H   0  0  0  0  0  0  0  0  0  0  0  0
    4.6137   -3.3230    2.6267 H   0  0  0  0  0  0  0  0  0  0  0  0
    2.4783   -4.5537    0.8446 H   0  0  0  0  0  0  0  0  0  0  0  0
    2.7708   -4.0174    3.8096 H   0  0  0  0  0  0  0  0  0  0  0  0
    1.2186   -4.1087    3.0582 H   0  0  0  0  0  0  0  0  0  0  0  0
   -0.5729   -7.4540    2.6911 H   0  0  0  0  0  0  0  0  0  0  0  0
   -2.4065   -8.2587    2.7026 H   0  0  0  0  0  0  0  0  0  0  0  0
   -2.2703   -9.8756    3.2783 H   0  0  0  0  0  0  0  0  0  0  0  0
   -1.8628   -9.4618    1.5817 H   0  0  0  0  0  0  0  0  0  0  0  0
    1.0894   -8.8723    3.8110 H   0  0  0  0  0  0  0  0  0  0  0  0
    2.4126  -10.3003    4.3415 H   0  0  0  0  0  0  0  0  0  0  0  0
    3.7295   -8.2436    4.8562 H   0  0  0  0  0  0  0  0  0  0  0  0
    2.6820   -5.9739    5.3458 H   0  0  0  0  0  0  0  0  0  0  0  0
    0.1430   -7.1516    5.1853 H   0  0  0  0  0  0  0  0  0  0  0  0
    0.5929   -4.4677    4.4882 H   0  0  0  0  0  0  0  0  0  0  0  0
    1.8895   -2.2962    0.4833 H   0  0  0  0  0  0  0  0  0  0  0  0
    1.6752   -0.6872    2.1586 H   0  0  0  0  0  0  0  0  0  0  0  0
    2.5615   -1.6829    3.3195 H   0  0  0  0  0  0  0  0  0  0  0  0
    4.0445    0.4060    2.4779 H   0  0  0  0  0  0  0  0  0  0  0  0
    5.8915   -0.6537   -0.4764 H   0  0  0  0  0  0  0  0  0  0  0  0
    6.3486    0.0996    1.0264 H   0  0  0  0  0  0  0  0  0  0  0  0
    9.2680   -3.1989    0.9357 H   0  0  0  0  0  0  0  0  0  0  0  0
    8.9949   -4.0815   -0.5809 H   0  0  0  0  0  0  0  0  0  0  0  0
    7.9800   -4.3813    0.8111 H   0  0  0  0  0  0  0  0  0  0  0  0
    4.1188   -2.7056   -0.3594 H   0  0  0  0  0  0  0  0  0  0  0  0
  1  2  2  0
  1 33  1  0
  1 34  1  0
  2 11  1  0
  2  3  1  0
  3  5  1  0
  3  4  1  0
  3  6  1  0
  4  5  1  0
  4 35  1  0
  4 36  1  0
  5 37  1  0
  5 38  1  0
  6  7  1  0
  6  8  1  0
  6 39  1  6
  7 40  1  0
  7 41  1  0
  7 42  1  0
  8 32  1  0
  8  9  1  0
  8 43  1  1
  9 10  1  0
  9 23  1  0
  9 44  1  6
 11 10  1  1
 10 45  1  0
 10 46  1  0
 11 20  1  0
 11 12  1  0
 12 21  1  0
 12 13  2  3
 13 14  1  0
 13 47  1  0
 14 15  1  0
 14 16  2  3
 15 48  1  0
 15 49  1  0
 15 50  1  0
 16 17  1  0
 16 51  1  0
 17 19  1  0
 17 18  1  0
 17 52  1  1
 18 19  1  0
 19 20  1  0
 19 53  1  1
 20 21  1  0
 20 54  1  1
 21 22  1  0
 21 55  1  1
 22 56  1  0
 23 32  1  0
 23 24  1  0
 23 57  1  6
 24 25  1  0
 24 58  1  0
 24 59  1  0
 25 26  2  0
 25 60  1  0
 26 27  1  0
 26 32  1  0
 27 28  1  0
 27 61  1  0
 27 62  1  0
 28 29  1  0
 29 30  1  0
 29 31  2  0
 30 63  1  0
 30 64  1  0
 30 65  1  0
 32 66  1  6
M  END
>  <i_m_ct_stereo_status>  (170) 
1

>  <s_m_source_file>  (170) 
/var/tmp/pbs.5076255.sched01/tmpwzsktf0x/40k9schvjs.sdf

>  <i_m_source_file_index>  (170) 
38

>  <i_lp_mmshare_version>  (170) 
48012

>  <i_f3d_flags>  (170) 
3

>  <s_epik_input>  (170) 
W09IXVtDQEBIXTFbQ0BASF0yW0NAQEhdKE8zKVtDQEBIXTNcW0NIXT1DKFtDSDNdKS9bQ0hdPUMxXFtDQEBdMihDKD1bQ0gyXSlDNDVbQ0gyXVtDSDJdNClbQ0gyXVtDQEhdNltDQEBIXShbQ0BASF01W0NIM10pW0NAQEhdN1tDQEBIXTZbQ0gyXVtDSF09QzdbQ0gyXU9DKD1PKVtDSDNd

>  <s_epik_cmdline>  (170) 
J2VwaWtfcHl0aG9uJywgJy1waHQnLCAnMi4wJywgJy1waCcsICc3LjAnLCAnLXRuJywgJzgnLCAnLW1hJywgJzIwMCcsICctaW1hZScsICc8aW5maWxlLm1hZT4nLCAnLW9tYWUnLCAnPG91dGZpbGUubWFlPic=

>  <r_lp_tautomer_probability>  (170) 
1

>  <r_epik_Ionization_Penalty>  (170) 
3.613e-07

>  <r_epik_Ionization_Penalty_Charging>  (170) 
0

>  <r_epik_Ionization_Penalty_Neutral>  (170) 
3.613e-07

>  <r_epik_State_Penalty>  (170) 
-0

>  <r_epik_Charging_Adjusted_Penalty>  (170) 
0

>  <i_epik_Tot_Q>  (170) 
0

>  <i_epik_Tot_abs_Q>  (170) 
0

>  <s_epik_Chemistry_Notes>  (170) 
This compound has an ester and may undergo hydrolysis at high or low pH.

>  <s_lp_Force_Field>  (170) 
OPLS3e

>  <r_lp_Energy>  (170) 
72.4921

>  <b_lp_Chiralities_Consistent>  (170) 
0

>  <s_lp_Variant>  (170) 
58:0-3

>  <s_i_glide_gridfile>  (170) 
pfpi4k_grid

>  <i_i_glide_lignum>  (170) 
38

>  <i_i_glide_rotatable_bonds>  (170) 
4

>  <r_i_docking_score>  (170) 
4.48248

>  <r_i_glide_ligand_efficiency>  (170) 
0.140077

>  <r_i_glide_ligand_efficiency_sa>  (170) 
0.444718

>  <r_i_glide_ligand_efficiency_ln>  (170) 
1.00375

>  <r_i_glide_gscore>  (170) 
4.48248

>  <r_i_glide_lipo>  (170) 
-0.572324

>  <r_i_glide_hbond>  (170) 
-0.16

>  <r_i_glide_metal>  (170) 
-0

>  <r_i_glide_rewards>  (170) 
-0.454182

>  <r_i_glide_evdw>  (170) 
-32.1202

>  <r_i_glide_ecoul>  (170) 
-2.63918

>  <r_i_glide_erotb>  (170) 
0.210929

>  <r_i_glide_esite>  (170) 
0

>  <r_i_glide_emodel>  (170) 
-7.26002

>  <r_i_glide_energy>  (170) 
-34.7594

>  <r_i_glide_einternal>  (170) 
0.76766

>  <r_i_glide_intrahb_reward>  (170) 
-0

>  <i_i_glide_confnum>  (170) 
1

>  <i_i_glide_posenum>  (170) 
22

>  <r_i_glide_eff_state_penalty>  (170) 
0

>  <ligand_id>  (170) 
58

>  <original_smiles>  (170) 
C=C1C2(CC2)C(C)C2C(CC13C1=CC(C)=CC4OC4C3C1O)C1CC=C(COC(C)=O)C12

>  <smiles>  (170) 
[H]OC1([H])C2=C([H])C(C([H])([H])[H])=C([H])C3([H])OC3([H])C1([H])C21C(=C([H])[H])C2(C([H])([H])C2([H])[H])C([H])(C([H])([H])[H])C2([H])C3([H])C(C([H])([H])OC(=O)C([H])([H])[H])=C([H])C([H])([H])C3([H])C2([H])C1([H])[H]

$$$$
58:2:2
     RDKit          3D

 66 72  0  0  1  0  0  0  0  0999 V2000
    2.3929   -5.8223    1.1137 C   0  0  0  0  0  0  0  0  0  0  0  0
    2.6632   -5.2604    2.3420 C   0  0  0  0  0  0  0  0  0  0  0  0
    3.8352   -4.3110    2.3898 C   0  0  0  0  0  0  0  0  0  0  0  0
    5.0076   -4.6855    3.2733 C   0  0  0  0  0  0  0  0  0  0  0  0
    5.1425   -4.7863    1.7769 C   0  0  0  0  0  0  0  0  0  0  0  0
    3.5337   -2.7962    2.2681 C   0  0  1  0  0  0  0  0  0  0  0  0
    2.8328   -2.4198    0.9516 C   0  0  0  0  0  0  0  0  0  0  0  0
    2.8083   -2.3438    3.5185 C   0  0  2  0  0  0  0  0  0  0  0  0
    1.4855   -3.0431    3.8178 C   0  0  1  0  0  0  0  0  0  0  0  0
    1.6017   -4.3628    4.5523 C   0  0  0  0  0  0  0  0  0  0  0  0
    1.8968   -5.6232    3.6500 C   0  0  1  0  0  0  0  0  0  0  0  0
    0.6817   -6.5348    3.6346 C   0  0  0  0  0  0  0  0  0  0  0  0
   -0.0338   -7.1514    2.5807 C   0  0  0  0  0  0  0  0  0  0  0  0
   -0.2380   -8.6096    2.4605 C   0  0  0  0  0  0  0  0  0  0  0  0
   -1.7371   -9.1422    2.4472 C   0  0  0  0  0  0  0  0  0  0  0  0
    0.8369   -9.4441    2.5957 C   0  0  0  0  0  0  0  0  0  0  0  0
    2.3808   -9.2130    2.7043 C   0  0  2  0  0  0  0  0  0  0  0  0
    3.0134   -9.3845    3.9470 O   0  0  0  0  0  0  0  0  0  0  0  0
    3.1089   -8.0703    3.4740 C   0  0  2  0  0  0  0  0  0  0  0  0
    2.4919   -6.9117    4.3542 C   0  0  2  0  0  0  0  0  0  0  0  0
    1.0912   -7.2696    4.9153 C   0  0  1  0  0  0  0  0  0  0  0  0
    0.6982   -6.6761    6.1578 O   0  0  0  0  0  0  0  0  0  0  0  0
    1.0221   -1.7452    4.5216 C   0  0  1  0  0  0  0  0  0  0  0  0
    1.3115   -1.4558    5.9955 C   0  0  0  0  0  0  0  0  0  0  0  0
    2.2701   -0.2844    5.9147 C   0  0  0  0  0  0  0  0  0  0  0  0
    2.6777   -0.0421    4.6596 C   0  0  0  0  0  0  0  0  0  0  0  0
    3.6229    1.0165    4.1261 C   0  0  0  0  0  0  0  0  0  0  0  0
    2.9195    2.0676    3.4738 O   0  0  0  0  0  0  0  0  0  0  0  0
    2.6134    3.1941    4.1433 C   0  0  0  0  0  0  0  0  0  0  0  0
    1.8896    4.2179    3.2790 C   0  0  0  0  0  0  0  0  0  0  0  0
    2.8717    3.4246    5.3249 O   0  0  0  0  0  0  0  0  0  0  0  0
    2.0644   -1.0012    3.6720 C   0  0  1  0  0  0  0  0  0  0  0  0
    1.6465   -6.5571    0.9367 H   0  0  0  0  0  0  0  0  0  0  0  0
    2.9920   -5.5404    0.2677 H   0  0  0  0  0  0  0  0  0  0  0  0
    5.5341   -3.8767    3.7743 H   0  0  0  0  0  0  0  0  0  0  0  0
    4.9372   -5.6095    3.8411 H   0  0  0  0  0  0  0  0  0  0  0  0
    5.1703   -5.7863    1.3432 H   0  0  0  0  0  0  0  0  0  0  0  0
    5.7656   -4.0519    1.2723 H   0  0  0  0  0  0  0  0  0  0  0  0
    4.4814   -2.2552    2.2520 H   0  0  0  0  0  0  0  0  0  0  0  0
    1.8414   -2.8590    0.8667 H   0  0  0  0  0  0  0  0  0  0  0  0
    3.4112   -2.7559    0.0926 H   0  0  0  0  0  0  0  0  0  0  0  0
    2.7160   -1.3390    0.8487 H   0  0  0  0  0  0  0  0  0  0  0  0
    3.4822   -2.4814    4.3713 H   0  0  0  0  0  0  0  0  0  0  0  0
    0.9051   -3.1761    2.9027 H   0  0  0  0  0  0  0  0  0  0  0  0
    2.3974   -4.2867    5.2911 H   0  0  0  0  0  0  0  0  0  0  0  0
    0.6921   -4.4776    5.1336 H   0  0  0  0  0  0  0  0  0  0  0  0
   -0.7502   -7.4948    3.1939 H   0  0  0  0  0  0  0  0  0  0  0  0
   -2.3456   -8.6840    3.2544 H   0  0  0  0  0  0  0  0  0  0  0  0
   -1.8004  -10.2208    2.5812 H   0  0  0  0  0  0  0  0  0  0  0  0
   -2.2262   -8.8108    1.5295 H   0  0  0  0  0  0  0  0  0  0  0  0
    1.3396   -8.5773    2.6750 H   0  0  0  0  0  0  0  0  0  0  0  0
    2.8667   -9.4964    1.7568 H   0  0  0  0  0  0  0  0  0  0  0  0
    4.0969   -7.7541    3.0752 H   0  0  0  0  0  0  0  0  0  0  0  0
    3.1609   -6.6515    5.1663 H   0  0  0  0  0  0  0  0  0  0  0  0
    0.9140   -8.3330    5.0197 H   0  0  0  0  0  0  0  0  0  0  0  0
    1.1116   -7.1899    6.8398 H   0  0  0  0  0  0  0  0  0  0  0  0
    0.0060   -1.4402    4.2541 H   0  0  0  0  0  0  0  0  0  0  0  0
    0.4014   -1.2120    6.5417 H   0  0  0  0  0  0  0  0  0  0  0  0
    1.7862   -2.3061    6.4855 H   0  0  0  0  0  0  0  0  0  0  0  0
    2.5670    0.2576    6.8072 H   0  0  0  0  0  0  0  0  0  0  0  0
    4.2652    1.4096    4.9141 H   0  0  0  0  0  0  0  0  0  0  0  0
    4.2800    0.5403    3.3943 H   0  0  0  0  0  0  0  0  0  0  0  0
    2.4969    4.4861    2.4158 H   0  0  0  0  0  0  0  0  0  0  0  0
    1.6807    5.1249    3.8486 H   0  0  0  0  0  0  0  0  0  0  0  0
    0.9439    3.8107    2.9222 H   0  0  0  0  0  0  0  0  0  0  0  0
    1.6949   -0.5375    2.7620 H   0  0  0  0  0  0  0  0  0  0  0  0
  1  2  2  0
  1 33  1  0
  1 34  1  0
  2 11  1  0
  2  3  1  0
  3  5  1  0
  3  4  1  0
  3  6  1  0
  4  5  1  0
  4 35  1  0
  4 36  1  0
  5 37  1  0
  5 38  1  0
  6  7  1  0
  6  8  1  0
  6 39  1  6
  7 40  1  0
  7 41  1  0
  7 42  1  0
  8 32  1  0
  8  9  1  0
  8 43  1  1
  9 10  1  0
  9 23  1  0
  9 44  1  6
 11 10  1  1
 10 45  1  0
 10 46  1  0
 11 20  1  0
 11 12  1  0
 12 21  1  0
 12 13  2  3
 13 14  1  0
 13 47  1  0
 14 15  1  0
 14 16  2  3
 15 48  1  0
 15 49  1  0
 15 50  1  0
 16 17  1  0
 16 51  1  0
 17 19  1  0
 17 18  1  0
 17 52  1  6
 18 19  1  0
 19 20  1  0
 19 53  1  6
 20 21  1  0
 20 54  1  1
 21 22  1  0
 21 55  1  6
 22 56  1  0
 23 32  1  0
 23 24  1  0
 23 57  1  6
 24 25  1  0
 24 58  1  0
 24 59  1  0
 25 26  2  0
 25 60  1  0
 26 27  1  0
 26 32  1  0
 27 28  1  0
 27 61  1  0
 27 62  1  0
 28 29  1  0
 29 30  1  0
 29 31  2  0
 30 63  1  0
 30 64  1  0
 30 65  1  0
 32 66  1  6
M  END
>  <i_m_ct_stereo_status>  (171) 
1

>  <s_m_source_file>  (171) 
/var/tmp/pbs.5076255.sched01/tmpwzsktf0x/40k9schvjs.sdf

>  <i_m_source_file_index>  (171) 
38

>  <i_lp_mmshare_version>  (171) 
48012

>  <i_f3d_flags>  (171) 
3

>  <s_epik_input>  (171) 
W09IXVtDQEBIXTFbQ0BASF0yW0NAQEhdKE8zKVtDQEBIXTNcW0NIXT1DKFtDSDNdKS9bQ0hdPUMxXFtDQEBdMihDKD1bQ0gyXSlDNDVbQ0gyXVtDSDJdNClbQ0gyXVtDQEhdNltDQEBIXShbQ0BASF01W0NIM10pW0NAQEhdN1tDQEBIXTZbQ0gyXVtDSF09QzdbQ0gyXU9DKD1PKVtDSDNd

>  <s_epik_cmdline>  (171) 
J2VwaWtfcHl0aG9uJywgJy1waHQnLCAnMi4wJywgJy1waCcsICc3LjAnLCAnLXRuJywgJzgnLCAnLW1hJywgJzIwMCcsICctaW1hZScsICc8aW5maWxlLm1hZT4nLCAnLW9tYWUnLCAnPG91dGZpbGUubWFlPic=

>  <r_lp_tautomer_probability>  (171) 
1

>  <r_epik_Ionization_Penalty>  (171) 
3.613e-07

>  <r_epik_Ionization_Penalty_Charging>  (171) 
0

>  <r_epik_Ionization_Penalty_Neutral>  (171) 
3.613e-07

>  <r_epik_State_Penalty>  (171) 
-0

>  <r_epik_Charging_Adjusted_Penalty>  (171) 
0

>  <i_epik_Tot_Q>  (171) 
0

>  <i_epik_Tot_abs_Q>  (171) 
0

>  <s_epik_Chemistry_Notes>  (171) 
This compound has an ester and may undergo hydrolysis at high or low pH.

>  <s_lp_Force_Field>  (171) 
OPLS3e

>  <r_lp_Energy>  (171) 
72.4921

>  <b_lp_Chiralities_Consistent>  (171) 
0

>  <s_lp_Variant>  (171) 
58:0-3

>  <s_i_glide_gridfile>  (171) 
pfpi4k_grid

>  <i_i_glide_lignum>  (171) 
38

>  <i_i_glide_rotatable_bonds>  (171) 
4

>  <r_i_docking_score>  (171) 
4.75874

>  <r_i_glide_ligand_efficiency>  (171) 
0.148711

>  <r_i_glide_ligand_efficiency_sa>  (171) 
0.472127

>  <r_i_glide_ligand_efficiency_ln>  (171) 
1.06561

>  <r_i_glide_gscore>  (171) 
4.75874

>  <r_i_glide_lipo>  (171) 
-0.363657

>  <r_i_glide_hbond>  (171) 
0

>  <r_i_glide_metal>  (171) 
-0

>  <r_i_glide_rewards>  (171) 
-0.446133

>  <r_i_glide_evdw>  (171) 
-27.6298

>  <r_i_glide_ecoul>  (171) 
-0.22958

>  <r_i_glide_erotb>  (171) 
0.210929

>  <r_i_glide_esite>  (171) 
-0.0147454

>  <r_i_glide_emodel>  (171) 
-0.946215

>  <r_i_glide_energy>  (171) 
-27.8594

>  <r_i_glide_einternal>  (171) 
0.687134

>  <r_i_glide_intrahb_reward>  (171) 
-0

>  <i_i_glide_confnum>  (171) 
1

>  <i_i_glide_posenum>  (171) 
8

>  <r_i_glide_eff_state_penalty>  (171) 
0

>  <ligand_id>  (171) 
58

>  <original_smiles>  (171) 
C=C1C2(CC2)C(C)C2C(CC13C1=CC(C)=CC4OC4C3C1O)C1CC=C(COC(C)=O)C12

>  <smiles>  (171) 
[H]OC1([H])C2=C([H])C(C([H])([H])[H])=C([H])C3([H])OC3([H])C1([H])C21C(=C([H])[H])C2(C([H])([H])C2([H])[H])C([H])(C([H])([H])[H])C2([H])C3([H])C(C([H])([H])OC(=O)C([H])([H])[H])=C([H])C([H])([H])C3([H])C2([H])C1([H])[H]

$$$$
58:3:0
     RDKit          3D

 66 72  0  0  1  0  0  0  0  0999 V2000
    1.6095   -6.5735    7.5280 C   0  0  0  0  0  0  0  0  0  0  0  0
    0.9878   -5.8745    6.5546 C   0  0  0  0  0  0  0  0  0  0  0  0
    0.1153   -4.7030    6.9261 C   0  0  0  0  0  0  0  0  0  0  0  0
   -0.6958   -4.7767    8.2179 C   0  0  0  0  0  0  0  0  0  0  0  0
   -1.3862   -4.8714    6.8834 C   0  0  0  0  0  0  0  0  0  0  0  0
    0.6871   -3.3349    6.5693 C   0  0  1  0  0  0  0  0  0  0  0  0
    2.0174   -3.0585    7.2985 C   0  0  0  0  0  0  0  0  0  0  0  0
    0.6553   -3.1465    5.0433 C   0  0  2  0  0  0  0  0  0  0  0  0
    1.5958   -3.9099    4.0453 C   0  0  2  0  0  0  0  0  0  0  0  0
    2.2236   -5.2503    4.4644 C   0  0  0  0  0  0  0  0  0  0  0  0
    1.1907   -6.2266    5.0542 C   0  0  1  0  0  0  0  0  0  0  0  0
    1.4244   -7.7413    4.9247 C   0  0  0  0  0  0  0  0  0  0  0  0
    2.4646   -8.3707    4.3400 C   0  0  0  0  0  0  0  0  0  0  0  0
    2.3024   -8.9708    3.0330 C   0  0  0  0  0  0  0  0  0  0  0  0
    1.6837  -10.3490    2.8705 C   0  0  0  0  0  0  0  0  0  0  0  0
    2.2024   -8.0243    2.0828 C   0  0  0  0  0  0  0  0  0  0  0  0
    0.8905   -7.4617    1.6701 C   0  0  2  0  0  0  0  0  0  0  0  0
    0.8146   -6.0274    1.8089 O   0  0  0  0  0  0  0  0  0  0  0  0
   -0.1065   -6.7630    2.6148 C   0  0  2  0  0  0  0  0  0  0  0  0
   -0.0700   -6.6152    4.1729 C   0  0  1  0  0  0  0  0  0  0  0  0
   -0.0962   -7.9711    4.8827 C   0  0  1  0  0  0  0  0  0  0  0  0
   -0.5745   -9.0564    4.1226 O   0  0  0  0  0  0  0  0  0  0  0  0
    2.4328   -2.6362    4.1088 C   0  0  1  0  0  0  0  0  0  0  0  0
    3.2077   -1.7350    3.1835 C   0  0  0  0  0  0  0  0  0  0  0  0
    2.8810   -0.4610    3.9793 C   0  0  0  0  0  0  0  0  0  0  0  0
    1.7461   -0.5991    4.6949 C   0  0  0  0  0  0  0  0  0  0  0  0
    1.0376    0.3887    5.6019 C   0  0  0  0  0  0  0  0  0  0  0  0
    0.1526    1.2167    4.8581 O   0  0  0  0  0  0  0  0  0  0  0  0
   -1.1780    1.1799    5.0593 C   0  0  0  0  0  0  0  0  0  0  0  0
   -1.9151    2.1705    4.1650 C   0  0  0  0  0  0  0  0  0  0  0  0
   -1.7787    0.4621    5.8643 O   0  0  0  0  0  0  0  0  0  0  0  0
    1.1144   -1.8974    4.2928 C   0  0  2  0  0  0  0  0  0  0  0  0
    2.2688   -7.4034    7.3086 H   0  0  0  0  0  0  0  0  0  0  0  0
    1.5078   -6.3027    8.5662 H   0  0  0  0  0  0  0  0  0  0  0  0
   -0.6530   -5.6815    8.8180 H   0  0  0  0  0  0  0  0  0  0  0  0
   -0.8263   -3.8567    8.7833 H   0  0  0  0  0  0  0  0  0  0  0  0
   -1.9828   -4.0192    6.5671 H   0  0  0  0  0  0  0  0  0  0  0  0
   -1.7722   -5.8382    6.5815 H   0  0  0  0  0  0  0  0  0  0  0  0
   -0.0031   -2.5951    6.9777 H   0  0  0  0  0  0  0  0  0  0  0  0
    2.7872   -3.7875    7.0468 H   0  0  0  0  0  0  0  0  0  0  0  0
    1.8769   -3.1029    8.3791 H   0  0  0  0  0  0  0  0  0  0  0  0
    2.4027   -2.0659    7.0703 H   0  0  0  0  0  0  0  0  0  0  0  0
   -0.3678   -3.3074    4.7084 H   0  0  0  0  0  0  0  0  0  0  0  0
    1.1032   -3.9817    3.0727 H   0  0  0  0  0  0  0  0  0  0  0  0
    2.7423   -5.6663    3.6126 H   0  0  0  0  0  0  0  0  0  0  0  0
    3.0202   -5.0921    5.1929 H   0  0  0  0  0  0  0  0  0  0  0  0
    3.4222   -7.8887    4.4528 H   0  0  0  0  0  0  0  0  0  0  0  0
    1.2493  -10.7120    3.7989 H   0  0  0  0  0  0  0  0  0  0  0  0
    2.4416  -11.0691    2.5680 H   0  0  0  0  0  0  0  0  0  0  0  0
    0.9114  -10.3312    2.0994 H   0  0  0  0  0  0  0  0  0  0  0  0
    2.8366   -7.1706    2.2570 H   0  0  0  0  0  0  0  0  0  0  0  0
    0.5329   -7.8476    0.7199 H   0  0  0  0  0  0  0  0  0  0  0  0
   -1.1184   -6.7534    2.2234 H   0  0  0  0  0  0  0  0  0  0  0  0
   -0.9051   -5.9860    4.4913 H   0  0  0  0  0  0  0  0  0  0  0  0
   -0.5803   -7.9474    5.8547 H   0  0  0  0  0  0  0  0  0  0  0  0
   -1.1210   -9.6233    4.6646 H   0  0  0  0  0  0  0  0  0  0  0  0
    3.0285   -2.7282    5.0211 H   0  0  0  0  0  0  0  0  0  0  0  0
    4.2717   -1.9703    3.1562 H   0  0  0  0  0  0  0  0  0  0  0  0
    2.7986   -1.6962    2.1698 H   0  0  0  0  0  0  0  0  0  0  0  0
    3.5124    0.4133    3.9554 H   0  0  0  0  0  0  0  0  0  0  0  0
    0.5211   -0.1783    6.3790 H   0  0  0  0  0  0  0  0  0  0  0  0
    1.7630    1.0234    6.1118 H   0  0  0  0  0  0  0  0  0  0  0  0
   -1.5190    3.1767    4.3023 H   0  0  0  0  0  0  0  0  0  0  0  0
   -2.9802    2.1854    4.3966 H   0  0  0  0  0  0  0  0  0  0  0  0
   -1.7998    1.8948    3.1161 H   0  0  0  0  0  0  0  0  0  0  0  0
    0.5545   -1.7601    3.3607 H   0  0  0  0  0  0  0  0  0  0  0  0
  1  2  2  0
  1 33  1  0
  1 34  1  0
  2 11  1  0
  2  3  1  0
  3  5  1  0
  3  4  1  0
  3  6  1  0
  4  5  1  0
  4 35  1  0
  4 36  1  0
  5 37  1  0
  5 38  1  0
  6  7  1  0
  6  8  1  0
  6 39  1  1
  7 40  1  0
  7 41  1  0
  7 42  1  0
  8 32  1  0
  8  9  1  0
  8 43  1  6
  9 10  1  0
  9 23  1  0
  9 44  1  6
 11 10  1  6
 10 45  1  0
 10 46  1  0
 11 20  1  0
 11 12  1  0
 12 21  1  0
 12 13  2  3
 13 14  1  0
 13 47  1  0
 14 15  1  0
 14 16  2  3
 15 48  1  0
 15 49  1  0
 15 50  1  0
 16 17  1  0
 16 51  1  0
 17 19  1  0
 17 18  1  0
 17 52  1  6
 18 19  1  0
 19 20  1  0
 19 53  1  6
 20 21  1  0
 20 54  1  1
 21 22  1  0
 21 55  1  1
 22 56  1  0
 23 32  1  0
 23 24  1  0
 23 57  1  1
 24 25  1  0
 24 58  1  0
 24 59  1  0
 25 26  2  0
 25 60  1  0
 26 27  1  0
 26 32  1  0
 27 28  1  0
 27 61  1  0
 27 62  1  0
 28 29  1  0
 29 30  1  0
 29 31  2  0
 30 63  1  0
 30 64  1  0
 30 65  1  0
 32 66  1  6
M  END
>  <i_m_ct_stereo_status>  (172) 
1

>  <s_m_source_file>  (172) 
/var/tmp/pbs.5076255.sched01/tmpwzsktf0x/40k9schvjs.sdf

>  <i_m_source_file_index>  (172) 
39

>  <i_lp_mmshare_version>  (172) 
48012

>  <i_f3d_flags>  (172) 
0

>  <s_epik_input>  (172) 
W09IXVtDQEBIXTFbQ0BASF0yW0NAQEhdKE8zKVtDQEBIXTNcW0NIXT1DKFtDSDNdKS9bQ0hdPUMxXFtDQEBdMihDKD1bQ0gyXSlDNDVbQ0gyXVtDSDJdNClbQ0gyXVtDQEhdNltDQEBIXShbQ0BASF01W0NIM10pW0NAQEhdN1tDQEBIXTZbQ0gyXVtDSF09QzdbQ0gyXU9DKD1PKVtDSDNd

>  <s_epik_cmdline>  (172) 
J2VwaWtfcHl0aG9uJywgJy1waHQnLCAnMi4wJywgJy1waCcsICc3LjAnLCAnLXRuJywgJzgnLCAnLW1hJywgJzIwMCcsICctaW1hZScsICc8aW5maWxlLm1hZT4nLCAnLW9tYWUnLCAnPG91dGZpbGUubWFlPic=

>  <r_lp_tautomer_probability>  (172) 
1

>  <r_epik_Ionization_Penalty>  (172) 
3.613e-07

>  <r_epik_Ionization_Penalty_Charging>  (172) 
0

>  <r_epik_Ionization_Penalty_Neutral>  (172) 
3.613e-07

>  <r_epik_State_Penalty>  (172) 
-0

>  <r_epik_Charging_Adjusted_Penalty>  (172) 
0

>  <i_epik_Tot_Q>  (172) 
0

>  <i_epik_Tot_abs_Q>  (172) 
0

>  <s_epik_Chemistry_Notes>  (172) 
This compound has an ester and may undergo hydrolysis at high or low pH.

>  <s_lp_Force_Field>  (172) 
OPLS3e

>  <r_lp_Energy>  (172) 
144.747

>  <b_lp_Chiralities_Consistent>  (172) 
1

>  <s_lp_Variant>  (172) 
58:0-4

>  <s_i_glide_gridfile>  (172) 
pfpi4k_grid

>  <i_i_glide_lignum>  (172) 
39

>  <i_i_glide_rotatable_bonds>  (172) 
4

>  <r_i_docking_score>  (172) 
-2.8273

>  <r_i_glide_ligand_efficiency>  (172) 
-0.088353

>  <r_i_glide_ligand_efficiency_sa>  (172) 
-0.280503

>  <r_i_glide_ligand_efficiency_ln>  (172) 
-0.633109

>  <r_i_glide_gscore>  (172) 
-2.8273

>  <r_i_glide_lipo>  (172) 
-0.155093

>  <r_i_glide_hbond>  (172) 
-0.321634

>  <r_i_glide_metal>  (172) 
-0

>  <r_i_glide_rewards>  (172) 
-0.446133

>  <r_i_glide_evdw>  (172) 
-27.4074

>  <r_i_glide_ecoul>  (172) 
-4.82171

>  <r_i_glide_erotb>  (172) 
0.210929

>  <r_i_glide_esite>  (172) 
-0.0217397

>  <r_i_glide_emodel>  (172) 
-36.7381

>  <r_i_glide_energy>  (172) 
-32.2291

>  <r_i_glide_einternal>  (172) 
3.16216

>  <r_i_glide_intrahb_reward>  (172) 
-0

>  <i_i_glide_confnum>  (172) 
2

>  <i_i_glide_posenum>  (172) 
8

>  <r_i_glide_eff_state_penalty>  (172) 
0

>  <ligand_id>  (172) 
58

>  <original_smiles>  (172) 
C=C1C2(CC2)C(C)C2C(CC13C1=CC(C)=CC4OC4C3C1O)C1CC=C(COC(C)=O)C12

>  <smiles>  (172) 
[H]OC1([H])C2=C([H])C(C([H])([H])[H])=C([H])C3([H])OC3([H])C1([H])C21C(=C([H])[H])C2(C([H])([H])C2([H])[H])C([H])(C([H])([H])[H])C2([H])C3([H])C(C([H])([H])OC(=O)C([H])([H])[H])=C([H])C([H])([H])C3([H])C2([H])C1([H])[H]

$$$$
58:3:1
     RDKit          3D

 66 72  0  0  1  0  0  0  0  0999 V2000
    6.0846   -8.5395    2.1151 C   0  0  0  0  0  0  0  0  0  0  0  0
    5.3934   -7.4503    2.5146 C   0  0  0  0  0  0  0  0  0  0  0  0
    6.1617   -6.2030    2.9017 C   0  0  0  0  0  0  0  0  0  0  0  0
    7.5246   -6.3443    3.5762 C   0  0  0  0  0  0  0  0  0  0  0  0
    6.3370   -5.8692    4.3710 C   0  0  0  0  0  0  0  0  0  0  0  0
    6.0288   -5.0647    1.9072 C   0  0  1  0  0  0  0  0  0  0  0  0
    6.5727   -5.4096    0.5126 C   0  0  0  0  0  0  0  0  0  0  0  0
    4.5975   -4.5015    1.9664 C   0  0  2  0  0  0  0  0  0  0  0  0
    3.3125   -5.2248    1.4429 C   0  0  2  0  0  0  0  0  0  0  0  0
    3.3179   -6.7548    1.3096 C   0  0  0  0  0  0  0  0  0  0  0  0
    3.8490   -7.4427    2.5868 C   0  0  1  0  0  0  0  0  0  0  0  0
    3.3773   -8.8544    2.9239 C   0  0  0  0  0  0  0  0  0  0  0  0
    2.4930   -9.6012    2.2336 C   0  0  0  0  0  0  0  0  0  0  0  0
    1.1339   -9.7684    2.7069 C   0  0  0  0  0  0  0  0  0  0  0  0
    0.7797  -10.7752    3.7761 C   0  0  0  0  0  0  0  0  0  0  0  0
    0.4309   -8.6104    2.5321 C   0  0  0  0  0  0  0  0  0  0  0  0
    0.3776   -7.5788    3.5784 C   0  0  2  0  0  0  0  0  0  0  0  0
    0.8194   -6.2899    3.1073 O   0  0  0  0  0  0  0  0  0  0  0  0
    1.5934   -6.8422    4.1717 C   0  0  2  0  0  0  0  0  0  0  0  0
    3.1223   -7.1460    3.9683 C   0  0  1  0  0  0  0  0  0  0  0  0
    3.5324   -8.5452    4.4227 C   0  0  1  0  0  0  0  0  0  0  0  0
    2.6712   -9.2315    5.3131 O   0  0  0  0  0  0  0  0  0  0  0  0
    3.5087   -4.3759    0.1911 C   0  0  1  0  0  0  0  0  0  0  0  0
    2.6971   -3.5226   -0.7649 C   0  0  0  0  0  0  0  0  0  0  0  0
    3.7995   -2.4793   -0.9574 C   0  0  0  0  0  0  0  0  0  0  0  0
    4.6561   -2.4560    0.0825 C   0  0  0  0  0  0  0  0  0  0  0  0
    5.8066   -1.4910    0.3455 C   0  0  0  0  0  0  0  0  0  0  0  0
    5.9750   -1.1794    1.7278 O   0  0  0  0  0  0  0  0  0  0  0  0
    5.0119   -0.5341    2.4153 C   0  0  0  0  0  0  0  0  0  0  0  0
    5.3483   -0.3628    3.8875 C   0  0  0  0  0  0  0  0  0  0  0  0
    3.9517   -0.1150    1.9515 O   0  0  0  0  0  0  0  0  0  0  0  0
    4.0720   -3.3417    1.1459 C   0  0  2  0  0  0  0  0  0  0  0  0
    5.5803   -9.4480    1.8053 H   0  0  0  0  0  0  0  0  0  0  0  0
    7.1630   -8.5250    2.0300 H   0  0  0  0  0  0  0  0  0  0  0  0
    7.9132   -7.3337    3.8178 H   0  0  0  0  0  0  0  0  0  0  0  0
    8.2875   -5.6060    3.3205 H   0  0  0  0  0  0  0  0  0  0  0  0
    6.3046   -4.8220    4.6466 H   0  0  0  0  0  0  0  0  0  0  0  0
    5.9419   -6.5527    5.1108 H   0  0  0  0  0  0  0  0  0  0  0  0
    6.6789   -4.2651    2.2549 H   0  0  0  0  0  0  0  0  0  0  0  0
    6.0264   -6.2396    0.0714 H   0  0  0  0  0  0  0  0  0  0  0  0
    7.6195   -5.6916    0.5716 H   0  0  0  0  0  0  0  0  0  0  0  0
    6.5046   -4.5567   -0.1633 H   0  0  0  0  0  0  0  0  0  0  0  0
    4.3907   -4.2050    2.9846 H   0  0  0  0  0  0  0  0  0  0  0  0
    2.4763   -4.8725    2.0414 H   0  0  0  0  0  0  0  0  0  0  0  0
    2.3197   -7.0794    1.0427 H   0  0  0  0  0  0  0  0  0  0  0  0
    3.9202   -7.0650    0.4446 H   0  0  0  0  0  0  0  0  0  0  0  0
    2.5364   -9.5168    1.1581 H   0  0  0  0  0  0  0  0  0  0  0  0
    1.6718  -11.2265    4.2147 H   0  0  0  0  0  0  0  0  0  0  0  0
    0.2236  -11.5843    3.3251 H   0  0  0  0  0  0  0  0  0  0  0  0
    0.1627  -10.3268    4.5509 H   0  0  0  0  0  0  0  0  0  0  0  0
    0.6800   -8.1032    1.6192 H   0  0  0  0  0  0  0  0  0  0  0  0
   -0.5494   -7.5838    4.1347 H   0  0  0  0  0  0  0  0  0  0  0  0
    1.3995   -6.3913    5.1284 H   0  0  0  0  0  0  0  0  0  0  0  0
    3.7295   -6.3910    4.4844 H   0  0  0  0  0  0  0  0  0  0  0  0
    4.5441   -8.5672    4.8323 H   0  0  0  0  0  0  0  0  0  0  0  0
    1.9833   -9.6152    4.7883 H   0  0  0  0  0  0  0  0  0  0  0  0
    4.2710   -4.8822   -0.3919 H   0  0  0  0  0  0  0  0  0  0  0  0
    2.4258   -4.0508   -1.6807 H   0  0  0  0  0  0  0  0  0  0  0  0
    1.8133   -3.0605   -0.3250 H   0  0  0  0  0  0  0  0  0  0  0  0
    3.8427   -1.8376   -1.8153 H   0  0  0  0  0  0  0  0  0  0  0  0
    6.7252   -1.9790    0.0170 H   0  0  0  0  0  0  0  0  0  0  0  0
    5.6968   -0.5794   -0.2545 H   0  0  0  0  0  0  0  0  0  0  0  0
    5.5759   -1.3239    4.3483 H   0  0  0  0  0  0  0  0  0  0  0  0
    4.4922    0.0699    4.4015 H   0  0  0  0  0  0  0  0  0  0  0  0
    6.2003    0.3058    3.9933 H   0  0  0  0  0  0  0  0  0  0  0  0
    3.2922   -2.8080    1.6955 H   0  0  0  0  0  0  0  0  0  0  0  0
  1  2  2  0
  1 33  1  0
  1 34  1  0
  2 11  1  0
  2  3  1  0
  3  5  1  0
  3  4  1  0
  3  6  1  0
  4  5  1  0
  4 35  1  0
  4 36  1  0
  5 37  1  0
  5 38  1  0
  6  7  1  0
  6  8  1  0
  6 39  1  1
  7 40  1  0
  7 41  1  0
  7 42  1  0
  8 32  1  0
  8  9  1  0
  8 43  1  1
  9 10  1  0
  9 23  1  0
  9 44  1  1
 11 10  1  6
 10 45  1  0
 10 46  1  0
 11 20  1  0
 11 12  1  0
 12 21  1  0
 12 13  2  3
 13 14  1  0
 13 47  1  0
 14 15  1  0
 14 16  2  3
 15 48  1  0
 15 49  1  0
 15 50  1  0
 16 17  1  0
 16 51  1  0
 17 19  1  0
 17 18  1  0
 17 52  1  1
 18 19  1  0
 19 20  1  0
 19 53  1  1
 20 21  1  0
 20 54  1  1
 21 22  1  0
 21 55  1  1
 22 56  1  0
 23 32  1  0
 23 24  1  0
 23 57  1  6
 24 25  1  0
 24 58  1  0
 24 59  1  0
 25 26  2  0
 25 60  1  0
 26 27  1  0
 26 32  1  0
 27 28  1  0
 27 61  1  0
 27 62  1  0
 28 29  1  0
 29 30  1  0
 29 31  2  0
 30 63  1  0
 30 64  1  0
 30 65  1  0
 32 66  1  1
M  END
>  <i_m_ct_stereo_status>  (173) 
1

>  <s_m_source_file>  (173) 
/var/tmp/pbs.5076255.sched01/tmpwzsktf0x/40k9schvjs.sdf

>  <i_m_source_file_index>  (173) 
39

>  <i_lp_mmshare_version>  (173) 
48012

>  <i_f3d_flags>  (173) 
0

>  <s_epik_input>  (173) 
W09IXVtDQEBIXTFbQ0BASF0yW0NAQEhdKE8zKVtDQEBIXTNcW0NIXT1DKFtDSDNdKS9bQ0hdPUMxXFtDQEBdMihDKD1bQ0gyXSlDNDVbQ0gyXVtDSDJdNClbQ0gyXVtDQEhdNltDQEBIXShbQ0BASF01W0NIM10pW0NAQEhdN1tDQEBIXTZbQ0gyXVtDSF09QzdbQ0gyXU9DKD1PKVtDSDNd

>  <s_epik_cmdline>  (173) 
J2VwaWtfcHl0aG9uJywgJy1waHQnLCAnMi4wJywgJy1waCcsICc3LjAnLCAnLXRuJywgJzgnLCAnLW1hJywgJzIwMCcsICctaW1hZScsICc8aW5maWxlLm1hZT4nLCAnLW9tYWUnLCAnPG91dGZpbGUubWFlPic=

>  <r_lp_tautomer_probability>  (173) 
1

>  <r_epik_Ionization_Penalty>  (173) 
3.613e-07

>  <r_epik_Ionization_Penalty_Charging>  (173) 
0

>  <r_epik_Ionization_Penalty_Neutral>  (173) 
3.613e-07

>  <r_epik_State_Penalty>  (173) 
-0

>  <r_epik_Charging_Adjusted_Penalty>  (173) 
0

>  <i_epik_Tot_Q>  (173) 
0

>  <i_epik_Tot_abs_Q>  (173) 
0

>  <s_epik_Chemistry_Notes>  (173) 
This compound has an ester and may undergo hydrolysis at high or low pH.

>  <s_lp_Force_Field>  (173) 
OPLS3e

>  <r_lp_Energy>  (173) 
144.747

>  <b_lp_Chiralities_Consistent>  (173) 
1

>  <s_lp_Variant>  (173) 
58:0-4

>  <s_i_glide_gridfile>  (173) 
pfpi4k_grid

>  <i_i_glide_lignum>  (173) 
39

>  <i_i_glide_rotatable_bonds>  (173) 
4

>  <r_i_docking_score>  (173) 
-2.58403

>  <r_i_glide_ligand_efficiency>  (173) 
-0.0807509

>  <r_i_glide_ligand_efficiency_sa>  (173) 
-0.256368

>  <r_i_glide_ligand_efficiency_ln>  (173) 
-0.578634

>  <r_i_glide_gscore>  (173) 
-2.58403

>  <r_i_glide_lipo>  (173) 
-0.644577

>  <r_i_glide_hbond>  (173) 
0

>  <r_i_glide_metal>  (173) 
-0

>  <r_i_glide_rewards>  (173) 
-0.622243

>  <r_i_glide_evdw>  (173) 
-32.5345

>  <r_i_glide_ecoul>  (173) 
0.657242

>  <r_i_glide_erotb>  (173) 
0.210929

>  <r_i_glide_esite>  (173) 
0

>  <r_i_glide_emodel>  (173) 
-36.6502

>  <r_i_glide_energy>  (173) 
-31.8772

>  <r_i_glide_einternal>  (173) 
1.45281

>  <r_i_glide_intrahb_reward>  (173) 
-0

>  <i_i_glide_confnum>  (173) 
2

>  <i_i_glide_posenum>  (173) 
21

>  <r_i_glide_eff_state_penalty>  (173) 
0

>  <ligand_id>  (173) 
58

>  <original_smiles>  (173) 
C=C1C2(CC2)C(C)C2C(CC13C1=CC(C)=CC4OC4C3C1O)C1CC=C(COC(C)=O)C12

>  <smiles>  (173) 
[H]OC1([H])C2=C([H])C(C([H])([H])[H])=C([H])C3([H])OC3([H])C1([H])C21C(=C([H])[H])C2(C([H])([H])C2([H])[H])C([H])(C([H])([H])[H])C2([H])C3([H])C(C([H])([H])OC(=O)C([H])([H])[H])=C([H])C([H])([H])C3([H])C2([H])C1([H])[H]

$$$$
58:3:2
     RDKit          3D

 66 72  0  0  1  0  0  0  0  0999 V2000
    3.7895   -6.5019    6.7694 C   0  0  0  0  0  0  0  0  0  0  0  0
    2.7533   -5.8830    6.1634 C   0  0  0  0  0  0  0  0  0  0  0  0
    2.3226   -4.5222    6.6650 C   0  0  0  0  0  0  0  0  0  0  0  0
    2.4238   -4.2195    8.1579 C   0  0  0  0  0  0  0  0  0  0  0  0
    1.0736   -4.4204    7.5203 C   0  0  0  0  0  0  0  0  0  0  0  0
    2.6600   -3.3703    5.7321 C   0  0  1  0  0  0  0  0  0  0  0  0
    4.1755   -3.2183    5.4935 C   0  0  0  0  0  0  0  0  0  0  0  0
    1.7583   -3.4497    4.4828 C   0  0  2  0  0  0  0  0  0  0  0  0
    1.8922   -4.5276    3.3563 C   0  0  2  0  0  0  0  0  0  0  0  0
    2.5727   -5.8748    3.6692 C   0  0  0  0  0  0  0  0  0  0  0  0
    2.0144   -6.5190    4.9618 C   0  0  1  0  0  0  0  0  0  0  0  0
    2.0473   -8.0441    5.1129 C   0  0  0  0  0  0  0  0  0  0  0  0
    2.5064   -8.9409    4.2256 C   0  0  0  0  0  0  0  0  0  0  0  0
    1.5838   -9.7261    3.4303 C   0  0  0  0  0  0  0  0  0  0  0  0
    0.9219  -10.9703    3.9828 C   0  0  0  0  0  0  0  0  0  0  0  0
    0.9951   -8.9392    2.4934 C   0  0  0  0  0  0  0  0  0  0  0  0
   -0.2758   -8.2319    2.7541 C   0  0  2  0  0  0  0  0  0  0  0  0
   -0.1911   -6.8009    2.5414 O   0  0  0  0  0  0  0  0  0  0  0  0
   -0.5007   -7.2000    3.8786 C   0  0  2  0  0  0  0  0  0  0  0  0
    0.4555   -6.8070    5.0578 C   0  0  1  0  0  0  0  0  0  0  0  0
    0.7841   -7.9694    5.9891 C   0  0  1  0  0  0  0  0  0  0  0  0
   -0.0984   -9.0843    5.9794 O   0  0  0  0  0  0  0  0  0  0  0  0
    2.6649   -3.4428    2.6263 C   0  0  1  0  0  0  0  0  0  0  0  0
    2.8117   -2.8755    1.2304 C   0  0  0  0  0  0  0  0  0  0  0  0
    3.0845   -1.4561    1.7351 C   0  0  0  0  0  0  0  0  0  0  0  0
    2.5826   -1.2531    2.9692 C   0  0  0  0  0  0  0  0  0  0  0  0
    2.5707    0.0219    3.7934 C   0  0  0  0  0  0  0  0  0  0  0  0
    1.2807    0.6146    3.8197 O   0  0  0  0  0  0  0  0  0  0  0  0
    0.8261    1.2637    2.7330 C   0  0  0  0  0  0  0  0  0  0  0  0
   -0.5854    1.8062    2.9239 C   0  0  0  0  0  0  0  0  0  0  0  0
    1.4449    1.4196    1.6844 O   0  0  0  0  0  0  0  0  0  0  0  0
    1.7533   -2.4500    3.3320 C   0  0  2  0  0  0  0  0  0  0  0  0
    4.1544   -7.4636    6.4364 H   0  0  0  0  0  0  0  0  0  0  0  0
    4.3289   -6.0383    7.5835 H   0  0  0  0  0  0  0  0  0  0  0  0
    2.7609   -4.9916    8.8471 H   0  0  0  0  0  0  0  0  0  0  0  0
    2.6938   -3.2036    8.4450 H   0  0  0  0  0  0  0  0  0  0  0  0
    0.4521   -3.5419    7.3828 H   0  0  0  0  0  0  0  0  0  0  0  0
    0.5421   -5.3306    7.7714 H   0  0  0  0  0  0  0  0  0  0  0  0
    2.3764   -2.4561    6.2528 H   0  0  0  0  0  0  0  0  0  0  0  0
    4.6139   -4.1068    5.0417 H   0  0  0  0  0  0  0  0  0  0  0  0
    4.6908   -3.0469    6.4367 H   0  0  0  0  0  0  0  0  0  0  0  0
    4.3983   -2.3655    4.8516 H   0  0  0  0  0  0  0  0  0  0  0  0
    0.7278   -3.4720    4.8102 H   0  0  0  0  0  0  0  0  0  0  0  0
    0.9116   -4.6625    2.9090 H   0  0  0  0  0  0  0  0  0  0  0  0
    2.4719   -6.5206    2.8090 H   0  0  0  0  0  0  0  0  0  0  0  0
    3.6567   -5.7472    3.7646 H   0  0  0  0  0  0  0  0  0  0  0  0
    3.3787   -8.6478    3.6566 H   0  0  0  0  0  0  0  0  0  0  0  0
    1.1093  -11.0876    5.0503 H   0  0  0  0  0  0  0  0  0  0  0  0
    1.3302  -11.8536    3.4983 H   0  0  0  0  0  0  0  0  0  0  0  0
   -0.1496  -10.9543    3.7983 H   0  0  0  0  0  0  0  0  0  0  0  0
    1.6619   -8.2137    2.0676 H   0  0  0  0  0  0  0  0  0  0  0  0
   -1.1326   -8.7226    2.3130 H   0  0  0  0  0  0  0  0  0  0  0  0
   -1.5380   -7.0564    4.1326 H   0  0  0  0  0  0  0  0  0  0  0  0
    0.0197   -5.9803    5.6262 H   0  0  0  0  0  0  0  0  0  0  0  0
    0.9232   -7.6536    7.0220 H   0  0  0  0  0  0  0  0  0  0  0  0
    0.0162   -9.5484    5.1675 H   0  0  0  0  0  0  0  0  0  0  0  0
    3.6614   -3.4873    3.0457 H   0  0  0  0  0  0  0  0  0  0  0  0
    3.6499   -3.3065    0.6746 H   0  0  0  0  0  0  0  0  0  0  0  0
    1.8977   -2.9057    0.6376 H   0  0  0  0  0  0  0  0  0  0  0  0
    3.5938   -0.7156    1.1466 H   0  0  0  0  0  0  0  0  0  0  0  0
    2.8266   -0.2455    4.8156 H   0  0  0  0  0  0  0  0  0  0  0  0
    3.3323    0.7335    3.4504 H   0  0  0  0  0  0  0  0  0  0  0  0
   -1.2708    1.0059    3.2008 H   0  0  0  0  0  0  0  0  0  0  0  0
   -0.9359    2.2603    1.9981 H   0  0  0  0  0  0  0  0  0  0  0  0
   -0.5940    2.5664    3.7036 H   0  0  0  0  0  0  0  0  0  0  0  0
    0.7591   -2.3712    2.8843 H   0  0  0  0  0  0  0  0  0  0  0  0
  1  2  2  0
  1 33  1  0
  1 34  1  0
  2 11  1  0
  2  3  1  0
  3  5  1  0
  3  4  1  0
  3  6  1  0
  4  5  1  0
  4 35  1  0
  4 36  1  0
  5 37  1  0
  5 38  1  0
  6  7  1  0
  6  8  1  0
  6 39  1  1
  7 40  1  0
  7 41  1  0
  7 42  1  0
  8 32  1  0
  8  9  1  0
  8 43  1  1
  9 10  1  0
  9 23  1  0
  9 44  1  6
 11 10  1  6
 10 45  1  0
 10 46  1  0
 11 20  1  0
 11 12  1  0
 12 21  1  0
 12 13  2  3
 13 14  1  0
 13 47  1  0
 14 15  1  0
 14 16  2  3
 15 48  1  0
 15 49  1  0
 15 50  1  0
 16 17  1  0
 16 51  1  0
 17 19  1  0
 17 18  1  0
 17 52  1  6
 18 19  1  0
 19 20  1  0
 19 53  1  1
 20 21  1  0
 20 54  1  1
 21 22  1  0
 21 55  1  1
 22 56  1  0
 23 32  1  0
 23 24  1  0
 23 57  1  1
 24 25  1  0
 24 58  1  0
 24 59  1  0
 25 26  2  0
 25 60  1  0
 26 27  1  0
 26 32  1  0
 27 28  1  0
 27 61  1  0
 27 62  1  0
 28 29  1  0
 29 30  1  0
 29 31  2  0
 30 63  1  0
 30 64  1  0
 30 65  1  0
 32 66  1  6
M  END
>  <i_m_ct_stereo_status>  (174) 
1

>  <s_m_source_file>  (174) 
/var/tmp/pbs.5076255.sched01/tmpwzsktf0x/40k9schvjs.sdf

>  <i_m_source_file_index>  (174) 
39

>  <i_lp_mmshare_version>  (174) 
48012

>  <i_f3d_flags>  (174) 
0

>  <s_epik_input>  (174) 
W09IXVtDQEBIXTFbQ0BASF0yW0NAQEhdKE8zKVtDQEBIXTNcW0NIXT1DKFtDSDNdKS9bQ0hdPUMxXFtDQEBdMihDKD1bQ0gyXSlDNDVbQ0gyXVtDSDJdNClbQ0gyXVtDQEhdNltDQEBIXShbQ0BASF01W0NIM10pW0NAQEhdN1tDQEBIXTZbQ0gyXVtDSF09QzdbQ0gyXU9DKD1PKVtDSDNd

>  <s_epik_cmdline>  (174) 
J2VwaWtfcHl0aG9uJywgJy1waHQnLCAnMi4wJywgJy1waCcsICc3LjAnLCAnLXRuJywgJzgnLCAnLW1hJywgJzIwMCcsICctaW1hZScsICc8aW5maWxlLm1hZT4nLCAnLW9tYWUnLCAnPG91dGZpbGUubWFlPic=

>  <r_lp_tautomer_probability>  (174) 
1

>  <r_epik_Ionization_Penalty>  (174) 
3.613e-07

>  <r_epik_Ionization_Penalty_Charging>  (174) 
0

>  <r_epik_Ionization_Penalty_Neutral>  (174) 
3.613e-07

>  <r_epik_State_Penalty>  (174) 
-0

>  <r_epik_Charging_Adjusted_Penalty>  (174) 
0

>  <i_epik_Tot_Q>  (174) 
0

>  <i_epik_Tot_abs_Q>  (174) 
0

>  <s_epik_Chemistry_Notes>  (174) 
This compound has an ester and may undergo hydrolysis at high or low pH.

>  <s_lp_Force_Field>  (174) 
OPLS3e

>  <r_lp_Energy>  (174) 
144.747

>  <b_lp_Chiralities_Consistent>  (174) 
1

>  <s_lp_Variant>  (174) 
58:0-4

>  <s_i_glide_gridfile>  (174) 
pfpi4k_grid

>  <i_i_glide_lignum>  (174) 
39

>  <i_i_glide_rotatable_bonds>  (174) 
4

>  <r_i_docking_score>  (174) 
-2.23881

>  <r_i_glide_ligand_efficiency>  (174) 
-0.069963

>  <r_i_glide_ligand_efficiency_sa>  (174) 
-0.222119

>  <r_i_glide_ligand_efficiency_ln>  (174) 
-0.501332

>  <r_i_glide_gscore>  (174) 
-2.23881

>  <r_i_glide_lipo>  (174) 
-0.0997698

>  <r_i_glide_hbond>  (174) 
-0.148285

>  <r_i_glide_metal>  (174) 
-0

>  <r_i_glide_rewards>  (174) 
-0.446133

>  <r_i_glide_evdw>  (174) 
-28.8971

>  <r_i_glide_ecoul>  (174) 
-1.81059

>  <r_i_glide_erotb>  (174) 
0.210929

>  <r_i_glide_esite>  (174) 
-0.0391147

>  <r_i_glide_emodel>  (174) 
-35.2928

>  <r_i_glide_energy>  (174) 
-30.7077

>  <r_i_glide_einternal>  (174) 
0.488539

>  <r_i_glide_intrahb_reward>  (174) 
-0

>  <i_i_glide_confnum>  (174) 
2

>  <i_i_glide_posenum>  (174) 
35

>  <r_i_glide_eff_state_penalty>  (174) 
0

>  <ligand_id>  (174) 
58

>  <original_smiles>  (174) 
C=C1C2(CC2)C(C)C2C(CC13C1=CC(C)=CC4OC4C3C1O)C1CC=C(COC(C)=O)C12

>  <smiles>  (174) 
[H]OC1([H])C2=C([H])C(C([H])([H])[H])=C([H])C3([H])OC3([H])C1([H])C21C(=C([H])[H])C2(C([H])([H])C2([H])[H])C([H])(C([H])([H])[H])C2([H])C3([H])C(C([H])([H])OC(=O)C([H])([H])[H])=C([H])C([H])([H])C3([H])C2([H])C1([H])[H]

$$$$
60:0:0
     RDKit          3D

 57 62  0  0  1  0  0  0  0  0999 V2000
   -1.2443   -8.4493    2.2679 C   0  0  0  0  0  0  0  0  0  0  0  0
   -0.2034   -7.5794    1.5732 C   0  0  0  0  0  0  0  0  0  0  0  0
   -0.0592   -6.3647    2.3019 O   0  0  0  0  0  0  0  0  0  0  0  0
    1.0241   -6.2378    3.1412 C   0  0  0  0  0  0  0  0  0  0  0  0
    2.3031   -6.6430    2.9878 C   0  0  0  0  0  0  0  0  0  0  0  0
    2.9442   -7.2796    1.7583 C   0  0  0  0  0  0  0  0  0  0  0  0
    4.4126   -6.8743    1.5862 C   0  0  0  0  0  0  0  0  0  0  0  0
    4.6836   -5.4476    2.0967 C   0  0  2  0  0  0  0  0  0  0  0  0
    4.4678   -5.4330    3.6437 C   0  0  1  0  0  0  0  0  0  0  0  0
    4.6451   -4.0013    4.1923 C   0  0  0  0  0  0  0  0  0  0  0  0
    3.7638   -2.9783    3.4666 C   0  0  0  0  0  0  0  0  0  0  0  0
    4.0851   -2.9499    1.9646 C   0  0  2  0  0  0  0  0  0  0  0  0
    3.2221   -1.9054    1.2391 C   0  0  0  0  0  0  0  0  0  0  0  0
    3.6241   -1.8048   -0.2360 C   0  0  0  0  0  0  0  0  0  0  0  0
    3.5166   -3.1596   -0.9904 C   0  0  1  0  0  0  0  0  0  0  0  0
    2.0473   -3.4507   -1.3581 C   0  0  0  0  0  0  0  0  0  0  0  0
    4.3560   -3.0668   -2.2098 N   0  0  0  0  0  0  0  0  0  0  0  0
    5.6955   -3.6477   -1.9540 C   0  0  1  0  0  0  0  0  0  0  0  0
    6.2440   -3.0844   -0.7478 O   0  0  0  0  0  0  0  0  0  0  0  0
    5.5668   -4.3483   -0.6384 C   0  0  1  0  0  0  0  0  0  0  0  0
    4.1337   -4.3396   -0.1947 C   0  0  1  0  0  0  0  0  0  0  0  0
    3.8771   -4.3428    1.3360 C   0  0  1  0  0  0  0  0  0  0  0  0
    3.2297   -6.2681    4.1318 C   0  0  1  0  0  0  0  0  0  0  0  0
    2.2369   -5.6159    5.0970 C   0  0  0  0  0  0  0  0  0  0  0  0
    2.4960   -5.2009    6.2271 O   0  0  0  0  0  0  0  0  0  0  0  0
    0.8637   -5.6128    4.4487 C   0  0  0  0  0  0  0  0  0  0  0  0
   -0.1604   -5.1706    4.9742 O   0  0  0  0  0  0  0  0  0  0  0  0
   -1.3391   -9.3947    1.7335 H   0  0  0  0  0  0  0  0  0  0  0  0
   -2.2208   -7.9673    2.3146 H   0  0  0  0  0  0  0  0  0  0  0  0
   -0.9222   -8.6825    3.2837 H   0  0  0  0  0  0  0  0  0  0  0  0
    0.6803   -8.2031    1.4975 H   0  0  0  0  0  0  0  0  0  0  0  0
   -0.5099   -7.3337    0.5532 H   0  0  0  0  0  0  0  0  0  0  0  0
    2.8814   -8.3677    1.8377 H   0  0  0  0  0  0  0  0  0  0  0  0
    2.3908   -6.9509    0.8788 H   0  0  0  0  0  0  0  0  0  0  0  0
    5.0289   -7.5735    2.1497 H   0  0  0  0  0  0  0  0  0  0  0  0
    4.7081   -7.0074    0.5476 H   0  0  0  0  0  0  0  0  0  0  0  0
    5.7450   -5.2452    1.9403 H   0  0  0  0  0  0  0  0  0  0  0  0
    5.3087   -5.9880    4.0612 H   0  0  0  0  0  0  0  0  0  0  0  0
    4.4851   -3.9543    5.2692 H   0  0  0  0  0  0  0  0  0  0  0  0
    5.6855   -3.7098    4.0488 H   0  0  0  0  0  0  0  0  0  0  0  0
    2.7085   -3.2098    3.6166 H   0  0  0  0  0  0  0  0  0  0  0  0
    3.9300   -1.9892    3.8957 H   0  0  0  0  0  0  0  0  0  0  0  0
    5.1307   -2.6645    1.8464 H   0  0  0  0  0  0  0  0  0  0  0  0
    2.1611   -2.1515    1.3292 H   0  0  0  0  0  0  0  0  0  0  0  0
    3.3506   -0.9283    1.7109 H   0  0  0  0  0  0  0  0  0  0  0  0
    3.0097   -1.0563   -0.7307 H   0  0  0  0  0  0  0  0  0  0  0  0
    4.6371   -1.4023   -0.2687 H   0  0  0  0  0  0  0  0  0  0  0  0
    1.4656   -3.5502   -0.4486 H   0  0  0  0  0  0  0  0  0  0  0  0
    1.8841   -4.3548   -1.9314 H   0  0  0  0  0  0  0  0  0  0  0  0
    1.6145   -2.6525   -1.9557 H   0  0  0  0  0  0  0  0  0  0  0  0
    3.9180   -3.6350   -2.9238 H   0  0  0  0  0  0  0  0  0  0  0  0
    6.3914   -3.8604   -2.7548 H   0  0  0  0  0  0  0  0  0  0  0  0
    6.1913   -5.2057   -0.4010 H   0  0  0  0  0  0  0  0  0  0  0  0
    3.7069   -5.2623   -0.5939 H   0  0  0  0  0  0  0  0  0  0  0  0
    2.8137   -4.5565    1.4477 H   0  0  0  0  0  0  0  0  0  0  0  0
    3.5766   -7.1933    4.5917 H   0  0  0  0  0  0  0  0  0  0  0  0
    4.4338   -2.1055   -2.5107 H   0  0  0  0  0  0  0  0  0  0  0  0
  1  2  1  0
  1 28  1  0
  1 29  1  0
  1 30  1  0
  2  3  1  0
  2 31  1  0
  2 32  1  0
  3  4  1  0
  4 26  1  0
  4  5  2  0
  5 23  1  0
  5  6  1  0
  6  7  1  0
  6 33  1  0
  6 34  1  0
  7  8  1  0
  7 35  1  0
  7 36  1  0
  8 22  1  0
  8  9  1  0
  8 37  1  1
  9 10  1  0
  9 23  1  0
  9 38  1  1
 10 11  1  0
 10 39  1  0
 10 40  1  0
 11 12  1  0
 11 41  1  0
 11 42  1  0
 12 22  1  0
 12 13  1  0
 12 43  1  1
 13 14  1  0
 13 44  1  0
 13 45  1  0
 14 15  1  0
 14 46  1  0
 14 47  1  0
 15 21  1  0
 15 16  1  6
 15 17  1  0
 16 48  1  0
 16 49  1  0
 16 50  1  0
 17 18  1  0
 17 51  1  0
 17 57  1  0
 18 20  1  0
 18 19  1  0
 18 52  1  6
 19 20  1  0
 20 21  1  0
 20 53  1  6
 21 22  1  0
 21 54  1  6
 22 55  1  6
 23 24  1  0
 23 56  1  1
 24 25  2  0
 24 26  1  0
 26 27  2  0
M  CHG  1  17   1
M  END
>  <i_m_ct_stereo_status>  (175) 
1

>  <s_m_source_file>  (175) 
/var/tmp/pbs.5076255.sched01/tmprae_yccg/80g5h6lheg.sdf

>  <i_m_source_file_index>  (175) 
2

>  <i_lp_mmshare_version>  (175) 
48012

>  <i_f3d_flags>  (175) 
0

>  <s_epik_input>  (175) 
W0NIM11bQ0gyXU9DKEMoPU8pQzE9Tyk9QyhbQ0gyXVtDSDJdMilbQ0BIXTFbQ0BIXShbQ0gyXVtDSDJdW0NAQEhdM1tDSDJdW0NIMl00KVtDQEBIXTJbQ0BASF0zW0NAQEhdKFtDQEBdNDVbQ0gzXSlbQ0BIXTZbQ0BIXShPNilbTkhdNQ==

>  <s_epik_cmdline>  (175) 
J2VwaWtfcHl0aG9uJywgJy1waHQnLCAnMi4wJywgJy1waCcsICc3LjAnLCAnLXRuJywgJzgnLCAnLW1hJywgJzIwMCcsICctaW1hZScsICc8aW5maWxlLm1hZT4nLCAnLW9tYWUnLCAnPG91dGZpbGUubWFlPic=

>  <r_lp_tautomer_probability>  (175) 
1

>  <r_epik_Ionization_Penalty>  (175) 
0.0975996

>  <r_epik_Ionization_Penalty_Charging>  (175) 
0.0975996

>  <r_epik_Ionization_Penalty_Neutral>  (175) 
1.18402e-15

>  <r_epik_State_Penalty>  (175) 
0.0877121

>  <r_epik_Charging_Adjusted_Penalty>  (175) 
0.185312

>  <i_epik_Tot_Q>  (175) 
1

>  <i_epik_Tot_abs_Q>  (175) 
1

>  <s_epik_Chemistry_Notes>  (175) 
This compound contains an acetal/aminal-like group ( X-CH(R)-Y where X, Y are N, S, or O) that may be acid/base labile, releasing an aldehyde.

>  <s_lp_Force_Field>  (175) 
OPLS3e

>  <r_lp_Energy>  (175) 
50.4452

>  <b_lp_Chiralities_Consistent>  (175) 
1

>  <s_lp_Variant>  (175) 
60:0-1

>  <s_i_glide_gridfile>  (175) 
pfpi4k_grid

>  <i_i_glide_lignum>  (175) 
2

>  <i_i_glide_rotatable_bonds>  (175) 
2

>  <r_i_docking_score>  (175) 
-3.24104

>  <r_i_glide_ligand_efficiency>  (175) 
-0.120038

>  <r_i_glide_ligand_efficiency_sa>  (175) 
-0.360115

>  <r_i_glide_ligand_efficiency_ln>  (175) 
-0.75446

>  <r_i_glide_gscore>  (175) 
-3.24104

>  <r_i_glide_lipo>  (175) 
-0.204452

>  <r_i_glide_hbond>  (175) 
-0.192352

>  <r_i_glide_metal>  (175) 
-0

>  <r_i_glide_rewards>  (175) 
-1.03068

>  <r_i_glide_evdw>  (175) 
-18.9113

>  <r_i_glide_ecoul>  (175) 
-6.61489

>  <r_i_glide_erotb>  (175) 
0.139214

>  <r_i_glide_esite>  (175) 
-0.0149698

>  <r_i_glide_emodel>  (175) 
-30.9618

>  <r_i_glide_energy>  (175) 
-25.5262

>  <r_i_glide_einternal>  (175) 
0.345053

>  <r_i_glide_intrahb_reward>  (175) 
-0

>  <i_i_glide_confnum>  (175) 
4

>  <i_i_glide_posenum>  (175) 
10

>  <r_i_glide_eff_state_penalty>  (175) 
0

>  <ligand_id>  (175) 
60

>  <original_smiles>  (175) 
CCOC1=C2CCC3C(CCC4CCC5(C)NC6OC6C5C43)C2C(=O)C1=O

>  <smiles>  (175) 
[H]C([H])([H])C([H])([H])OC1=C2C([H])([H])C([H])([H])C3([H])C([H])(C2([H])C(=O)C1=O)C([H])([H])C([H])([H])C1([H])C([H])([H])C([H])([H])C2(C([H])([H])[H])C([H])(C4([H])OC4([H])[N+]2([H])[H])C13[H]

$$$$
60:0:1
     RDKit          3D

 57 62  0  0  1  0  0  0  0  0999 V2000
   -0.2155   -8.0979    2.3237 C   0  0  0  0  0  0  0  0  0  0  0  0
    0.5007   -7.1886    1.3290 C   0  0  0  0  0  0  0  0  0  0  0  0
    0.7419   -5.9369    1.9526 O   0  0  0  0  0  0  0  0  0  0  0  0
    1.9937   -5.7237    2.4669 C   0  0  0  0  0  0  0  0  0  0  0  0
    3.2041   -6.0541    1.9537 C   0  0  0  0  0  0  0  0  0  0  0  0
    3.5175   -6.6465    0.5911 C   0  0  0  0  0  0  0  0  0  0  0  0
    4.8513   -6.1508    0.0354 C   0  0  0  0  0  0  0  0  0  0  0  0
    5.1646   -4.7048    0.4747 C   0  0  2  0  0  0  0  0  0  0  0  0
    5.3830   -4.6963    2.0129 C   0  0  1  0  0  0  0  0  0  0  0  0
    5.6142   -3.2504    2.5017 C   0  0  0  0  0  0  0  0  0  0  0  0
    4.5006   -2.2899    2.0678 C   0  0  0  0  0  0  0  0  0  0  0  0
    4.4034   -2.2376    0.5426 C   0  0  2  0  0  0  0  0  0  0  0  0
    3.3039   -1.2639    0.0895 C   0  0  0  0  0  0  0  0  0  0  0  0
    3.2755   -1.1564   -1.4517 C   0  0  0  0  0  0  0  0  0  0  0  0
    3.0607   -2.5301   -2.1434 C   0  0  1  0  0  0  0  0  0  0  0  0
    1.6272   -3.0074   -2.0960 C   0  0  0  0  0  0  0  0  0  0  0  0
    3.5152   -2.3873   -3.5528 N   0  0  0  0  0  0  0  0  0  0  0  0
    4.9066   -2.8883   -3.6532 C   0  0  1  0  0  0  0  0  0  0  0  0
    5.7716   -2.2713   -2.6892 O   0  0  0  0  0  0  0  0  0  0  0  0
    5.2002   -3.5411   -2.3675 C   0  0  1  0  0  0  0  0  0  0  0  0
    3.9488   -3.5896   -1.5426 C   0  0  1  0  0  0  0  0  0  0  0  0
    4.1177   -3.6394   -0.0092 C   0  0  1  0  0  0  0  0  0  0  0  0
    4.3813   -5.6110    2.8060 C   0  0  1  0  0  0  0  0  0  0  0  0
    3.6422   -5.0206    4.0228 C   0  0  0  0  0  0  0  0  0  0  0  0
    4.1616   -4.5808    5.0484 O   0  0  0  0  0  0  0  0  0  0  0  0
    2.1532   -5.1056    3.7712 C   0  0  0  0  0  0  0  0  0  0  0  0
    1.2768   -4.7199    4.5513 O   0  0  0  0  0  0  0  0  0  0  0  0
   -0.4005   -9.0736    1.8748 H   0  0  0  0  0  0  0  0  0  0  0  0
   -1.1689   -7.6740    2.6379 H   0  0  0  0  0  0  0  0  0  0  0  0
    0.4029   -8.2555    3.2104 H   0  0  0  0  0  0  0  0  0  0  0  0
    1.3848   -7.7221    0.9987 H   0  0  0  0  0  0  0  0  0  0  0  0
   -0.1158   -7.0222    0.4422 H   0  0  0  0  0  0  0  0  0  0  0  0
    3.5355   -7.7396    0.6463 H   0  0  0  0  0  0  0  0  0  0  0  0
    2.7248   -6.3333   -0.0913 H   0  0  0  0  0  0  0  0  0  0  0  0
    5.6418   -6.8063    0.4074 H   0  0  0  0  0  0  0  0  0  0  0  0
    4.8575   -6.2612   -1.0466 H   0  0  0  0  0  0  0  0  0  0  0  0
    6.1185   -4.4406    0.0171 H   0  0  0  0  0  0  0  0  0  0  0  0
    6.3450   -5.1899    2.1587 H   0  0  0  0  0  0  0  0  0  0  0  0
    5.7585   -3.2109    3.5784 H   0  0  0  0  0  0  0  0  0  0  0  0
    6.5527   -2.8905    2.0740 H   0  0  0  0  0  0  0  0  0  0  0  0
    3.5416   -2.5996    2.4867 H   0  0  0  0  0  0  0  0  0  0  0  0
    4.6984   -1.2899    2.4491 H   0  0  0  0  0  0  0  0  0  0  0  0
    5.3587   -1.9015    0.1289 H   0  0  0  0  0  0  0  0  0  0  0  0
    2.3405   -1.5974    0.4968 H   0  0  0  0  0  0  0  0  0  0  0  0
    3.4790   -0.2777    0.5199 H   0  0  0  0  0  0  0  0  0  0  0  0
    2.5295   -0.4931   -1.8535 H   0  0  0  0  0  0  0  0  0  0  0  0
    4.2186   -0.6843   -1.7522 H   0  0  0  0  0  0  0  0  0  0  0  0
    1.2698   -3.1144   -1.0748 H   0  0  0  0  0  0  0  0  0  0  0  0
    1.4527   -3.9442   -2.6061 H   0  0  0  0  0  0  0  0  0  0  0  0
    1.0488   -2.2539   -2.5606 H   0  0  0  0  0  0  0  0  0  0  0  0
    2.9223   -2.9548   -4.1291 H   0  0  0  0  0  0  0  0  0  0  0  0
    5.2404   -3.4936   -4.5501 H   0  0  0  0  0  0  0  0  0  0  0  0
    5.8783   -4.3968   -2.3708 H   0  0  0  0  0  0  0  0  0  0  0  0
    3.5456   -4.5598   -1.7440 H   0  0  0  0  0  0  0  0  0  0  0  0
    3.1340   -3.9305    0.3647 H   0  0  0  0  0  0  0  0  0  0  0  0
    4.9024   -6.5058    3.1365 H   0  0  0  0  0  0  0  0  0  0  0  0
    3.4344   -1.4256   -3.8509 H   0  0  0  0  0  0  0  0  0  0  0  0
  1  2  1  0
  1 28  1  0
  1 29  1  0
  1 30  1  0
  2  3  1  0
  2 31  1  0
  2 32  1  0
  3  4  1  0
  4 26  1  0
  4  5  2  0
  5 23  1  0
  5  6  1  0
  6  7  1  0
  6 33  1  0
  6 34  1  0
  7  8  1  0
  7 35  1  0
  7 36  1  0
  8 22  1  0
  8  9  1  0
  8 37  1  6
  9 10  1  0
  9 23  1  0
  9 38  1  6
 10 11  1  0
 10 39  1  0
 10 40  1  0
 11 12  1  0
 11 41  1  0
 11 42  1  0
 12 22  1  0
 12 13  1  0
 12 43  1  6
 13 14  1  0
 13 44  1  0
 13 45  1  0
 14 15  1  0
 14 46  1  0
 14 47  1  0
 15 21  1  0
 15 16  1  6
 15 17  1  0
 16 48  1  0
 16 49  1  0
 16 50  1  0
 17 18  1  0
 17 51  1  0
 17 57  1  0
 18 20  1  0
 18 19  1  0
 18 52  1  6
 19 20  1  0
 20 21  1  0
 20 53  1  6
 21 22  1  0
 21 54  1  6
 22 55  1  1
 23 24  1  0
 23 56  1  1
 24 25  2  0
 24 26  1  0
 26 27  2  0
M  CHG  1  17   1
M  END
>  <i_m_ct_stereo_status>  (176) 
1

>  <s_m_source_file>  (176) 
/var/tmp/pbs.5076255.sched01/tmprae_yccg/80g5h6lheg.sdf

>  <i_m_source_file_index>  (176) 
2

>  <i_lp_mmshare_version>  (176) 
48012

>  <i_f3d_flags>  (176) 
0

>  <s_epik_input>  (176) 
W0NIM11bQ0gyXU9DKEMoPU8pQzE9Tyk9QyhbQ0gyXVtDSDJdMilbQ0BIXTFbQ0BIXShbQ0gyXVtDSDJdW0NAQEhdM1tDSDJdW0NIMl00KVtDQEBIXTJbQ0BASF0zW0NAQEhdKFtDQEBdNDVbQ0gzXSlbQ0BIXTZbQ0BIXShPNilbTkhdNQ==

>  <s_epik_cmdline>  (176) 
J2VwaWtfcHl0aG9uJywgJy1waHQnLCAnMi4wJywgJy1waCcsICc3LjAnLCAnLXRuJywgJzgnLCAnLW1hJywgJzIwMCcsICctaW1hZScsICc8aW5maWxlLm1hZT4nLCAnLW9tYWUnLCAnPG91dGZpbGUubWFlPic=

>  <r_lp_tautomer_probability>  (176) 
1

>  <r_epik_Ionization_Penalty>  (176) 
0.0975996

>  <r_epik_Ionization_Penalty_Charging>  (176) 
0.0975996

>  <r_epik_Ionization_Penalty_Neutral>  (176) 
1.18402e-15

>  <r_epik_State_Penalty>  (176) 
0.0877121

>  <r_epik_Charging_Adjusted_Penalty>  (176) 
0.185312

>  <i_epik_Tot_Q>  (176) 
1

>  <i_epik_Tot_abs_Q>  (176) 
1

>  <s_epik_Chemistry_Notes>  (176) 
This compound contains an acetal/aminal-like group ( X-CH(R)-Y where X, Y are N, S, or O) that may be acid/base labile, releasing an aldehyde.

>  <s_lp_Force_Field>  (176) 
OPLS3e

>  <r_lp_Energy>  (176) 
50.4452

>  <b_lp_Chiralities_Consistent>  (176) 
1

>  <s_lp_Variant>  (176) 
60:0-1

>  <s_i_glide_gridfile>  (176) 
pfpi4k_grid

>  <i_i_glide_lignum>  (176) 
2

>  <i_i_glide_rotatable_bonds>  (176) 
2

>  <r_i_docking_score>  (176) 
-2.22424

>  <r_i_glide_ligand_efficiency>  (176) 
-0.0823792

>  <r_i_glide_ligand_efficiency_sa>  (176) 
-0.247137

>  <r_i_glide_ligand_efficiency_ln>  (176) 
-0.517766

>  <r_i_glide_gscore>  (176) 
-2.22424

>  <r_i_glide_lipo>  (176) 
-0.430015

>  <r_i_glide_hbond>  (176) 
-0.141718

>  <r_i_glide_metal>  (176) 
-0

>  <r_i_glide_rewards>  (176) 
-1.04928

>  <r_i_glide_evdw>  (176) 
-0.712136

>  <r_i_glide_ecoul>  (176) 
-4.71219

>  <r_i_glide_erotb>  (176) 
0.139214

>  <r_i_glide_esite>  (176) 
0

>  <r_i_glide_emodel>  (176) 
-8.23688

>  <r_i_glide_energy>  (176) 
-5.42433

>  <r_i_glide_einternal>  (176) 
0.47047

>  <r_i_glide_intrahb_reward>  (176) 
-0

>  <i_i_glide_confnum>  (176) 
1

>  <i_i_glide_posenum>  (176) 
16

>  <r_i_glide_eff_state_penalty>  (176) 
0

>  <ligand_id>  (176) 
60

>  <original_smiles>  (176) 
CCOC1=C2CCC3C(CCC4CCC5(C)NC6OC6C5C43)C2C(=O)C1=O

>  <smiles>  (176) 
[H]C([H])([H])C([H])([H])OC1=C2C([H])([H])C([H])([H])C3([H])C([H])(C2([H])C(=O)C1=O)C([H])([H])C([H])([H])C1([H])C([H])([H])C([H])([H])C2(C([H])([H])[H])C([H])(C4([H])OC4([H])[N+]2([H])[H])C13[H]

$$$$
62:0:0
     RDKit          3D

 84 88  0  0  1  0  0  0  0  0999 V2000
    1.3837   -2.0369    2.7757 C   0  0  0  0  0  0  0  0  0  0  0  0
    2.7901   -1.6874    2.3246 C   0  0  0  0  0  0  0  0  0  0  0  0
    3.8463   -2.4857    2.1697 C   0  0  0  0  0  0  0  0  0  0  0  0
    3.9652   -3.9115    2.4492 C   0  0  0  0  0  0  0  0  0  0  0  0
    3.6192   -4.4019    3.6543 C   0  0  0  0  0  0  0  0  0  0  0  0
    3.9425   -5.8028    4.1369 C   0  0  0  0  0  0  0  0  0  0  0  0
    5.1712   -6.3895    3.3907 C   0  0  2  0  0  0  0  0  0  0  0  0
    6.2740   -5.5884    3.7800 O   0  0  0  0  0  0  0  0  0  0  0  0
    4.9594   -6.2417    1.8588 C   0  0  1  0  0  0  0  0  0  0  0  0
    3.9038   -7.3054    1.4606 C   0  0  0  0  0  0  0  0  0  0  0  0
    4.3746   -8.7387    1.7417 C   0  0  0  0  0  0  0  0  0  0  0  0
    4.8340   -9.0525    3.1883 C   0  0  2  0  0  0  0  0  0  0  0  0
    5.7823  -10.2860    3.1080 C   0  0  0  0  0  0  0  0  0  0  0  0
    3.6856   -9.2635    4.2220 C   0  0  1  0  0  0  0  0  0  0  0  0
    2.9288  -10.6297    4.3134 C   0  0  2  0  0  0  0  0  0  0  0  0
    2.6156  -11.3907    3.0002 C   0  0  0  0  0  0  0  0  0  0  0  0
    1.6733  -10.5331    5.2058 C   0  0  0  0  0  0  0  0  0  0  0  0
    0.5229   -9.6477    4.7139 C   0  0  0  0  0  0  0  0  0  0  0  0
    0.3906   -9.0708    3.5044 C   0  0  0  0  0  0  0  0  0  0  0  0
   -0.7724   -8.2014    3.0222 C   0  0  0  0  0  0  0  0  0  0  0  0
   -1.8093   -9.0515    2.2710 C   0  0  0  0  0  0  0  0  0  0  0  0
   -1.4171   -7.4017    4.1570 C   0  0  0  0  0  0  0  0  0  0  0  0
   -0.2814   -7.2633    2.0886 O   0  0  0  0  0  0  0  0  0  0  0  0
    4.2867   -8.8155    5.5916 C   0  0  0  0  0  0  0  0  0  0  0  0
    5.6166   -8.0899    5.3101 C   0  0  1  0  0  0  0  0  0  0  0  0
    6.7100   -8.8970    5.7032 O   0  0  0  0  0  0  0  0  0  0  0  0
    5.6329   -7.8475    3.7866 C   0  0  2  0  0  0  0  0  0  0  0  0
    4.6613   -4.7540    1.3717 C   0  0  1  0  0  0  0  0  0  0  0  0
    3.7565   -4.7619    0.1105 C   0  0  0  0  0  0  0  0  0  0  0  0
    6.0089   -4.0316    1.0091 C   0  0  0  0  0  0  0  0  0  0  0  0
    5.9282   -2.5063    0.6914 C   0  0  1  0  0  0  0  0  0  0  0  0
    5.5111   -2.3140   -0.6484 O   0  0  0  0  0  0  0  0  0  0  0  0
    5.0626   -1.7226    1.7180 C   0  0  1  0  0  0  0  0  0  0  0  0
    4.4978   -0.3464    1.2980 C   0  0  0  0  0  0  0  0  0  0  0  0
    3.1408   -0.2458    2.0293 C   0  0  1  0  0  0  0  0  0  0  0  0
    2.1534    0.4276    1.2850 O   0  0  0  0  0  0  0  0  0  0  0  0
    0.6826   -1.7295    2.0028 H   0  0  0  0  0  0  0  0  0  0  0  0
    1.1341   -1.4999    3.6914 H   0  0  0  0  0  0  0  0  0  0  0  0
    1.2585   -3.1083    2.9396 H   0  0  0  0  0  0  0  0  0  0  0  0
    3.1479   -3.7643    4.3907 H   0  0  0  0  0  0  0  0  0  0  0  0
    4.1450   -5.7336    5.2047 H   0  0  0  0  0  0  0  0  0  0  0  0
    3.0433   -6.3966    4.0174 H   0  0  0  0  0  0  0  0  0  0  0  0
    7.0470   -5.9290    3.3541 H   0  0  0  0  0  0  0  0  0  0  0  0
    5.8712   -6.5553    1.3505 H   0  0  0  0  0  0  0  0  0  0  0  0
    2.9391   -7.1128    1.9293 H   0  0  0  0  0  0  0  0  0  0  0  0
    3.7251   -7.2671    0.3868 H   0  0  0  0  0  0  0  0  0  0  0  0
    3.5851   -9.4132    1.4290 H   0  0  0  0  0  0  0  0  0  0  0  0
    5.2090   -8.9350    1.0626 H   0  0  0  0  0  0  0  0  0  0  0  0
    5.9798  -10.7249    4.0866 H   0  0  0  0  0  0  0  0  0  0  0  0
    6.7423  -10.0071    2.6681 H   0  0  0  0  0  0  0  0  0  0  0  0
    5.3985  -11.0829    2.4740 H   0  0  0  0  0  0  0  0  0  0  0  0
    2.9385   -8.5064    3.9875 H   0  0  0  0  0  0  0  0  0  0  0  0
    3.5869  -11.3042    4.8597 H   0  0  0  0  0  0  0  0  0  0  0  0
    2.1228  -10.8012    2.2565 H   0  0  0  0  0  0  0  0  0  0  0  0
    1.9685  -12.2500    3.2080 H   0  0  0  0  0  0  0  0  0  0  0  0
    3.5032  -11.8512    2.5489 H   0  0  0  0  0  0  0  0  0  0  0  0
    1.2625  -11.5264    5.3332 H   0  0  0  0  0  0  0  0  0  0  0  0
    1.9321  -10.2173    6.2125 H   0  0  0  0  0  0  0  0  0  0  0  0
   -0.2508   -9.5101    5.4665 H   0  0  0  0  0  0  0  0  0  0  0  0
    1.1480   -9.1957    2.7647 H   0  0  0  0  0  0  0  0  0  0  0  0
   -2.2231   -9.8285    2.9067 H   0  0  0  0  0  0  0  0  0  0  0  0
   -1.3942   -9.5521    1.4093 H   0  0  0  0  0  0  0  0  0  0  0  0
   -2.6229   -8.4385    1.9090 H   0  0  0  0  0  0  0  0  0  0  0  0
   -1.8503   -8.0753    4.8879 H   0  0  0  0  0  0  0  0  0  0  0  0
   -2.2116   -6.7578    3.7956 H   0  0  0  0  0  0  0  0  0  0  0  0
   -0.6769   -6.7809    4.6564 H   0  0  0  0  0  0  0  0  0  0  0  0
    0.1284   -7.7735    1.4089 H   0  0  0  0  0  0  0  0  0  0  0  0
    3.6047   -8.1322    6.1105 H   0  0  0  0  0  0  0  0  0  0  0  0
    4.4415   -9.6442    6.2900 H   0  0  0  0  0  0  0  0  0  0  0  0
    5.7235   -7.1658    5.8746 H   0  0  0  0  0  0  0  0  0  0  0  0
    6.6537   -9.7202    5.2411 H   0  0  0  0  0  0  0  0  0  0  0  0
    6.6584   -7.9392    3.4148 H   0  0  0  0  0  0  0  0  0  0  0  0
    4.2451   -5.2858   -0.7120 H   0  0  0  0  0  0  0  0  0  0  0  0
    3.5128   -3.7606   -0.2340 H   0  0  0  0  0  0  0  0  0  0  0  0
    2.7894   -5.2303    0.3027 H   0  0  0  0  0  0  0  0  0  0  0  0
    6.6868   -4.1157    1.8509 H   0  0  0  0  0  0  0  0  0  0  0  0
    6.5043   -4.5489    0.1880 H   0  0  0  0  0  0  0  0  0  0  0  0
    6.9355   -2.0957    0.7300 H   0  0  0  0  0  0  0  0  0  0  0  0
    4.6207   -2.6283   -0.7224 H   0  0  0  0  0  0  0  0  0  0  0  0
    5.6532   -1.6027    2.6249 H   0  0  0  0  0  0  0  0  0  0  0  0
    5.1745    0.4676    1.5237 H   0  0  0  0  0  0  0  0  0  0  0  0
    4.3161   -0.3048    0.2230 H   0  0  0  0  0  0  0  0  0  0  0  0
    3.2733    0.2710    2.9844 H   0  0  0  0  0  0  0  0  0  0  0  0
    1.8313   -0.1506    0.5741 H   0  0  0  0  0  0  0  0  0  0  0  0
  1  2  1  0
  1 37  1  0
  1 38  1  0
  1 39  1  0
  2 35  1  0
  2  3  2  0
  3 33  1  0
  3  4  1  0
  4 28  1  0
  4  5  2  0
  5  6  1  0
  5 40  1  0
  6  7  1  0
  6 41  1  0
  6 42  1  0
  7 27  1  0
  7  8  1  1
  7  9  1  0
  8 43  1  0
  9 10  1  0
  9 28  1  0
  9 44  1  6
 10 11  1  0
 10 45  1  0
 10 46  1  0
 11 12  1  0
 11 47  1  0
 11 48  1  0
 12 27  1  0
 12 13  1  6
 12 14  1  0
 13 49  1  0
 13 50  1  0
 13 51  1  0
 14 15  1  0
 14 24  1  0
 14 52  1  6
 15 16  1  0
 15 17  1  0
 15 53  1  1
 16 54  1  0
 16 55  1  0
 16 56  1  0
 17 18  1  0
 17 57  1  0
 17 58  1  0
 18 19  2  3
 18 59  1  0
 19 20  1  0
 19 60  1  0
 20 21  1  0
 20 22  1  0
 20 23  1  0
 21 61  1  0
 21 62  1  0
 21 63  1  0
 22 64  1  0
 22 65  1  0
 22 66  1  0
 23 67  1  0
 24 25  1  0
 24 68  1  0
 24 69  1  0
 25 26  1  0
 25 27  1  0
 25 70  1  1
 26 71  1  0
 27 72  1  6
 28 29  1  6
 28 30  1  0
 29 73  1  0
 29 74  1  0
 29 75  1  0
 30 31  1  0
 30 76  1  0
 30 77  1  0
 31 32  1  0
 31 33  1  0
 31 78  1  6
 32 79  1  0
 33 34  1  0
 33 80  1  1
 34 35  1  0
 34 81  1  0
 34 82  1  0
 35 36  1  0
 35 83  1  1
 36 84  1  0
M  END
>  <i_m_ct_stereo_status>  (177) 
1

>  <s_m_source_file>  (177) 
/var/tmp/pbs.5076255.sched01/tmprae_yccg/80g5h6lheg.sdf

>  <i_m_source_file_index>  (177) 
5

>  <i_lp_mmshare_version>  (177) 
48012

>  <i_f3d_flags>  (177) 
0

>  <s_epik_input>  (177) 
W0NIM11DPTFbQ0BIXShbT0hdKVtDSDJdW0NASF0oW0NAQEhdKFtDSDJdMilbT0hdKUMxQyg9W0NIXVtDSDJdMylbQ0BdMihbQ0gzXSlbQ0BASF0oW0NAQF0zNFtPSF0pW0NIMl1bQ0gyXVtDQEBdNShbQ0gzXSlbQ0BASF00W0NASF0oW09IXSlbQ0gyXVtDQEBIXTVbQ0BIXShbQ0gzXSlbQ0gyXS9bQ0hdPVtDSF0vQyhbQ0gzXSkoW0NIM10pW09IXQ==

>  <s_epik_cmdline>  (177) 
J2VwaWtfcHl0aG9uJywgJy1waHQnLCAnMi4wJywgJy1waCcsICc3LjAnLCAnLXRuJywgJzgnLCAnLW1hJywgJzIwMCcsICctaW1hZScsICc8aW5maWxlLm1hZT4nLCAnLW9tYWUnLCAnPG91dGZpbGUubWFlPic=

>  <r_lp_tautomer_probability>  (177) 
1

>  <r_epik_Ionization_Penalty>  (177) 
4.47859e-06

>  <r_epik_Ionization_Penalty_Charging>  (177) 
0

>  <r_epik_Ionization_Penalty_Neutral>  (177) 
4.47859e-06

>  <r_epik_State_Penalty>  (177) 
-0

>  <r_epik_Charging_Adjusted_Penalty>  (177) 
0

>  <i_epik_Tot_Q>  (177) 
0

>  <i_epik_Tot_abs_Q>  (177) 
0

>  <s_lp_Force_Field>  (177) 
OPLS3e

>  <r_lp_Energy>  (177) 
50.3617

>  <b_lp_Chiralities_Consistent>  (177) 
1

>  <s_lp_Variant>  (177) 
62:0-1

>  <s_i_glide_gridfile>  (177) 
pfpi4k_grid

>  <i_i_glide_lignum>  (177) 
5

>  <i_i_glide_rotatable_bonds>  (177) 
9

>  <r_i_docking_score>  (177) 
-3.04329

>  <r_i_glide_ligand_efficiency>  (177) 
-0.0845358

>  <r_i_glide_ligand_efficiency_sa>  (177) 
-0.279131

>  <r_i_glide_ligand_efficiency_ln>  (177) 
-0.663963

>  <r_i_glide_gscore>  (177) 
-3.04329

>  <r_i_glide_lipo>  (177) 
-0.778493

>  <r_i_glide_hbond>  (177) 
-0.16875

>  <r_i_glide_metal>  (177) 
-0

>  <r_i_glide_rewards>  (177) 
0

>  <r_i_glide_evdw>  (177) 
-27.2477

>  <r_i_glide_ecoul>  (177) 
-7.06319

>  <r_i_glide_erotb>  (177) 
0.325818

>  <r_i_glide_esite>  (177) 
0

>  <r_i_glide_emodel>  (177) 
-39.6679

>  <r_i_glide_energy>  (177) 
-34.3109

>  <r_i_glide_einternal>  (177) 
2.7472

>  <r_i_glide_intrahb_reward>  (177) 
-0

>  <i_i_glide_confnum>  (177) 
3

>  <i_i_glide_posenum>  (177) 
12

>  <r_i_glide_eff_state_penalty>  (177) 
0

>  <ligand_id>  (177) 
62

>  <original_smiles>  (177) 
CC1=C2C3=CCC4(O)C(CCC5(C)C(C(C)CC=CC(C)(C)O)CC(O)C54)C3(C)CC(O)C2CC1O

>  <smiles>  (177) 
[H]OC1([H])C(C([H])([H])[H])=C2C3=C([H])C([H])([H])C4(O[H])C([H])(C([H])([H])C([H])([H])C5(C([H])([H])[H])C([H])(C([H])(C([H])([H])[H])C([H])([H])C([H])=C([H])C(O[H])(C([H])([H])[H])C([H])([H])[H])C([H])([H])C([H])(O[H])C45[H])C3(C([H])([H])[H])C([H])([H])C([H])(O[H])C2([H])C1([H])[H]

$$$$
62:0:1
     RDKit          3D

 84 88  0  0  1  0  0  0  0  0999 V2000
    0.0430   -8.7222    3.9775 C   0  0  0  0  0  0  0  0  0  0  0  0
    1.1921   -9.5135    3.3881 C   0  0  0  0  0  0  0  0  0  0  0  0
    2.3389   -9.0614    2.8583 C   0  0  0  0  0  0  0  0  0  0  0  0
    2.7639   -7.6958    2.6345 C   0  0  0  0  0  0  0  0  0  0  0  0
    1.9768   -6.8380    1.9514 C   0  0  0  0  0  0  0  0  0  0  0  0
    2.4263   -5.4862    1.4302 C   0  0  0  0  0  0  0  0  0  0  0  0
    3.9685   -5.4348    1.2280 C   0  0  2  0  0  0  0  0  0  0  0  0
    4.2598   -6.3562    0.1888 O   0  0  0  0  0  0  0  0  0  0  0  0
    4.6609   -5.9149    2.5341 C   0  0  1  0  0  0  0  0  0  0  0  0
    4.4996   -4.7690    3.5714 C   0  0  0  0  0  0  0  0  0  0  0  0
    5.1637   -3.4701    3.1077 C   0  0  0  0  0  0  0  0  0  0  0  0
    4.7735   -2.9148    1.7189 C   0  0  2  0  0  0  0  0  0  0  0  0
    5.9497   -2.0127    1.2301 C   0  0  0  0  0  0  0  0  0  0  0  0
    3.4057   -2.1666    1.6764 C   0  0  1  0  0  0  0  0  0  0  0  0
    3.2912   -0.6651    2.1380 C   0  0  2  0  0  0  0  0  0  0  0  0
    4.0197   -0.3071    3.4476 C   0  0  0  0  0  0  0  0  0  0  0  0
    1.8227   -0.1659    2.2469 C   0  0  0  0  0  0  0  0  0  0  0  0
    0.9612   -0.9131    3.2588 C   0  0  0  0  0  0  0  0  0  0  0  0
    0.3041   -0.3629    4.2991 C   0  0  0  0  0  0  0  0  0  0  0  0
   -0.5717   -1.1029    5.3095 C   0  0  0  0  0  0  0  0  0  0  0  0
   -2.0509   -0.7628    5.0971 C   0  0  0  0  0  0  0  0  0  0  0  0
   -0.3548   -2.6285    5.3068 C   0  0  0  0  0  0  0  0  0  0  0  0
   -0.2702   -0.6552    6.6132 O   0  0  0  0  0  0  0  0  0  0  0  0
    2.9016   -2.3762    0.2229 C   0  0  0  0  0  0  0  0  0  0  0  0
    3.7713   -3.4532   -0.4478 C   0  0  1  0  0  0  0  0  0  0  0  0
    4.6270   -2.8748   -1.4159 O   0  0  0  0  0  0  0  0  0  0  0  0
    4.5864   -4.0822    0.6990 C   0  0  2  0  0  0  0  0  0  0  0  0
    4.2071   -7.3592    3.0314 C   0  0  1  0  0  0  0  0  0  0  0  0
    4.3095   -7.4609    4.5768 C   0  0  0  0  0  0  0  0  0  0  0  0
    5.1377   -8.4636    2.4060 C   0  0  0  0  0  0  0  0  0  0  0  0
    4.7197   -9.9460    2.6381 C   0  0  1  0  0  0  0  0  0  0  0  0
    5.1369  -10.3568    3.9246 O   0  0  0  0  0  0  0  0  0  0  0  0
    3.2058  -10.1958    2.3831 C   0  0  1  0  0  0  0  0  0  0  0  0
    2.5508  -11.4506    3.0118 C   0  0  0  0  0  0  0  0  0  0  0  0
    1.1017  -11.0214    3.3087 C   0  0  1  0  0  0  0  0  0  0  0  0
    0.6177  -11.6010    4.5020 O   0  0  0  0  0  0  0  0  0  0  0  0
   -0.1141   -9.0248    5.0150 H   0  0  0  0  0  0  0  0  0  0  0  0
   -0.8779   -8.9258    3.4257 H   0  0  0  0  0  0  0  0  0  0  0  0
    0.2340   -7.6474    3.9717 H   0  0  0  0  0  0  0  0  0  0  0  0
    0.9782   -7.1351    1.6720 H   0  0  0  0  0  0  0  0  0  0  0  0
    1.9078   -5.3139    0.4874 H   0  0  0  0  0  0  0  0  0  0  0  0
    2.0647   -4.7386    2.1298 H   0  0  0  0  0  0  0  0  0  0  0  0
    3.8475   -6.0535   -0.6115 H   0  0  0  0  0  0  0  0  0  0  0  0
    5.7328   -5.9790    2.3388 H   0  0  0  0  0  0  0  0  0  0  0  0
    3.4560   -4.6009    3.8344 H   0  0  0  0  0  0  0  0  0  0  0  0
    5.0012   -5.0259    4.5080 H   0  0  0  0  0  0  0  0  0  0  0  0
    5.0525   -2.7256    3.8872 H   0  0  0  0  0  0  0  0  0  0  0  0
    6.2089   -3.7033    3.0577 H   0  0  0  0  0  0  0  0  0  0  0  0
    5.6787   -1.4160    0.3588 H   0  0  0  0  0  0  0  0  0  0  0  0
    6.8134   -2.6180    0.9541 H   0  0  0  0  0  0  0  0  0  0  0  0
    6.3210   -1.3184    1.9836 H   0  0  0  0  0  0  0  0  0  0  0  0
    2.7575   -2.7462    2.3289 H   0  0  0  0  0  0  0  0  0  0  0  0
    3.7468   -0.0531    1.3643 H   0  0  0  0  0  0  0  0  0  0  0  0
    3.7142   -0.9665    4.2608 H   0  0  0  0  0  0  0  0  0  0  0  0
    3.7917    0.7187    3.7445 H   0  0  0  0  0  0  0  0  0  0  0  0
    5.1049   -0.3511    3.3567 H   0  0  0  0  0  0  0  0  0  0  0  0
    1.8225    0.9017    2.4848 H   0  0  0  0  0  0  0  0  0  0  0  0
    1.3166   -0.2364    1.2871 H   0  0  0  0  0  0  0  0  0  0  0  0
    0.8822   -1.9748    3.0905 H   0  0  0  0  0  0  0  0  0  0  0  0
    0.3916    0.7047    4.4441 H   0  0  0  0  0  0  0  0  0  0  0  0
   -2.3876   -1.0503    4.1028 H   0  0  0  0  0  0  0  0  0  0  0  0
   -2.2343    0.3066    5.2163 H   0  0  0  0  0  0  0  0  0  0  0  0
   -2.6689   -1.2928    5.8205 H   0  0  0  0  0  0  0  0  0  0  0  0
   -0.5864   -3.0643    4.3382 H   0  0  0  0  0  0  0  0  0  0  0  0
   -0.9896   -3.1266    6.0414 H   0  0  0  0  0  0  0  0  0  0  0  0
    0.6793   -2.8840    5.5374 H   0  0  0  0  0  0  0  0  0  0  0  0
    0.6645   -0.7428    6.7461 H   0  0  0  0  0  0  0  0  0  0  0  0
    1.8595   -2.7016    0.2410 H   0  0  0  0  0  0  0  0  0  0  0  0
    2.9342   -1.4545   -0.3607 H   0  0  0  0  0  0  0  0  0  0  0  0
    3.1724   -4.1835   -0.9875 H   0  0  0  0  0  0  0  0  0  0  0  0
    4.0858   -2.4711   -2.0812 H   0  0  0  0  0  0  0  0  0  0  0  0
    5.5777   -4.3482    0.3262 H   0  0  0  0  0  0  0  0  0  0  0  0
    5.3357   -7.3087    4.9183 H   0  0  0  0  0  0  0  0  0  0  0  0
    3.9906   -8.4310    4.9481 H   0  0  0  0  0  0  0  0  0  0  0  0
    3.6596   -6.7450    5.0813 H   0  0  0  0  0  0  0  0  0  0  0  0
    5.1668   -8.3305    1.3290 H   0  0  0  0  0  0  0  0  0  0  0  0
    6.1715   -8.3203    2.7357 H   0  0  0  0  0  0  0  0  0  0  0  0
    5.2783  -10.5776    1.9456 H   0  0  0  0  0  0  0  0  0  0  0  0
    4.8649  -11.2574    4.0417 H   0  0  0  0  0  0  0  0  0  0  0  0
    3.0485  -10.2049    1.3068 H   0  0  0  0  0  0  0  0  0  0  0  0
    2.6258  -12.3469    2.3969 H   0  0  0  0  0  0  0  0  0  0  0  0
    3.0313  -11.7104    3.9567 H   0  0  0  0  0  0  0  0  0  0  0  0
    0.4376  -11.2846    2.4818 H   0  0  0  0  0  0  0  0  0  0  0  0
   -0.2952  -11.3365    4.6401 H   0  0  0  0  0  0  0  0  0  0  0  0
  1  2  1  0
  1 37  1  0
  1 38  1  0
  1 39  1  0
  2 35  1  0
  2  3  2  0
  3 33  1  0
  3  4  1  0
  4 28  1  0
  4  5  2  0
  5  6  1  0
  5 40  1  0
  6  7  1  0
  6 41  1  0
  6 42  1  0
  7 27  1  0
  7  8  1  6
  7  9  1  0
  8 43  1  0
  9 10  1  0
  9 28  1  0
  9 44  1  6
 10 11  1  0
 10 45  1  0
 10 46  1  0
 11 12  1  0
 11 47  1  0
 11 48  1  0
 12 27  1  0
 12 13  1  6
 12 14  1  0
 13 49  1  0
 13 50  1  0
 13 51  1  0
 14 15  1  0
 14 24  1  0
 14 52  1  1
 15 16  1  0
 15 17  1  0
 15 53  1  6
 16 54  1  0
 16 55  1  0
 16 56  1  0
 17 18  1  0
 17 57  1  0
 17 58  1  0
 18 19  2  3
 18 59  1  0
 19 20  1  0
 19 60  1  0
 20 21  1  0
 20 22  1  0
 20 23  1  0
 21 61  1  0
 21 62  1  0
 21 63  1  0
 22 64  1  0
 22 65  1  0
 22 66  1  0
 23 67  1  0
 24 25  1  0
 24 68  1  0
 24 69  1  0
 25 26  1  0
 25 27  1  0
 25 70  1  6
 26 71  1  0
 27 72  1  6
 28 29  1  1
 28 30  1  0
 29 73  1  0
 29 74  1  0
 29 75  1  0
 30 31  1  0
 30 76  1  0
 30 77  1  0
 31 32  1  0
 31 33  1  0
 31 78  1  6
 32 79  1  0
 33 34  1  0
 33 80  1  6
 34 35  1  0
 34 81  1  0
 34 82  1  0
 35 36  1  0
 35 83  1  6
 36 84  1  0
M  END
>  <i_m_ct_stereo_status>  (178) 
1

>  <s_m_source_file>  (178) 
/var/tmp/pbs.5076255.sched01/tmprae_yccg/80g5h6lheg.sdf

>  <i_m_source_file_index>  (178) 
5

>  <i_lp_mmshare_version>  (178) 
48012

>  <i_f3d_flags>  (178) 
0

>  <s_epik_input>  (178) 
W0NIM11DPTFbQ0BIXShbT0hdKVtDSDJdW0NASF0oW0NAQEhdKFtDSDJdMilbT0hdKUMxQyg9W0NIXVtDSDJdMylbQ0BdMihbQ0gzXSlbQ0BASF0oW0NAQF0zNFtPSF0pW0NIMl1bQ0gyXVtDQEBdNShbQ0gzXSlbQ0BASF00W0NASF0oW09IXSlbQ0gyXVtDQEBIXTVbQ0BIXShbQ0gzXSlbQ0gyXS9bQ0hdPVtDSF0vQyhbQ0gzXSkoW0NIM10pW09IXQ==

>  <s_epik_cmdline>  (178) 
J2VwaWtfcHl0aG9uJywgJy1waHQnLCAnMi4wJywgJy1waCcsICc3LjAnLCAnLXRuJywgJzgnLCAnLW1hJywgJzIwMCcsICctaW1hZScsICc8aW5maWxlLm1hZT4nLCAnLW9tYWUnLCAnPG91dGZpbGUubWFlPic=

>  <r_lp_tautomer_probability>  (178) 
1

>  <r_epik_Ionization_Penalty>  (178) 
4.47859e-06

>  <r_epik_Ionization_Penalty_Charging>  (178) 
0

>  <r_epik_Ionization_Penalty_Neutral>  (178) 
4.47859e-06

>  <r_epik_State_Penalty>  (178) 
-0

>  <r_epik_Charging_Adjusted_Penalty>  (178) 
0

>  <i_epik_Tot_Q>  (178) 
0

>  <i_epik_Tot_abs_Q>  (178) 
0

>  <s_lp_Force_Field>  (178) 
OPLS3e

>  <r_lp_Energy>  (178) 
50.3617

>  <b_lp_Chiralities_Consistent>  (178) 
1

>  <s_lp_Variant>  (178) 
62:0-1

>  <s_i_glide_gridfile>  (178) 
pfpi4k_grid

>  <i_i_glide_lignum>  (178) 
5

>  <i_i_glide_rotatable_bonds>  (178) 
9

>  <r_i_docking_score>  (178) 
-3.00813

>  <r_i_glide_ligand_efficiency>  (178) 
-0.0835592

>  <r_i_glide_ligand_efficiency_sa>  (178) 
-0.275906

>  <r_i_glide_ligand_efficiency_ln>  (178) 
-0.656293

>  <r_i_glide_gscore>  (178) 
-3.00813

>  <r_i_glide_lipo>  (178) 
-0.540049

>  <r_i_glide_hbond>  (178) 
-0.365342

>  <r_i_glide_metal>  (178) 
-0

>  <r_i_glide_rewards>  (178) 
0

>  <r_i_glide_evdw>  (178) 
-28.0581

>  <r_i_glide_ecoul>  (178) 
-6.83768

>  <r_i_glide_erotb>  (178) 
0.325818

>  <r_i_glide_esite>  (178) 
0

>  <r_i_glide_emodel>  (178) 
-40.0612

>  <r_i_glide_energy>  (178) 
-34.8958

>  <r_i_glide_einternal>  (178) 
2.54988

>  <r_i_glide_intrahb_reward>  (178) 
-0

>  <i_i_glide_confnum>  (178) 
3

>  <i_i_glide_posenum>  (178) 
11

>  <r_i_glide_eff_state_penalty>  (178) 
0

>  <ligand_id>  (178) 
62

>  <original_smiles>  (178) 
CC1=C2C3=CCC4(O)C(CCC5(C)C(C(C)CC=CC(C)(C)O)CC(O)C54)C3(C)CC(O)C2CC1O

>  <smiles>  (178) 
[H]OC1([H])C(C([H])([H])[H])=C2C3=C([H])C([H])([H])C4(O[H])C([H])(C([H])([H])C([H])([H])C5(C([H])([H])[H])C([H])(C([H])(C([H])([H])[H])C([H])([H])C([H])=C([H])C(O[H])(C([H])([H])[H])C([H])([H])[H])C([H])([H])C([H])(O[H])C45[H])C3(C([H])([H])[H])C([H])([H])C([H])(O[H])C2([H])C1([H])[H]

$$$$
62:0:2
     RDKit          3D

 84 88  0  0  1  0  0  0  0  0999 V2000
    0.0471   -8.6843    3.9246 C   0  0  0  0  0  0  0  0  0  0  0  0
    1.2154   -9.4771    3.3741 C   0  0  0  0  0  0  0  0  0  0  0  0
    2.3749   -9.0233    2.8818 C   0  0  0  0  0  0  0  0  0  0  0  0
    2.7970   -7.6590    2.6580 C   0  0  0  0  0  0  0  0  0  0  0  0
    2.0285   -6.8084    1.9471 C   0  0  0  0  0  0  0  0  0  0  0  0
    2.4890   -5.4638    1.4274 C   0  0  0  0  0  0  0  0  0  0  0  0
    4.0379   -5.4026    1.2749 C   0  0  2  0  0  0  0  0  0  0  0  0
    4.3664   -6.3317    0.2597 O   0  0  0  0  0  0  0  0  0  0  0  0
    4.6904   -5.8712    2.6070 C   0  0  1  0  0  0  0  0  0  0  0  0
    4.4925   -4.7168    3.6253 C   0  0  0  0  0  0  0  0  0  0  0  0
    5.1651   -3.4232    3.1639 C   0  0  0  0  0  0  0  0  0  0  0  0
    4.8230   -2.8706    1.7600 C   0  0  2  0  0  0  0  0  0  0  0  0
    6.0234   -1.9807    1.2930 C   0  0  0  0  0  0  0  0  0  0  0  0
    3.4560   -2.1291    1.6772 C   0  0  1  0  0  0  0  0  0  0  0  0
    3.3065   -0.6238    2.1393 C   0  0  2  0  0  0  0  0  0  0  0  0
    4.0252   -0.2225    3.4450 C   0  0  0  0  0  0  0  0  0  0  0  0
    1.8313   -0.1498    2.2396 C   0  0  0  0  0  0  0  0  0  0  0  0
    0.9845   -0.8967    3.2658 C   0  0  0  0  0  0  0  0  0  0  0  0
    0.2895   -0.3587    4.2613 C   0  0  0  0  0  0  0  0  0  0  0  0
   -0.5721   -1.0980    5.2852 C   0  0  0  0  0  0  0  0  0  0  0  0
   -2.0556   -0.7701    5.0878 C   0  0  0  0  0  0  0  0  0  0  0  0
   -0.3510   -2.6284    5.2777 C   0  0  0  0  0  0  0  0  0  0  0  0
   -0.2718   -0.6543    6.5820 O   0  0  0  0  0  0  0  0  0  0  0  0
    2.9858   -2.3507    0.2103 C   0  0  0  0  0  0  0  0  0  0  0  0
    3.8783   -3.4326   -0.4190 C   0  0  1  0  0  0  0  0  0  0  0  0
    4.7438   -2.8629   -1.3708 O   0  0  0  0  0  0  0  0  0  0  0  0
    4.6655   -4.0524    0.7545 C   0  0  2  0  0  0  0  0  0  0  0  0
    4.2266   -7.3073    3.1021 C   0  0  1  0  0  0  0  0  0  0  0  0
    4.2810   -7.3930    4.6489 C   0  0  0  0  0  0  0  0  0  0  0  0
    5.1798   -8.4138    2.5189 C   0  0  0  0  0  0  0  0  0  0  0  0
    4.7692   -9.8983    2.7503 C   0  0  1  0  0  0  0  0  0  0  0  0
    5.1585  -10.2949    4.0451 O   0  0  0  0  0  0  0  0  0  0  0  0
    3.2648  -10.1613    2.4509 C   0  0  1  0  0  0  0  0  0  0  0  0
    2.5954  -11.4149    3.0707 C   0  0  0  0  0  0  0  0  0  0  0  0
    1.1319  -10.9854    3.3199 C   0  0  1  0  0  0  0  0  0  0  0  0
    0.6137  -11.5351    4.5147 O   0  0  0  0  0  0  0  0  0  0  0  0
   -0.1405   -8.9815    4.9569 H   0  0  0  0  0  0  0  0  0  0  0  0
   -0.8530   -8.8997    3.3487 H   0  0  0  0  0  0  0  0  0  0  0  0
    0.2334   -7.6092    3.9172 H   0  0  0  0  0  0  0  0  0  0  0  0
    1.0373   -7.1098    1.6293 H   0  0  0  0  0  0  0  0  0  0  0  0
    2.0033   -5.3006    0.4650 H   0  0  0  0  0  0  0  0  0  0  0  0
    2.1059   -4.7143    2.1100 H   0  0  0  0  0  0  0  0  0  0  0  0
    3.9675   -6.0367   -0.5628 H   0  0  0  0  0  0  0  0  0  0  0  0
    5.7663   -5.9338    2.4432 H   0  0  0  0  0  0  0  0  0  0  0  0
    3.4445   -4.5425    3.8477 H   0  0  0  0  0  0  0  0  0  0  0  0
    4.9684   -4.9611    4.5815 H   0  0  0  0  0  0  0  0  0  0  0  0
    5.0316   -2.6797    3.9372 H   0  0  0  0  0  0  0  0  0  0  0  0
    6.2080   -3.6521    3.1480 H   0  0  0  0  0  0  0  0  0  0  0  0
    5.7594   -1.3675    0.4260 H   0  0  0  0  0  0  0  0  0  0  0  0
    6.8803   -2.6048    1.0294 H   0  0  0  0  0  0  0  0  0  0  0  0
    6.3968   -1.2957    2.0599 H   0  0  0  0  0  0  0  0  0  0  0  0
    2.8017   -2.7283    2.3061 H   0  0  0  0  0  0  0  0  0  0  0  0
    3.7489   -0.0126    1.3602 H   0  0  0  0  0  0  0  0  0  0  0  0
    3.7232   -0.8784    4.2642 H   0  0  0  0  0  0  0  0  0  0  0  0
    3.7572    0.8052    3.7123 H   0  0  0  0  0  0  0  0  0  0  0  0
    5.1179   -0.2348    3.3553 H   0  0  0  0  0  0  0  0  0  0  0  0
    1.8246    0.9268    2.4615 H   0  0  0  0  0  0  0  0  0  0  0  0
    1.3139   -0.2416    1.2844 H   0  0  0  0  0  0  0  0  0  0  0  0
    0.9590   -1.9767    3.1330 H   0  0  0  0  0  0  0  0  0  0  0  0
    0.3237    0.7275    4.3760 H   0  0  0  0  0  0  0  0  0  0  0  0
   -2.4041   -1.0565    4.0983 H   0  0  0  0  0  0  0  0  0  0  0  0
   -2.2431    0.2985    5.2113 H   0  0  0  0  0  0  0  0  0  0  0  0
   -2.6585   -1.3054    5.8177 H   0  0  0  0  0  0  0  0  0  0  0  0
   -0.5851   -3.0599    4.3095 H   0  0  0  0  0  0  0  0  0  0  0  0
   -0.9792   -3.1303    6.0163 H   0  0  0  0  0  0  0  0  0  0  0  0
    0.6871   -2.8777    5.4960 H   0  0  0  0  0  0  0  0  0  0  0  0
    0.6747   -0.7413    6.7040 H   0  0  0  0  0  0  0  0  0  0  0  0
    1.9458   -2.6824    0.1945 H   0  0  0  0  0  0  0  0  0  0  0  0
    3.0263   -1.4376   -0.3905 H   0  0  0  0  0  0  0  0  0  0  0  0
    3.3125   -4.1717   -0.9802 H   0  0  0  0  0  0  0  0  0  0  0  0
    5.2144   -2.1534   -0.9353 H   0  0  0  0  0  0  0  0  0  0  0  0
    5.6670   -4.3214    0.4122 H   0  0  0  0  0  0  0  0  0  0  0  0
    5.2983   -7.2358    5.0164 H   0  0  0  0  0  0  0  0  0  0  0  0
    3.9459   -8.3542    5.0230 H   0  0  0  0  0  0  0  0  0  0  0  0
    3.6149   -6.6725    5.1240 H   0  0  0  0  0  0  0  0  0  0  0  0
    5.2389   -8.2893    1.4441 H   0  0  0  0  0  0  0  0  0  0  0  0
    6.2031   -8.2611    2.8733 H   0  0  0  0  0  0  0  0  0  0  0  0
    5.3519  -10.5299    2.0764 H   0  0  0  0  0  0  0  0  0  0  0  0
    4.5293   -9.9195    4.6634 H   0  0  0  0  0  0  0  0  0  0  0  0
    3.1389  -10.1896    1.3724 H   0  0  0  0  0  0  0  0  0  0  0  0
    2.6945  -12.3160    2.4629 H   0  0  0  0  0  0  0  0  0  0  0  0
    3.0574  -11.6663    4.0281 H   0  0  0  0  0  0  0  0  0  0  0  0
    0.4894  -11.2582    2.4795 H   0  0  0  0  0  0  0  0  0  0  0  0
   -0.3059  -11.2869    4.6180 H   0  0  0  0  0  0  0  0  0  0  0  0
  1  2  1  0
  1 37  1  0
  1 38  1  0
  1 39  1  0
  2 35  1  0
  2  3  2  0
  3 33  1  0
  3  4  1  0
  4 28  1  0
  4  5  2  0
  5  6  1  0
  5 40  1  0
  6  7  1  0
  6 41  1  0
  6 42  1  0
  7 27  1  0
  7  8  1  6
  7  9  1  0
  8 43  1  0
  9 10  1  0
  9 28  1  0
  9 44  1  6
 10 11  1  0
 10 45  1  0
 10 46  1  0
 11 12  1  0
 11 47  1  0
 11 48  1  0
 12 27  1  0
 12 13  1  6
 12 14  1  0
 13 49  1  0
 13 50  1  0
 13 51  1  0
 14 15  1  0
 14 24  1  0
 14 52  1  1
 15 16  1  0
 15 17  1  0
 15 53  1  6
 16 54  1  0
 16 55  1  0
 16 56  1  0
 17 18  1  0
 17 57  1  0
 17 58  1  0
 18 19  2  3
 18 59  1  0
 19 20  1  0
 19 60  1  0
 20 21  1  0
 20 22  1  0
 20 23  1  0
 21 61  1  0
 21 62  1  0
 21 63  1  0
 22 64  1  0
 22 65  1  0
 22 66  1  0
 23 67  1  0
 24 25  1  0
 24 68  1  0
 24 69  1  0
 25 26  1  0
 25 27  1  0
 25 70  1  6
 26 71  1  0
 27 72  1  6
 28 29  1  1
 28 30  1  0
 29 73  1  0
 29 74  1  0
 29 75  1  0
 30 31  1  0
 30 76  1  0
 30 77  1  0
 31 32  1  0
 31 33  1  0
 31 78  1  6
 32 79  1  0
 33 34  1  0
 33 80  1  6
 34 35  1  0
 34 81  1  0
 34 82  1  0
 35 36  1  0
 35 83  1  6
 36 84  1  0
M  END
>  <i_m_ct_stereo_status>  (179) 
1

>  <s_m_source_file>  (179) 
/var/tmp/pbs.5076255.sched01/tmprae_yccg/80g5h6lheg.sdf

>  <i_m_source_file_index>  (179) 
5

>  <i_lp_mmshare_version>  (179) 
48012

>  <i_f3d_flags>  (179) 
0

>  <s_epik_input>  (179) 
W0NIM11DPTFbQ0BIXShbT0hdKVtDSDJdW0NASF0oW0NAQEhdKFtDSDJdMilbT0hdKUMxQyg9W0NIXVtDSDJdMylbQ0BdMihbQ0gzXSlbQ0BASF0oW0NAQF0zNFtPSF0pW0NIMl1bQ0gyXVtDQEBdNShbQ0gzXSlbQ0BASF00W0NASF0oW09IXSlbQ0gyXVtDQEBIXTVbQ0BIXShbQ0gzXSlbQ0gyXS9bQ0hdPVtDSF0vQyhbQ0gzXSkoW0NIM10pW09IXQ==

>  <s_epik_cmdline>  (179) 
J2VwaWtfcHl0aG9uJywgJy1waHQnLCAnMi4wJywgJy1waCcsICc3LjAnLCAnLXRuJywgJzgnLCAnLW1hJywgJzIwMCcsICctaW1hZScsICc8aW5maWxlLm1hZT4nLCAnLW9tYWUnLCAnPG91dGZpbGUubWFlPic=

>  <r_lp_tautomer_probability>  (179) 
1

>  <r_epik_Ionization_Penalty>  (179) 
4.47859e-06

>  <r_epik_Ionization_Penalty_Charging>  (179) 
0

>  <r_epik_Ionization_Penalty_Neutral>  (179) 
4.47859e-06

>  <r_epik_State_Penalty>  (179) 
-0

>  <r_epik_Charging_Adjusted_Penalty>  (179) 
0

>  <i_epik_Tot_Q>  (179) 
0

>  <i_epik_Tot_abs_Q>  (179) 
0

>  <s_lp_Force_Field>  (179) 
OPLS3e

>  <r_lp_Energy>  (179) 
50.3617

>  <b_lp_Chiralities_Consistent>  (179) 
1

>  <s_lp_Variant>  (179) 
62:0-1

>  <s_i_glide_gridfile>  (179) 
pfpi4k_grid

>  <i_i_glide_lignum>  (179) 
5

>  <i_i_glide_rotatable_bonds>  (179) 
9

>  <r_i_docking_score>  (179) 
-2.78474

>  <r_i_glide_ligand_efficiency>  (179) 
-0.0773539

>  <r_i_glide_ligand_efficiency_sa>  (179) 
-0.255417

>  <r_i_glide_ligand_efficiency_ln>  (179) 
-0.607555

>  <r_i_glide_gscore>  (179) 
-2.78474

>  <r_i_glide_lipo>  (179) 
-0.554718

>  <r_i_glide_hbond>  (179) 
-0.301706

>  <r_i_glide_metal>  (179) 
-0

>  <r_i_glide_rewards>  (179) 
0

>  <r_i_glide_evdw>  (179) 
-28.2772

>  <r_i_glide_ecoul>  (179) 
-5.60182

>  <r_i_glide_erotb>  (179) 
0.325818

>  <r_i_glide_esite>  (179) 
0

>  <r_i_glide_emodel>  (179) 
-38.3617

>  <r_i_glide_energy>  (179) 
-33.879

>  <r_i_glide_einternal>  (179) 
2.21023

>  <r_i_glide_intrahb_reward>  (179) 
-0

>  <i_i_glide_confnum>  (179) 
3

>  <i_i_glide_posenum>  (179) 
18

>  <r_i_glide_eff_state_penalty>  (179) 
0

>  <ligand_id>  (179) 
62

>  <original_smiles>  (179) 
CC1=C2C3=CCC4(O)C(CCC5(C)C(C(C)CC=CC(C)(C)O)CC(O)C54)C3(C)CC(O)C2CC1O

>  <smiles>  (179) 
[H]OC1([H])C(C([H])([H])[H])=C2C3=C([H])C([H])([H])C4(O[H])C([H])(C([H])([H])C([H])([H])C5(C([H])([H])[H])C([H])(C([H])(C([H])([H])[H])C([H])([H])C([H])=C([H])C(O[H])(C([H])([H])[H])C([H])([H])[H])C([H])([H])C([H])(O[H])C45[H])C3(C([H])([H])[H])C([H])([H])C([H])(O[H])C2([H])C1([H])[H]

$$$$
62:1:0
     RDKit          3D

 84 88  0  0  1  0  0  0  0  0999 V2000
    1.9628   -3.7813   -2.0644 C   0  0  0  0  0  0  0  0  0  0  0  0
    2.9658   -2.7037   -1.6979 C   0  0  0  0  0  0  0  0  0  0  0  0
    3.7955   -2.6496   -0.6459 C   0  0  0  0  0  0  0  0  0  0  0  0
    3.9301   -3.5730    0.4614 C   0  0  0  0  0  0  0  0  0  0  0  0
    2.8536   -3.9453    1.1819 C   0  0  0  0  0  0  0  0  0  0  0  0
    2.9166   -4.6791    2.5069 C   0  0  0  0  0  0  0  0  0  0  0  0
    4.2768   -4.4485    3.2307 C   0  0  2  0  0  0  0  0  0  0  0  0
    4.3049   -3.0712    3.5489 O   0  0  0  0  0  0  0  0  0  0  0  0
    5.4290   -4.7537    2.2316 C   0  0  1  0  0  0  0  0  0  0  0  0
    5.4957   -6.2988    2.0852 C   0  0  0  0  0  0  0  0  0  0  0  0
    5.8010   -6.9957    3.4202 C   0  0  0  0  0  0  0  0  0  0  0  0
    4.8731   -6.6598    4.6186 C   0  0  2  0  0  0  0  0  0  0  0  0
    5.6722   -6.9843    5.9113 C   0  0  0  0  0  0  0  0  0  0  0  0
    3.4823   -7.3704    4.6409 C   0  0  1  0  0  0  0  0  0  0  0  0
    3.3515   -8.8453    5.1597 C   0  0  2  0  0  0  0  0  0  0  0  0
    4.3668   -9.8539    4.5792 C   0  0  0  0  0  0  0  0  0  0  0  0
    1.9077   -9.4096    5.0021 C   0  0  0  0  0  0  0  0  0  0  0  0
    1.4527   -9.6221    3.5555 C   0  0  0  0  0  0  0  0  0  0  0  0
    0.3379   -9.1957    2.9269 C   0  0  0  0  0  0  0  0  0  0  0  0
   -0.8644   -8.4076    3.4519 C   0  0  0  0  0  0  0  0  0  0  0  0
   -0.6628   -6.9092    3.2697 C   0  0  0  0  0  0  0  0  0  0  0  0
   -2.1544   -8.8064    2.7386 C   0  0  0  0  0  0  0  0  0  0  0  0
   -1.1082   -8.6560    4.8196 O   0  0  0  0  0  0  0  0  0  0  0  0
    2.5997   -6.3875    5.4544 C   0  0  0  0  0  0  0  0  0  0  0  0
    3.3140   -5.0467    5.5804 C   0  0  1  0  0  0  0  0  0  0  0  0
    3.6767   -4.7991    6.9194 O   0  0  0  0  0  0  0  0  0  0  0  0
    4.5171   -5.1407    4.6313 C   0  0  2  0  0  0  0  0  0  0  0  0
    5.3604   -3.9311    0.8736 C   0  0  1  0  0  0  0  0  0  0  0  0
    5.9886   -4.7482   -0.2789 C   0  0  0  0  0  0  0  0  0  0  0  0
    6.1665   -2.5882    1.0175 C   0  0  0  0  0  0  0  0  0  0  0  0
    6.0543   -1.5809   -0.1619 C   0  0  1  0  0  0  0  0  0  0  0  0
    6.9370   -1.9877   -1.1864 O   0  0  0  0  0  0  0  0  0  0  0  0
    4.5947   -1.3776   -0.6495 C   0  0  1  0  0  0  0  0  0  0  0  0
    4.3725   -0.8065   -2.0744 C   0  0  0  0  0  0  0  0  0  0  0  0
    3.0731   -1.4698   -2.5543 C   0  0  1  0  0  0  0  0  0  0  0  0
    3.1317   -1.7746   -3.9293 O   0  0  0  0  0  0  0  0  0  0  0  0
    2.2057   -4.1581   -3.0602 H   0  0  0  0  0  0  0  0  0  0  0  0
    0.9535   -3.3755   -2.1055 H   0  0  0  0  0  0  0  0  0  0  0  0
    1.9696   -4.6112   -1.3562 H   0  0  0  0  0  0  0  0  0  0  0  0
    1.8689   -3.6398    0.8584 H   0  0  0  0  0  0  0  0  0  0  0  0
    2.0873   -4.3148    3.1117 H   0  0  0  0  0  0  0  0  0  0  0  0
    2.7209   -5.7267    2.3026 H   0  0  0  0  0  0  0  0  0  0  0  0
    4.2008   -2.5877    2.7388 H   0  0  0  0  0  0  0  0  0  0  0  0
    6.3658   -4.4808    2.7123 H   0  0  0  0  0  0  0  0  0  0  0  0
    4.5857   -6.7002    1.6412 H   0  0  0  0  0  0  0  0  0  0  0  0
    6.3071   -6.5947    1.4189 H   0  0  0  0  0  0  0  0  0  0  0  0
    5.8171   -8.0662    3.2365 H   0  0  0  0  0  0  0  0  0  0  0  0
    6.8294   -6.7279    3.6916 H   0  0  0  0  0  0  0  0  0  0  0  0
    5.0454   -6.9446    6.8024 H   0  0  0  0  0  0  0  0  0  0  0  0
    6.4892   -6.2743    6.0525 H   0  0  0  0  0  0  0  0  0  0  0  0
    6.1361   -7.9681    5.8991 H   0  0  0  0  0  0  0  0  0  0  0  0
    3.1165   -7.3869    3.6194 H   0  0  0  0  0  0  0  0  0  0  0  0
    3.5358   -8.8222    6.2347 H   0  0  0  0  0  0  0  0  0  0  0  0
    4.3729   -9.8364    3.4864 H   0  0  0  0  0  0  0  0  0  0  0  0
    4.1319  -10.8759    4.8979 H   0  0  0  0  0  0  0  0  0  0  0  0
    5.3866   -9.6702    4.9172 H   0  0  0  0  0  0  0  0  0  0  0  0
    1.8532  -10.3877    5.4856 H   0  0  0  0  0  0  0  0  0  0  0  0
    1.2233   -8.7747    5.5552 H   0  0  0  0  0  0  0  0  0  0  0  0
    2.1389  -10.2069    2.9645 H   0  0  0  0  0  0  0  0  0  0  0  0
    0.2585   -9.4665    1.8871 H   0  0  0  0  0  0  0  0  0  0  0  0
   -0.4741   -6.6461    2.2290 H   0  0  0  0  0  0  0  0  0  0  0  0
    0.1806   -6.6118    3.8488 H   0  0  0  0  0  0  0  0  0  0  0  0
   -1.5226   -6.3416    3.6332 H   0  0  0  0  0  0  0  0  0  0  0  0
   -2.0588   -8.6211    1.6728 H   0  0  0  0  0  0  0  0  0  0  0  0
   -2.9687   -8.1954    3.1240 H   0  0  0  0  0  0  0  0  0  0  0  0
   -2.3918   -9.8485    2.8850 H   0  0  0  0  0  0  0  0  0  0  0  0
   -1.4132   -9.5717    4.9117 H   0  0  0  0  0  0  0  0  0  0  0  0
    1.7277   -6.1347    4.8947 H   0  0  0  0  0  0  0  0  0  0  0  0
    2.2719   -6.7937    6.4182 H   0  0  0  0  0  0  0  0  0  0  0  0
    2.6496   -4.2434    5.3062 H   0  0  0  0  0  0  0  0  0  0  0  0
    2.8914   -4.8769    7.4451 H   0  0  0  0  0  0  0  0  0  0  0  0
    5.3539   -4.6004    5.0776 H   0  0  0  0  0  0  0  0  0  0  0  0
    7.0383   -4.9590   -0.0621 H   0  0  0  0  0  0  0  0  0  0  0  0
    5.9334   -4.2403   -1.2370 H   0  0  0  0  0  0  0  0  0  0  0  0
    5.4600   -5.6878   -0.4489 H   0  0  0  0  0  0  0  0  0  0  0  0
    5.8237   -2.0529    1.8952 H   0  0  0  0  0  0  0  0  0  0  0  0
    7.2189   -2.7989    1.2110 H   0  0  0  0  0  0  0  0  0  0  0  0
    6.4231   -0.6130    0.1724 H   0  0  0  0  0  0  0  0  0  0  0  0
    6.6441   -2.8312   -1.5097 H   0  0  0  0  0  0  0  0  0  0  0  0
    4.0805   -0.7370    0.0637 H   0  0  0  0  0  0  0  0  0  0  0  0
    4.3014    0.2735   -2.1185 H   0  0  0  0  0  0  0  0  0  0  0  0
    5.1888   -1.0992   -2.7387 H   0  0  0  0  0  0  0  0  0  0  0  0
    2.2242   -0.8161   -2.3366 H   0  0  0  0  0  0  0  0  0  0  0  0
    2.2434   -1.9461   -4.2189 H   0  0  0  0  0  0  0  0  0  0  0  0
  1  2  1  0
  1 37  1  0
  1 38  1  0
  1 39  1  0
  2 35  1  0
  2  3  2  0
  3 33  1  0
  3  4  1  0
  4 28  1  0
  4  5  2  0
  5  6  1  0
  5 40  1  0
  6  7  1  0
  6 41  1  0
  6 42  1  0
  7 27  1  0
  7  8  1  1
  7  9  1  0
  8 43  1  0
  9 10  1  0
  9 28  1  0
  9 44  1  1
 10 11  1  0
 10 45  1  0
 10 46  1  0
 11 12  1  0
 11 47  1  0
 11 48  1  0
 12 27  1  0
 12 13  1  1
 12 14  1  0
 13 49  1  0
 13 50  1  0
 13 51  1  0
 14 15  1  0
 14 24  1  0
 14 52  1  6
 15 16  1  0
 15 17  1  0
 15 53  1  1
 16 54  1  0
 16 55  1  0
 16 56  1  0
 17 18  1  0
 17 57  1  0
 17 58  1  0
 18 19  2  3
 18 59  1  0
 19 20  1  0
 19 60  1  0
 20 21  1  0
 20 22  1  0
 20 23  1  0
 21 61  1  0
 21 62  1  0
 21 63  1  0
 22 64  1  0
 22 65  1  0
 22 66  1  0
 23 67  1  0
 24 25  1  0
 24 68  1  0
 24 69  1  0
 25 26  1  0
 25 27  1  0
 25 70  1  6
 26 71  1  0
 27 72  1  1
 28 29  1  6
 28 30  1  0
 29 73  1  0
 29 74  1  0
 29 75  1  0
 30 31  1  0
 30 76  1  0
 30 77  1  0
 31 32  1  0
 31 33  1  0
 31 78  1  1
 32 79  1  0
 33 34  1  0
 33 80  1  1
 34 35  1  0
 34 81  1  0
 34 82  1  0
 35 36  1  0
 35 83  1  6
 36 84  1  0
M  END
>  <i_m_ct_stereo_status>  (180) 
1

>  <s_m_source_file>  (180) 
/var/tmp/pbs.5076255.sched01/tmprae_yccg/80g5h6lheg.sdf

>  <i_m_source_file_index>  (180) 
6

>  <i_lp_mmshare_version>  (180) 
48012

>  <i_f3d_flags>  (180) 
0

>  <s_epik_input>  (180) 
W0NIM11DPTFbQ0BIXShbT0hdKVtDSDJdW0NASF0oW0NAQEhdKFtDSDJdMilbT0hdKUMxQyg9W0NIXVtDSDJdMylbQ0BdMihbQ0gzXSlbQ0BASF0oW0NAQF0zNFtPSF0pW0NIMl1bQ0gyXVtDQEBdNShbQ0gzXSlbQ0BASF00W0NASF0oW09IXSlbQ0gyXVtDQEBIXTVbQ0BIXShbQ0gzXSlbQ0gyXS9bQ0hdPVtDSF0vQyhbQ0gzXSkoW0NIM10pW09IXQ==

>  <s_epik_cmdline>  (180) 
J2VwaWtfcHl0aG9uJywgJy1waHQnLCAnMi4wJywgJy1waCcsICc3LjAnLCAnLXRuJywgJzgnLCAnLW1hJywgJzIwMCcsICctaW1hZScsICc8aW5maWxlLm1hZT4nLCAnLW9tYWUnLCAnPG91dGZpbGUubWFlPic=

>  <r_lp_tautomer_probability>  (180) 
1

>  <r_epik_Ionization_Penalty>  (180) 
4.47859e-06

>  <r_epik_Ionization_Penalty_Charging>  (180) 
0

>  <r_epik_Ionization_Penalty_Neutral>  (180) 
4.47859e-06

>  <r_epik_State_Penalty>  (180) 
-0

>  <r_epik_Charging_Adjusted_Penalty>  (180) 
0

>  <i_epik_Tot_Q>  (180) 
0

>  <i_epik_Tot_abs_Q>  (180) 
0

>  <s_lp_Force_Field>  (180) 
OPLS3e

>  <r_lp_Energy>  (180) 
52.8789

>  <b_lp_Chiralities_Consistent>  (180) 
1

>  <s_lp_Variant>  (180) 
62:0-2

>  <s_i_glide_gridfile>  (180) 
pfpi4k_grid

>  <i_i_glide_lignum>  (180) 
6

>  <i_i_glide_rotatable_bonds>  (180) 
9

>  <r_i_docking_score>  (180) 
-3.29271

>  <r_i_glide_ligand_efficiency>  (180) 
-0.0914643

>  <r_i_glide_ligand_efficiency_sa>  (180) 
-0.302008

>  <r_i_glide_ligand_efficiency_ln>  (180) 
-0.718381

>  <r_i_glide_gscore>  (180) 
-3.29271

>  <r_i_glide_lipo>  (180) 
-0.338675

>  <r_i_glide_hbond>  (180) 
-0.32

>  <r_i_glide_metal>  (180) 
-0

>  <r_i_glide_rewards>  (180) 
0

>  <r_i_glide_evdw>  (180) 
-21.0104

>  <r_i_glide_ecoul>  (180) 
-12.7289

>  <r_i_glide_erotb>  (180) 
0.325818

>  <r_i_glide_esite>  (180) 
0

>  <r_i_glide_emodel>  (180) 
-39.1589

>  <r_i_glide_energy>  (180) 
-33.7393

>  <r_i_glide_einternal>  (180) 
3.70724

>  <r_i_glide_intrahb_reward>  (180) 
-0

>  <i_i_glide_confnum>  (180) 
4

>  <i_i_glide_posenum>  (180) 
11

>  <r_i_glide_eff_state_penalty>  (180) 
0

>  <ligand_id>  (180) 
62

>  <original_smiles>  (180) 
CC1=C2C3=CCC4(O)C(CCC5(C)C(C(C)CC=CC(C)(C)O)CC(O)C54)C3(C)CC(O)C2CC1O

>  <smiles>  (180) 
[H]OC1([H])C(C([H])([H])[H])=C2C3=C([H])C([H])([H])C4(O[H])C([H])(C([H])([H])C([H])([H])C5(C([H])([H])[H])C([H])(C([H])(C([H])([H])[H])C([H])([H])C([H])=C([H])C(O[H])(C([H])([H])[H])C([H])([H])[H])C([H])([H])C([H])(O[H])C45[H])C3(C([H])([H])[H])C([H])([H])C([H])(O[H])C2([H])C1([H])[H]

$$$$
62:1:1
     RDKit          3D

 84 88  0  0  1  0  0  0  0  0999 V2000
    1.8872   -3.6688   -1.9061 C   0  0  0  0  0  0  0  0  0  0  0  0
    2.9912   -2.6537   -1.6043 C   0  0  0  0  0  0  0  0  0  0  0  0
    3.8242   -2.6133   -0.5735 C   0  0  0  0  0  0  0  0  0  0  0  0
    3.8920   -3.4853    0.6019 C   0  0  0  0  0  0  0  0  0  0  0  0
    2.7941   -3.7073    1.3392 C   0  0  0  0  0  0  0  0  0  0  0  0
    2.8007   -4.3640    2.7094 C   0  0  0  0  0  0  0  0  0  0  0  0
    4.1867   -4.2258    3.4067 C   0  0  2  0  0  0  0  0  0  0  0  0
    4.3508   -2.8340    3.6413 O   0  0  0  0  0  0  0  0  0  0  0  0
    5.2915   -4.6979    2.4197 C   0  0  1  0  0  0  0  0  0  0  0  0
    5.2040   -6.2510    2.3623 C   0  0  0  0  0  0  0  0  0  0  0  0
    5.4626   -6.8868    3.7397 C   0  0  0  0  0  0  0  0  0  0  0  0
    4.5842   -6.3944    4.9227 C   0  0  2  0  0  0  0  0  0  0  0  0
    5.3789   -6.7090    6.2347 C   0  0  0  0  0  0  0  0  0  0  0  0
    3.1330   -6.9761    4.9962 C   0  0  1  0  0  0  0  0  0  0  0  0
    2.9078   -8.4150    5.6027 C   0  0  2  0  0  0  0  0  0  0  0  0
    3.9009   -9.5327    5.1769 C   0  0  0  0  0  0  0  0  0  0  0  0
    1.4444   -8.9189    5.3965 C   0  0  0  0  0  0  0  0  0  0  0  0
    1.1370   -9.3884    3.9494 C   0  0  0  0  0  0  0  0  0  0  0  0
    0.2352   -8.9498    3.0413 C   0  0  0  0  0  0  0  0  0  0  0  0
   -0.7953   -7.8104    3.1157 C   0  0  0  0  0  0  0  0  0  0  0  0
   -2.2145   -8.3624    3.0057 C   0  0  0  0  0  0  0  0  0  0  0  0
   -0.7242   -6.9213    4.3313 C   0  0  0  0  0  0  0  0  0  0  0  0
   -0.5970   -6.9382    2.0036 O   0  0  0  0  0  0  0  0  0  0  0  0
    2.3231   -5.8326    5.7319 C   0  0  0  0  0  0  0  0  0  0  0  0
    3.1984   -4.5824    5.7926 C   0  0  1  0  0  0  0  0  0  0  0  0
    3.6190   -4.3378    7.1230 O   0  0  0  0  0  0  0  0  0  0  0  0
    4.3753   -4.8501    4.8459 C   0  0  2  0  0  0  0  0  0  0  0  0
    5.2853   -3.9553    1.0111 C   0  0  1  0  0  0  0  0  0  0  0  0
    5.8194   -4.8980   -0.0967 C   0  0  0  0  0  0  0  0  0  0  0  0
    6.2232   -2.6915    1.0697 C   0  0  0  0  0  0  0  0  0  0  0  0
    6.1881   -1.7408   -0.1704 C   0  0  1  0  0  0  0  0  0  0  0  0
    7.0208   -2.2821   -1.1800 O   0  0  0  0  0  0  0  0  0  0  0  0
    4.7462   -1.4338   -0.6441 C   0  0  1  0  0  0  0  0  0  0  0  0
    4.5586   -0.9132   -2.0989 C   0  0  0  0  0  0  0  0  0  0  0  0
    3.1860   -1.4860   -2.5308 C   0  0  1  0  0  0  0  0  0  0  0  0
    3.1853   -1.8540   -3.9005 O   0  0  0  0  0  0  0  0  0  0  0  0
    2.0714   -4.1121   -2.8827 H   0  0  0  0  0  0  0  0  0  0  0  0
    0.9221   -3.1749   -1.9514 H   0  0  0  0  0  0  0  0  0  0  0  0
    1.8487   -4.4659   -1.1661 H   0  0  0  0  0  0  0  0  0  0  0  0
    1.8339   -3.3214    1.0206 H   0  0  0  0  0  0  0  0  0  0  0  0
    2.0155   -3.8925    3.3011 H   0  0  0  0  0  0  0  0  0  0  0  0
    2.5012   -5.4019    2.5725 H   0  0  0  0  0  0  0  0  0  0  0  0
    4.2571   -2.3970    2.8255 H   0  0  0  0  0  0  0  0  0  0  0  0
    6.2486   -4.4887    2.8824 H   0  0  0  0  0  0  0  0  0  0  0  0
    4.2550   -6.5852    1.9490 H   0  0  0  0  0  0  0  0  0  0  0  0
    5.9764   -6.6582    1.7145 H   0  0  0  0  0  0  0  0  0  0  0  0
    5.3832   -7.9674    3.6192 H   0  0  0  0  0  0  0  0  0  0  0  0
    6.5098   -6.7056    3.9849 H   0  0  0  0  0  0  0  0  0  0  0  0
    4.7640   -6.5868    7.1286 H   0  0  0  0  0  0  0  0  0  0  0  0
    6.2474   -6.0490    6.3247 H   0  0  0  0  0  0  0  0  0  0  0  0
    5.7841   -7.7137    6.2726 H   0  0  0  0  0  0  0  0  0  0  0  0
    2.7521   -7.0204    3.9748 H   0  0  0  0  0  0  0  0  0  0  0  0
    3.0225   -8.3179    6.6834 H   0  0  0  0  0  0  0  0  0  0  0  0
    3.9618   -9.5969    4.0834 H   0  0  0  0  0  0  0  0  0  0  0  0
    3.5401  -10.5085    5.5376 H   0  0  0  0  0  0  0  0  0  0  0  0
    4.9039   -9.4170    5.5836 H   0  0  0  0  0  0  0  0  0  0  0  0
    1.3144   -9.8298    6.0059 H   0  0  0  0  0  0  0  0  0  0  0  0
    0.8045   -8.1724    5.8224 H   0  0  0  0  0  0  0  0  0  0  0  0
    1.7454  -10.2192    3.5956 H   0  0  0  0  0  0  0  0  0  0  0  0
    0.2338   -9.4628    2.1004 H   0  0  0  0  0  0  0  0  0  0  0  0
   -2.3949   -9.0567    3.8326 H   0  0  0  0  0  0  0  0  0  0  0  0
   -2.3988   -8.8804    2.0612 H   0  0  0  0  0  0  0  0  0  0  0  0
   -2.9230   -7.5395    3.1125 H   0  0  0  0  0  0  0  0  0  0  0  0
   -0.9742   -7.5141    5.2418 H   0  0  0  0  0  0  0  0  0  0  0  0
   -1.3570   -6.0463    4.2785 H   0  0  0  0  0  0  0  0  0  0  0  0
    0.3013   -6.6321    4.3399 H   0  0  0  0  0  0  0  0  0  0  0  0
   -0.5180   -7.4634    1.2343 H   0  0  0  0  0  0  0  0  0  0  0  0
    1.4727   -5.4710    5.1902 H   0  0  0  0  0  0  0  0  0  0  0  0
    1.9797   -6.1461    6.7266 H   0  0  0  0  0  0  0  0  0  0  0  0
    2.6350   -3.7053    5.4959 H   0  0  0  0  0  0  0  0  0  0  0  0
    4.0945   -5.0843    7.4064 H   0  0  0  0  0  0  0  0  0  0  0  0
    5.2710   -4.3713    5.2473 H   0  0  0  0  0  0  0  0  0  0  0  0
    6.8475   -5.2029    0.1016 H   0  0  0  0  0  0  0  0  0  0  0  0
    5.7947   -4.4329   -1.0790 H   0  0  0  0  0  0  0  0  0  0  0  0
    5.2016   -5.7906   -0.2100 H   0  0  0  0  0  0  0  0  0  0  0  0
    5.9427   -2.0732    1.9172 H   0  0  0  0  0  0  0  0  0  0  0  0
    7.2491   -2.9840    1.2682 H   0  0  0  0  0  0  0  0  0  0  0  0
    6.6501   -0.7963    0.1172 H   0  0  0  0  0  0  0  0  0  0  0  0
    6.6547   -3.0954   -1.4677 H   0  0  0  0  0  0  0  0  0  0  0  0
    4.3102   -0.6975    0.0348 H   0  0  0  0  0  0  0  0  0  0  0  0
    4.6039    0.1578   -2.1844 H   0  0  0  0  0  0  0  0  0  0  0  0
    5.3243   -1.3294   -2.7442 H   0  0  0  0  0  0  0  0  0  0  0  0
    2.4053   -0.7497   -2.3374 H   0  0  0  0  0  0  0  0  0  0  0  0
    2.2937   -1.9946   -4.1559 H   0  0  0  0  0  0  0  0  0  0  0  0
  1  2  1  0
  1 37  1  0
  1 38  1  0
  1 39  1  0
  2 35  1  0
  2  3  2  0
  3 33  1  0
  3  4  1  0
  4 28  1  0
  4  5  2  0
  5  6  1  0
  5 40  1  0
  6  7  1  0
  6 41  1  0
  6 42  1  0
  7 27  1  0
  7  8  1  1
  7  9  1  0
  8 43  1  0
  9 10  1  0
  9 28  1  0
  9 44  1  1
 10 11  1  0
 10 45  1  0
 10 46  1  0
 11 12  1  0
 11 47  1  0
 11 48  1  0
 12 27  1  0
 12 13  1  1
 12 14  1  0
 13 49  1  0
 13 50  1  0
 13 51  1  0
 14 15  1  0
 14 24  1  0
 14 52  1  6
 15 16  1  0
 15 17  1  0
 15 53  1  1
 16 54  1  0
 16 55  1  0
 16 56  1  0
 17 18  1  0
 17 57  1  0
 17 58  1  0
 18 19  2  3
 18 59  1  0
 19 20  1  0
 19 60  1  0
 20 21  1  0
 20 22  1  0
 20 23  1  0
 21 61  1  0
 21 62  1  0
 21 63  1  0
 22 64  1  0
 22 65  1  0
 22 66  1  0
 23 67  1  0
 24 25  1  0
 24 68  1  0
 24 69  1  0
 25 26  1  0
 25 27  1  0
 25 70  1  6
 26 71  1  0
 27 72  1  1
 28 29  1  6
 28 30  1  0
 29 73  1  0
 29 74  1  0
 29 75  1  0
 30 31  1  0
 30 76  1  0
 30 77  1  0
 31 32  1  0
 31 33  1  0
 31 78  1  1
 32 79  1  0
 33 34  1  0
 33 80  1  1
 34 35  1  0
 34 81  1  0
 34 82  1  0
 35 36  1  0
 35 83  1  6
 36 84  1  0
M  END
>  <i_m_ct_stereo_status>  (181) 
1

>  <s_m_source_file>  (181) 
/var/tmp/pbs.5076255.sched01/tmprae_yccg/80g5h6lheg.sdf

>  <i_m_source_file_index>  (181) 
6

>  <i_lp_mmshare_version>  (181) 
48012

>  <i_f3d_flags>  (181) 
0

>  <s_epik_input>  (181) 
W0NIM11DPTFbQ0BIXShbT0hdKVtDSDJdW0NASF0oW0NAQEhdKFtDSDJdMilbT0hdKUMxQyg9W0NIXVtDSDJdMylbQ0BdMihbQ0gzXSlbQ0BASF0oW0NAQF0zNFtPSF0pW0NIMl1bQ0gyXVtDQEBdNShbQ0gzXSlbQ0BASF00W0NASF0oW09IXSlbQ0gyXVtDQEBIXTVbQ0BIXShbQ0gzXSlbQ0gyXS9bQ0hdPVtDSF0vQyhbQ0gzXSkoW0NIM10pW09IXQ==

>  <s_epik_cmdline>  (181) 
J2VwaWtfcHl0aG9uJywgJy1waHQnLCAnMi4wJywgJy1waCcsICc3LjAnLCAnLXRuJywgJzgnLCAnLW1hJywgJzIwMCcsICctaW1hZScsICc8aW5maWxlLm1hZT4nLCAnLW9tYWUnLCAnPG91dGZpbGUubWFlPic=

>  <r_lp_tautomer_probability>  (181) 
1

>  <r_epik_Ionization_Penalty>  (181) 
4.47859e-06

>  <r_epik_Ionization_Penalty_Charging>  (181) 
0

>  <r_epik_Ionization_Penalty_Neutral>  (181) 
4.47859e-06

>  <r_epik_State_Penalty>  (181) 
-0

>  <r_epik_Charging_Adjusted_Penalty>  (181) 
0

>  <i_epik_Tot_Q>  (181) 
0

>  <i_epik_Tot_abs_Q>  (181) 
0

>  <s_lp_Force_Field>  (181) 
OPLS3e

>  <r_lp_Energy>  (181) 
52.8789

>  <b_lp_Chiralities_Consistent>  (181) 
1

>  <s_lp_Variant>  (181) 
62:0-2

>  <s_i_glide_gridfile>  (181) 
pfpi4k_grid

>  <i_i_glide_lignum>  (181) 
6

>  <i_i_glide_rotatable_bonds>  (181) 
9

>  <r_i_docking_score>  (181) 
-3.17045

>  <r_i_glide_ligand_efficiency>  (181) 
-0.088068

>  <r_i_glide_ligand_efficiency_sa>  (181) 
-0.290794

>  <r_i_glide_ligand_efficiency_ln>  (181) 
-0.691706

>  <r_i_glide_gscore>  (181) 
-3.17045

>  <r_i_glide_lipo>  (181) 
-0.249656

>  <r_i_glide_hbond>  (181) 
-0.32

>  <r_i_glide_metal>  (181) 
-0

>  <r_i_glide_rewards>  (181) 
0

>  <r_i_glide_evdw>  (181) 
-27.4212

>  <r_i_glide_ecoul>  (181) 
-10.3703

>  <r_i_glide_erotb>  (181) 
0.325818

>  <r_i_glide_esite>  (181) 
0

>  <r_i_glide_emodel>  (181) 
-42.2324

>  <r_i_glide_energy>  (181) 
-37.7915

>  <r_i_glide_einternal>  (181) 
2.2145

>  <r_i_glide_intrahb_reward>  (181) 
-0

>  <i_i_glide_confnum>  (181) 
4

>  <i_i_glide_posenum>  (181) 
33

>  <r_i_glide_eff_state_penalty>  (181) 
0

>  <ligand_id>  (181) 
62

>  <original_smiles>  (181) 
CC1=C2C3=CCC4(O)C(CCC5(C)C(C(C)CC=CC(C)(C)O)CC(O)C54)C3(C)CC(O)C2CC1O

>  <smiles>  (181) 
[H]OC1([H])C(C([H])([H])[H])=C2C3=C([H])C([H])([H])C4(O[H])C([H])(C([H])([H])C([H])([H])C5(C([H])([H])[H])C([H])(C([H])(C([H])([H])[H])C([H])([H])C([H])=C([H])C(O[H])(C([H])([H])[H])C([H])([H])[H])C([H])([H])C([H])(O[H])C45[H])C3(C([H])([H])[H])C([H])([H])C([H])(O[H])C2([H])C1([H])[H]

$$$$
62:1:2
     RDKit          3D

 84 88  0  0  1  0  0  0  0  0999 V2000
    1.9144   -3.5715   -2.0088 C   0  0  0  0  0  0  0  0  0  0  0  0
    3.0157   -2.5904   -1.6859 C   0  0  0  0  0  0  0  0  0  0  0  0
    3.8395   -2.5543   -0.6280 C   0  0  0  0  0  0  0  0  0  0  0  0
    3.8678   -3.4189    0.5359 C   0  0  0  0  0  0  0  0  0  0  0  0
    2.7506   -3.6125    1.2601 C   0  0  0  0  0  0  0  0  0  0  0  0
    2.7104   -4.2664    2.6330 C   0  0  0  0  0  0  0  0  0  0  0  0
    4.0814   -4.1390    3.3515 C   0  0  2  0  0  0  0  0  0  0  0  0
    4.2856   -2.7575    3.5861 O   0  0  0  0  0  0  0  0  0  0  0  0
    5.2005   -4.6455    2.3974 C   0  0  1  0  0  0  0  0  0  0  0  0
    5.0870   -6.1922    2.3558 C   0  0  0  0  0  0  0  0  0  0  0  0
    5.2948   -6.8353    3.7336 C   0  0  0  0  0  0  0  0  0  0  0  0
    4.3977   -6.3214    4.8926 C   0  0  2  0  0  0  0  0  0  0  0  0
    5.1565   -6.6354    6.2182 C   0  0  0  0  0  0  0  0  0  0  0  0
    2.9340   -6.8874    4.9155 C   0  0  1  0  0  0  0  0  0  0  0  0
    2.6513   -8.2925    5.5557 C   0  0  2  0  0  0  0  0  0  0  0  0
    3.6190   -9.4290    5.1423 C   0  0  0  0  0  0  0  0  0  0  0  0
    1.1798   -8.7482    5.3268 C   0  0  0  0  0  0  0  0  0  0  0  0
    0.9389   -9.4444    3.9889 C   0  0  0  0  0  0  0  0  0  0  0  0
    0.1775   -9.1053    2.9313 C   0  0  0  0  0  0  0  0  0  0  0  0
   -0.7235   -7.8999    2.6783 C   0  0  0  0  0  0  0  0  0  0  0  0
   -0.2538   -7.1190    1.4452 C   0  0  0  0  0  0  0  0  0  0  0  0
   -2.1802   -8.3542    2.5509 C   0  0  0  0  0  0  0  0  0  0  0  0
   -0.6981   -6.9780    3.7408 O   0  0  0  0  0  0  0  0  0  0  0  0
    2.0989   -5.7579    5.5916 C   0  0  0  0  0  0  0  0  0  0  0  0
    2.9704   -4.4933    5.6784 C   0  0  1  0  0  0  0  0  0  0  0  0
    3.3515   -4.2449    7.0148 O   0  0  0  0  0  0  0  0  0  0  0  0
    4.1975   -4.7758    4.7887 C   0  0  2  0  0  0  0  0  0  0  0  0
    5.2473   -3.9162    0.9848 C   0  0  1  0  0  0  0  0  0  0  0  0
    5.7801   -4.8729   -0.1101 C   0  0  0  0  0  0  0  0  0  0  0  0
    6.1922   -2.6643    1.0519 C   0  0  0  0  0  0  0  0  0  0  0  0
    6.2006   -1.7202   -0.1841 C   0  0  1  0  0  0  0  0  0  0  0  0
    7.0375   -2.2564   -1.1918 O   0  0  0  0  0  0  0  0  0  0  0  0
    4.7753   -1.3769   -0.6981 C   0  0  1  0  0  0  0  0  0  0  0  0
    4.6215   -0.8816   -2.1514 C   0  0  0  0  0  0  0  0  0  0  0  0
    3.2643   -1.4214   -2.6129 C   0  0  1  0  0  0  0  0  0  0  0  0
    3.2962   -1.8006   -3.9731 O   0  0  0  0  0  0  0  0  0  0  0  0
    2.1166   -4.0262   -2.9787 H   0  0  0  0  0  0  0  0  0  0  0  0
    0.9586   -3.0543   -2.0773 H   0  0  0  0  0  0  0  0  0  0  0  0
    1.8383   -4.3658   -1.2652 H   0  0  0  0  0  0  0  0  0  0  0  0
    1.8174   -3.1999    0.9119 H   0  0  0  0  0  0  0  0  0  0  0  0
    1.9185   -3.7728    3.1971 H   0  0  0  0  0  0  0  0  0  0  0  0
    2.3990   -5.2960    2.4960 H   0  0  0  0  0  0  0  0  0  0  0  0
    3.5816   -2.4448    4.1460 H   0  0  0  0  0  0  0  0  0  0  0  0
    6.1601   -4.4471    2.8774 H   0  0  0  0  0  0  0  0  0  0  0  0
    4.1412   -6.5136    1.9178 H   0  0  0  0  0  0  0  0  0  0  0  0
    5.8614   -6.6220    1.7189 H   0  0  0  0  0  0  0  0  0  0  0  0
    5.1993   -7.9091    3.6196 H   0  0  0  0  0  0  0  0  0  0  0  0
    6.3411   -6.6619    4.0025 H   0  0  0  0  0  0  0  0  0  0  0  0
    4.5375   -6.4968    7.1023 H   0  0  0  0  0  0  0  0  0  0  0  0
    6.0315   -5.9924    6.3272 H   0  0  0  0  0  0  0  0  0  0  0  0
    5.5347   -7.6549    6.2644 H   0  0  0  0  0  0  0  0  0  0  0  0
    2.5957   -6.9547    3.8817 H   0  0  0  0  0  0  0  0  0  0  0  0
    2.7622   -8.1772    6.6334 H   0  0  0  0  0  0  0  0  0  0  0  0
    3.7002   -9.5050    4.0573 H   0  0  0  0  0  0  0  0  0  0  0  0
    3.2516  -10.3945    5.5005 H   0  0  0  0  0  0  0  0  0  0  0  0
    4.6254   -9.3207    5.5471 H   0  0  0  0  0  0  0  0  0  0  0  0
    0.9364   -9.5045    6.0767 H   0  0  0  0  0  0  0  0  0  0  0  0
    0.4877   -7.9190    5.5088 H   0  0  0  0  0  0  0  0  0  0  0  0
    1.4769  -10.3679    3.8707 H   0  0  0  0  0  0  0  0  0  0  0  0
    0.1894   -9.7991    2.0997 H   0  0  0  0  0  0  0  0  0  0  0  0
   -0.2714   -7.7397    0.5502 H   0  0  0  0  0  0  0  0  0  0  0  0
    0.7668   -6.7575    1.5819 H   0  0  0  0  0  0  0  0  0  0  0  0
   -0.8941   -6.2575    1.2622 H   0  0  0  0  0  0  0  0  0  0  0  0
   -2.3195   -9.0509    1.7208 H   0  0  0  0  0  0  0  0  0  0  0  0
   -2.8257   -7.4909    2.4011 H   0  0  0  0  0  0  0  0  0  0  0  0
   -2.5118   -8.8544    3.4625 H   0  0  0  0  0  0  0  0  0  0  0  0
   -0.7637   -7.4762    4.5395 H   0  0  0  0  0  0  0  0  0  0  0  0
    1.2091   -5.5368    4.9999 H   0  0  0  0  0  0  0  0  0  0  0  0
    1.7324   -6.0393    6.5814 H   0  0  0  0  0  0  0  0  0  0  0  0
    2.4279   -3.6015    5.3735 H   0  0  0  0  0  0  0  0  0  0  0  0
    3.8592   -4.9886    7.3252 H   0  0  0  0  0  0  0  0  0  0  0  0
    5.0802   -4.3072    5.2319 H   0  0  0  0  0  0  0  0  0  0  0  0
    6.7974   -5.1979    0.1177 H   0  0  0  0  0  0  0  0  0  0  0  0
    5.7918   -4.4130   -1.0940 H   0  0  0  0  0  0  0  0  0  0  0  0
    5.1479   -5.7533   -0.2302 H   0  0  0  0  0  0  0  0  0  0  0  0
    5.9011   -2.0431    1.8940 H   0  0  0  0  0  0  0  0  0  0  0  0
    7.2139   -2.9789    1.2746 H   0  0  0  0  0  0  0  0  0  0  0  0
    6.6756   -0.7844    0.1037 H   0  0  0  0  0  0  0  0  0  0  0  0
    6.6816   -3.0936   -1.4518 H   0  0  0  0  0  0  0  0  0  0  0  0
    4.3401   -0.6407   -0.0249 H   0  0  0  0  0  0  0  0  0  0  0  0
    4.6813    0.1980   -2.2652 H   0  0  0  0  0  0  0  0  0  0  0  0
    5.4006   -1.3102   -2.7808 H   0  0  0  0  0  0  0  0  0  0  0  0
    2.4872   -0.6727   -2.4455 H   0  0  0  0  0  0  0  0  0  0  0  0
    2.3957   -1.9431   -4.2494 H   0  0  0  0  0  0  0  0  0  0  0  0
  1  2  1  0
  1 37  1  0
  1 38  1  0
  1 39  1  0
  2 35  1  0
  2  3  2  0
  3 33  1  0
  3  4  1  0
  4 28  1  0
  4  5  2  0
  5  6  1  0
  5 40  1  0
  6  7  1  0
  6 41  1  0
  6 42  1  0
  7 27  1  0
  7  8  1  1
  7  9  1  0
  8 43  1  0
  9 10  1  0
  9 28  1  0
  9 44  1  1
 10 11  1  0
 10 45  1  0
 10 46  1  0
 11 12  1  0
 11 47  1  0
 11 48  1  0
 12 27  1  0
 12 13  1  1
 12 14  1  0
 13 49  1  0
 13 50  1  0
 13 51  1  0
 14 15  1  0
 14 24  1  0
 14 52  1  6
 15 16  1  0
 15 17  1  0
 15 53  1  1
 16 54  1  0
 16 55  1  0
 16 56  1  0
 17 18  1  0
 17 57  1  0
 17 58  1  0
 18 19  2  3
 18 59  1  0
 19 20  1  0
 19 60  1  0
 20 21  1  0
 20 22  1  0
 20 23  1  0
 21 61  1  0
 21 62  1  0
 21 63  1  0
 22 64  1  0
 22 65  1  0
 22 66  1  0
 23 67  1  0
 24 25  1  0
 24 68  1  0
 24 69  1  0
 25 26  1  0
 25 27  1  0
 25 70  1  6
 26 71  1  0
 27 72  1  1
 28 29  1  6
 28 30  1  0
 29 73  1  0
 29 74  1  0
 29 75  1  0
 30 31  1  0
 30 76  1  0
 30 77  1  0
 31 32  1  0
 31 33  1  0
 31 78  1  1
 32 79  1  0
 33 34  1  0
 33 80  1  1
 34 35  1  0
 34 81  1  0
 34 82  1  0
 35 36  1  0
 35 83  1  6
 36 84  1  0
M  END
>  <i_m_ct_stereo_status>  (182) 
1

>  <s_m_source_file>  (182) 
/var/tmp/pbs.5076255.sched01/tmprae_yccg/80g5h6lheg.sdf

>  <i_m_source_file_index>  (182) 
6

>  <i_lp_mmshare_version>  (182) 
48012

>  <i_f3d_flags>  (182) 
0

>  <s_epik_input>  (182) 
W0NIM11DPTFbQ0BIXShbT0hdKVtDSDJdW0NASF0oW0NAQEhdKFtDSDJdMilbT0hdKUMxQyg9W0NIXVtDSDJdMylbQ0BdMihbQ0gzXSlbQ0BASF0oW0NAQF0zNFtPSF0pW0NIMl1bQ0gyXVtDQEBdNShbQ0gzXSlbQ0BASF00W0NASF0oW09IXSlbQ0gyXVtDQEBIXTVbQ0BIXShbQ0gzXSlbQ0gyXS9bQ0hdPVtDSF0vQyhbQ0gzXSkoW0NIM10pW09IXQ==

>  <s_epik_cmdline>  (182) 
J2VwaWtfcHl0aG9uJywgJy1waHQnLCAnMi4wJywgJy1waCcsICc3LjAnLCAnLXRuJywgJzgnLCAnLW1hJywgJzIwMCcsICctaW1hZScsICc8aW5maWxlLm1hZT4nLCAnLW9tYWUnLCAnPG91dGZpbGUubWFlPic=

>  <r_lp_tautomer_probability>  (182) 
1

>  <r_epik_Ionization_Penalty>  (182) 
4.47859e-06

>  <r_epik_Ionization_Penalty_Charging>  (182) 
0

>  <r_epik_Ionization_Penalty_Neutral>  (182) 
4.47859e-06

>  <r_epik_State_Penalty>  (182) 
-0

>  <r_epik_Charging_Adjusted_Penalty>  (182) 
0

>  <i_epik_Tot_Q>  (182) 
0

>  <i_epik_Tot_abs_Q>  (182) 
0

>  <s_lp_Force_Field>  (182) 
OPLS3e

>  <r_lp_Energy>  (182) 
52.8789

>  <b_lp_Chiralities_Consistent>  (182) 
1

>  <s_lp_Variant>  (182) 
62:0-2

>  <s_i_glide_gridfile>  (182) 
pfpi4k_grid

>  <i_i_glide_lignum>  (182) 
6

>  <i_i_glide_rotatable_bonds>  (182) 
9

>  <r_i_docking_score>  (182) 
-2.92238

>  <r_i_glide_ligand_efficiency>  (182) 
-0.0811773

>  <r_i_glide_ligand_efficiency_sa>  (182) 
-0.268041

>  <r_i_glide_ligand_efficiency_ln>  (182) 
-0.637585

>  <r_i_glide_gscore>  (182) 
-2.92238

>  <r_i_glide_lipo>  (182) 
-0.39848

>  <r_i_glide_hbond>  (182) 
-0.190922

>  <r_i_glide_metal>  (182) 
-0

>  <r_i_glide_rewards>  (182) 
0

>  <r_i_glide_evdw>  (182) 
-29.1425

>  <r_i_glide_ecoul>  (182) 
-8.01114

>  <r_i_glide_erotb>  (182) 
0.325818

>  <r_i_glide_esite>  (182) 
0

>  <r_i_glide_emodel>  (182) 
-42.6106

>  <r_i_glide_energy>  (182) 
-37.1537

>  <r_i_glide_einternal>  (182) 
3.33936

>  <r_i_glide_intrahb_reward>  (182) 
-0

>  <i_i_glide_confnum>  (182) 
4

>  <i_i_glide_posenum>  (182) 
1

>  <r_i_glide_eff_state_penalty>  (182) 
0

>  <ligand_id>  (182) 
62

>  <original_smiles>  (182) 
CC1=C2C3=CCC4(O)C(CCC5(C)C(C(C)CC=CC(C)(C)O)CC(O)C54)C3(C)CC(O)C2CC1O

>  <smiles>  (182) 
[H]OC1([H])C(C([H])([H])[H])=C2C3=C([H])C([H])([H])C4(O[H])C([H])(C([H])([H])C([H])([H])C5(C([H])([H])[H])C([H])(C([H])(C([H])([H])[H])C([H])([H])C([H])=C([H])C(O[H])(C([H])([H])[H])C([H])([H])[H])C([H])([H])C([H])(O[H])C45[H])C3(C([H])([H])[H])C([H])([H])C([H])(O[H])C2([H])C1([H])[H]

$$$$
63:0:0
     RDKit          3D

 29 31  0  0  1  0  0  0  0  0999 V2000
   -2.7487    2.6113    2.4749 C   0  0  0  0  0  0  0  0  0  0  0  0
   -1.3413    2.6228    2.8635 N   0  0  0  0  0  0  0  0  0  0  0  0
   -0.4505    1.6891    2.2636 C   0  0  0  0  0  0  0  0  0  0  0  0
    0.8539    1.7259    2.5837 C   0  0  0  0  0  0  0  0  0  0  0  0
    1.9890    0.9885    2.2069 C   0  0  0  0  0  0  0  0  0  0  0  0
    2.0924    0.0077    1.2815 N   0  0  0  0  0  0  0  0  0  0  0  0
    3.2858   -0.8039    1.0970 C   0  0  0  0  0  0  0  0  0  0  0  0
    3.1958   -2.2069    1.0024 C   0  0  0  0  0  0  0  0  0  0  0  0
    4.2872   -2.9742    0.7841 N   0  0  0  0  0  0  0  0  0  0  0  0
    5.4552   -2.3463    0.6359 C   0  0  0  0  0  0  0  0  0  0  0  0
    5.6467   -1.0263    0.6627 N   0  0  0  0  0  0  0  0  0  0  0  0
    4.5635   -0.2552    0.8869 C   0  0  0  0  0  0  0  0  0  0  0  0
    3.0231    1.4675    2.9263 N   0  0  0  0  0  0  0  0  0  0  0  0
    2.6621    2.5368    3.7493 N   0  0  0  0  0  0  0  0  0  0  0  0
    1.3192    2.6852    3.5365 C   0  0  0  0  0  0  0  0  0  0  0  0
    0.4888    3.5704    4.1120 C   0  0  0  0  0  0  0  0  0  0  0  0
   -0.9347    3.5816    3.7588 C   0  0  0  0  0  0  0  0  0  0  0  0
   -1.7162    4.4014    4.2455 O   0  0  0  0  0  0  0  0  0  0  0  0
    3.9844    1.3430    2.6283 H   0  0  0  0  0  0  0  0  0  0  0  0
    2.9945    2.4422    4.7036 H   0  0  0  0  0  0  0  0  0  0  0  0
   -2.9595    1.8908    1.6827 H   0  0  0  0  0  0  0  0  0  0  0  0
   -3.0517    3.5852    2.0870 H   0  0  0  0  0  0  0  0  0  0  0  0
   -3.3754    2.3995    3.3443 H   0  0  0  0  0  0  0  0  0  0  0  0
   -0.8965    0.9993    1.5421 H   0  0  0  0  0  0  0  0  0  0  0  0
    2.2564   -2.7325    1.1090 H   0  0  0  0  0  0  0  0  0  0  0  0
    6.3255   -2.9602    0.4780 H   0  0  0  0  0  0  0  0  0  0  0  0
    4.7186    0.8105    0.8685 H   0  0  0  0  0  0  0  0  0  0  0  0
    0.8856    4.2705    4.8335 H   0  0  0  0  0  0  0  0  0  0  0  0
    1.2594   -0.2550    0.7437 H   0  0  0  0  0  0  0  0  0  0  0  0
  1  2  1  0
  1 21  1  0
  1 22  1  0
  1 23  1  0
  2 17  1  0
  2  3  1  0
  3  4  2  0
  3 24  1  0
  4 15  1  0
  4  5  1  0
  5  6  1  0
  5 13  2  0
  6  7  1  0
  6 29  1  0
  7 12  1  0
  7  8  2  0
  8  9  1  0
  8 25  1  0
  9 10  2  0
 10 11  1  0
 10 26  1  0
 11 12  2  0
 12 27  1  0
 13 19  1  0
 13 14  1  0
 14 20  1  0
 14 15  1  0
 15 16  2  0
 16 17  1  0
 16 28  1  0
 17 18  2  0
M  CHG  1  13   1
M  END
>  <i_m_ct_stereo_status>  (183) 
1

>  <s_m_source_file>  (183) 
/var/tmp/pbs.5076255.sched01/tmprae_yccg/80g5h6lheg.sdf

>  <i_m_source_file_index>  (183) 
7

>  <i_lp_mmshare_version>  (183) 
48012

>  <i_f3d_flags>  (183) 
0

>  <s_epik_input>  (183) 
W0NIM11uKFtjSF0xKWMoPU8pW2NIXWMoYzEyKVtuSF1bbkhdY1wyPU4vYzNbY0hdbltjSF1uW2NIXTM=

>  <s_epik_cmdline>  (183) 
J2VwaWtfcHl0aG9uJywgJy1waHQnLCAnMi4wJywgJy1waCcsICc3LjAnLCAnLXRuJywgJzgnLCAnLW1hJywgJzIwMCcsICctaW1hZScsICc8aW5maWxlLm1hZT4nLCAnLW9tYWUnLCAnPG91dGZpbGUubWFlPic=

>  <r_lp_tautomer_probability>  (183) 
1

>  <r_epik_Ionization_Penalty>  (183) 
6.33457e-06

>  <r_epik_Ionization_Penalty_Charging>  (183) 
3.03137e-12

>  <r_epik_Ionization_Penalty_Neutral>  (183) 
6.33456e-06

>  <r_epik_State_Penalty>  (183) 
-0

>  <r_epik_Charging_Adjusted_Penalty>  (183) 
3.03137e-12

>  <i_epik_Tot_Q>  (183) 
1

>  <i_epik_Tot_abs_Q>  (183) 
1

>  <s_lp_Force_Field>  (183) 
OPLS3e

>  <r_lp_Energy>  (183) 
37.9545

>  <b_lp_Chiralities_Consistent>  (183) 
1

>  <s_lp_Variant>  (183) 
63:0-1

>  <s_i_glide_gridfile>  (183) 
pfpi4k_grid

>  <i_i_glide_lignum>  (183) 
7

>  <i_i_glide_rotatable_bonds>  (183) 
2

>  <r_i_docking_score>  (183) 
-4.15732

>  <r_i_glide_ligand_efficiency>  (183) 
-0.230962

>  <r_i_glide_ligand_efficiency_sa>  (183) 
-0.605292

>  <r_i_glide_ligand_efficiency_ln>  (183) 
-1.06862

>  <r_i_glide_gscore>  (183) 
-4.15732

>  <r_i_glide_lipo>  (183) 
-0.213343

>  <r_i_glide_hbond>  (183) 
-0.284259

>  <r_i_glide_metal>  (183) 
-0

>  <r_i_glide_rewards>  (183) 
-1.81139

>  <r_i_glide_evdw>  (183) 
-18.5328

>  <r_i_glide_ecoul>  (183) 
-8.86022

>  <r_i_glide_erotb>  (183) 
0.58688

>  <r_i_glide_esite>  (183) 
-0.179534

>  <r_i_glide_emodel>  (183) 
-34.2614

>  <r_i_glide_energy>  (183) 
-27.393

>  <r_i_glide_einternal>  (183) 
2.41977

>  <r_i_glide_intrahb_reward>  (183) 
-0

>  <i_i_glide_confnum>  (183) 
5

>  <i_i_glide_posenum>  (183) 
9

>  <r_i_glide_eff_state_penalty>  (183) 
0

>  <ligand_id>  (183) 
63

>  <original_smiles>  (183) 
Cn1cc2c(=Nc3cncnc3)[nH][nH]c2cc1=O

>  <smiles>  (183) 
[H]c1nc([H])c(N([H])c2c3c([H])n(C([H])([H])[H])c(=O)c([H])c3n([H])[n+]2[H])c([H])n1

$$$$
63:0:1
     RDKit          3D

 29 31  0  0  1  0  0  0  0  0999 V2000
   -2.7610    2.5463    2.4744 C   0  0  0  0  0  0  0  0  0  0  0  0
   -1.3606    2.5895    2.8877 N   0  0  0  0  0  0  0  0  0  0  0  0
   -0.4344    1.7008    2.2755 C   0  0  0  0  0  0  0  0  0  0  0  0
    0.8618    1.7612    2.6297 C   0  0  0  0  0  0  0  0  0  0  0  0
    2.0255    1.0646    2.2423 C   0  0  0  0  0  0  0  0  0  0  0  0
    2.1469    0.0776    1.3132 N   0  0  0  0  0  0  0  0  0  0  0  0
    3.3912   -0.6317    1.0378 C   0  0  0  0  0  0  0  0  0  0  0  0
    3.6911   -1.0674   -0.2709 C   0  0  0  0  0  0  0  0  0  0  0  0
    4.7936   -1.7978   -0.5426 N   0  0  0  0  0  0  0  0  0  0  0  0
    5.5797   -2.1144    0.4826 C   0  0  0  0  0  0  0  0  0  0  0  0
    5.3975   -1.7584    1.7527 N   0  0  0  0  0  0  0  0  0  0  0  0
    4.2988   -1.0301    2.0390 C   0  0  0  0  0  0  0  0  0  0  0  0
    3.0328    1.5796    2.9760 N   0  0  0  0  0  0  0  0  0  0  0  0
    2.6177    2.5940    3.8503 N   0  0  0  0  0  0  0  0  0  0  0  0
    1.2736    2.6960    3.6242 C   0  0  0  0  0  0  0  0  0  0  0  0
    0.4093    3.5265    4.2209 C   0  0  0  0  0  0  0  0  0  0  0  0
   -1.0022    3.5118    3.8360 C   0  0  0  0  0  0  0  0  0  0  0  0
   -1.8201    4.2805    4.3465 O   0  0  0  0  0  0  0  0  0  0  0  0
    4.0045    1.4988    2.7080 H   0  0  0  0  0  0  0  0  0  0  0  0
    2.9264    2.4653    4.8042 H   0  0  0  0  0  0  0  0  0  0  0  0
   -2.9353    1.8277    1.6738 H   0  0  0  0  0  0  0  0  0  0  0  0
   -3.0971    3.5197    2.1127 H   0  0  0  0  0  0  0  0  0  0  0  0
   -3.3851    2.2780    3.3301 H   0  0  0  0  0  0  0  0  0  0  0  0
   -0.8366    1.0297    1.5240 H   0  0  0  0  0  0  0  0  0  0  0  0
    3.0365   -0.8659   -1.1065 H   0  0  0  0  0  0  0  0  0  0  0  0
    6.4535   -2.7128    0.2623 H   0  0  0  0  0  0  0  0  0  0  0  0
    4.1499   -0.7891    3.0789 H   0  0  0  0  0  0  0  0  0  0  0  0
    0.7530    4.2162    4.9789 H   0  0  0  0  0  0  0  0  0  0  0  0
    1.3818   -0.0343    0.6485 H   0  0  0  0  0  0  0  0  0  0  0  0
  1  2  1  0
  1 21  1  0
  1 22  1  0
  1 23  1  0
  2 17  1  0
  2  3  1  0
  3  4  2  0
  3 24  1  0
  4 15  1  0
  4  5  1  0
  5  6  1  0
  5 13  2  0
  6  7  1  0
  6 29  1  0
  7 12  1  0
  7  8  2  0
  8  9  1  0
  8 25  1  0
  9 10  2  0
 10 11  1  0
 10 26  1  0
 11 12  2  0
 12 27  1  0
 13 19  1  0
 13 14  1  0
 14 20  1  0
 14 15  1  0
 15 16  2  0
 16 17  1  0
 16 28  1  0
 17 18  2  0
M  CHG  1  13   1
M  END
>  <i_m_ct_stereo_status>  (184) 
1

>  <s_m_source_file>  (184) 
/var/tmp/pbs.5076255.sched01/tmprae_yccg/80g5h6lheg.sdf

>  <i_m_source_file_index>  (184) 
7

>  <i_lp_mmshare_version>  (184) 
48012

>  <i_f3d_flags>  (184) 
0

>  <s_epik_input>  (184) 
W0NIM11uKFtjSF0xKWMoPU8pW2NIXWMoYzEyKVtuSF1bbkhdY1wyPU4vYzNbY0hdbltjSF1uW2NIXTM=

>  <s_epik_cmdline>  (184) 
J2VwaWtfcHl0aG9uJywgJy1waHQnLCAnMi4wJywgJy1waCcsICc3LjAnLCAnLXRuJywgJzgnLCAnLW1hJywgJzIwMCcsICctaW1hZScsICc8aW5maWxlLm1hZT4nLCAnLW9tYWUnLCAnPG91dGZpbGUubWFlPic=

>  <r_lp_tautomer_probability>  (184) 
1

>  <r_epik_Ionization_Penalty>  (184) 
6.33457e-06

>  <r_epik_Ionization_Penalty_Charging>  (184) 
3.03137e-12

>  <r_epik_Ionization_Penalty_Neutral>  (184) 
6.33456e-06

>  <r_epik_State_Penalty>  (184) 
-0

>  <r_epik_Charging_Adjusted_Penalty>  (184) 
3.03137e-12

>  <i_epik_Tot_Q>  (184) 
1

>  <i_epik_Tot_abs_Q>  (184) 
1

>  <s_lp_Force_Field>  (184) 
OPLS3e

>  <r_lp_Energy>  (184) 
37.9545

>  <b_lp_Chiralities_Consistent>  (184) 
1

>  <s_lp_Variant>  (184) 
63:0-1

>  <s_i_glide_gridfile>  (184) 
pfpi4k_grid

>  <i_i_glide_lignum>  (184) 
7

>  <i_i_glide_rotatable_bonds>  (184) 
2

>  <r_i_docking_score>  (184) 
-4.03944

>  <r_i_glide_ligand_efficiency>  (184) 
-0.224413

>  <r_i_glide_ligand_efficiency_sa>  (184) 
-0.588129

>  <r_i_glide_ligand_efficiency_ln>  (184) 
-1.03832

>  <r_i_glide_gscore>  (184) 
-4.03944

>  <r_i_glide_lipo>  (184) 
-0.115109

>  <r_i_glide_hbond>  (184) 
-0.26301

>  <r_i_glide_metal>  (184) 
-0

>  <r_i_glide_rewards>  (184) 
-1.82639

>  <r_i_glide_evdw>  (184) 
-17.8855

>  <r_i_glide_ecoul>  (184) 
-9.03118

>  <r_i_glide_erotb>  (184) 
0.58688

>  <r_i_glide_esite>  (184) 
-0.172856

>  <r_i_glide_emodel>  (184) 
-35.5267

>  <r_i_glide_energy>  (184) 
-26.9167

>  <r_i_glide_einternal>  (184) 
0.189839

>  <r_i_glide_intrahb_reward>  (184) 
-0

>  <i_i_glide_confnum>  (184) 
4

>  <i_i_glide_posenum>  (184) 
5

>  <r_i_glide_eff_state_penalty>  (184) 
0

>  <ligand_id>  (184) 
63

>  <original_smiles>  (184) 
Cn1cc2c(=Nc3cncnc3)[nH][nH]c2cc1=O

>  <smiles>  (184) 
[H]c1nc([H])c(N([H])c2c3c([H])n(C([H])([H])[H])c(=O)c([H])c3n([H])[n+]2[H])c([H])n1

$$$$
63:0:2
     RDKit          3D

 29 31  0  0  1  0  0  0  0  0999 V2000
    3.4333   -3.2625    5.5536 C   0  0  0  0  0  0  0  0  0  0  0  0
    3.2271   -4.0189    4.3148 N   0  0  0  0  0  0  0  0  0  0  0  0
    3.2751   -3.3226    3.0805 C   0  0  0  0  0  0  0  0  0  0  0  0
    3.1021   -4.0132    1.9358 C   0  0  0  0  0  0  0  0  0  0  0  0
    3.1291   -3.6892    0.5636 C   0  0  0  0  0  0  0  0  0  0  0  0
    3.2931   -2.4542    0.0121 N   0  0  0  0  0  0  0  0  0  0  0  0
    3.4071   -2.2054   -1.4297 C   0  0  0  0  0  0  0  0  0  0  0  0
    4.1141   -1.0759   -1.8930 C   0  0  0  0  0  0  0  0  0  0  0  0
    4.1962   -0.7705   -3.2044 N   0  0  0  0  0  0  0  0  0  0  0  0
    3.5564   -1.5644   -4.0544 C   0  0  0  0  0  0  0  0  0  0  0  0
    2.8848   -2.6613   -3.7443 N   0  0  0  0  0  0  0  0  0  0  0  0
    2.7686   -2.9682   -2.4393 C   0  0  0  0  0  0  0  0  0  0  0  0
    2.9434   -4.8418   -0.1143 N   0  0  0  0  0  0  0  0  0  0  0  0
    2.7269   -5.9354    0.7356 N   0  0  0  0  0  0  0  0  0  0  0  0
    2.8475   -5.4178    1.9965 C   0  0  0  0  0  0  0  0  0  0  0  0
    2.7719   -6.0814    3.1474 C   0  0  0  0  0  0  0  0  0  0  0  0
    2.9821   -5.3718    4.4188 C   0  0  0  0  0  0  0  0  0  0  0  0
    2.9407   -5.9359    5.5042 O   0  0  0  0  0  0  0  0  0  0  0  0
    3.0348   -4.9283   -1.1280 H   0  0  0  0  0  0  0  0  0  0  0  0
    1.8940   -6.4619    0.5074 H   0  0  0  0  0  0  0  0  0  0  0  0
    3.6592   -2.2080    5.3776 H   0  0  0  0  0  0  0  0  0  0  0  0
    4.2592   -3.6944    6.1272 H   0  0  0  0  0  0  0  0  0  0  0  0
    2.5354   -3.3216    6.1748 H   0  0  0  0  0  0  0  0  0  0  0  0
    3.4802   -2.2486    3.1274 H   0  0  0  0  0  0  0  0  0  0  0  0
    4.6017   -0.3784   -1.2270 H   0  0  0  0  0  0  0  0  0  0  0  0
    3.6246   -1.3388   -5.1056 H   0  0  0  0  0  0  0  0  0  0  0  0
    2.1527   -3.8371   -2.2572 H   0  0  0  0  0  0  0  0  0  0  0  0
    2.5858   -7.1478    3.1454 H   0  0  0  0  0  0  0  0  0  0  0  0
    3.5356   -1.7091    0.6641 H   0  0  0  0  0  0  0  0  0  0  0  0
  1  2  1  0
  1 21  1  0
  1 22  1  0
  1 23  1  0
  2 17  1  0
  2  3  1  0
  3  4  2  0
  3 24  1  0
  4 15  1  0
  4  5  1  0
  5  6  1  0
  5 13  2  0
  6  7  1  0
  6 29  1  0
  7 12  1  0
  7  8  2  0
  8  9  1  0
  8 25  1  0
  9 10  2  0
 10 11  1  0
 10 26  1  0
 11 12  2  0
 12 27  1  0
 13 19  1  0
 13 14  1  0
 14 20  1  0
 14 15  1  0
 15 16  2  0
 16 17  1  0
 16 28  1  0
 17 18  2  0
M  CHG  1  13   1
M  END
>  <i_m_ct_stereo_status>  (185) 
1

>  <s_m_source_file>  (185) 
/var/tmp/pbs.5076255.sched01/tmprae_yccg/80g5h6lheg.sdf

>  <i_m_source_file_index>  (185) 
7

>  <i_lp_mmshare_version>  (185) 
48012

>  <i_f3d_flags>  (185) 
0

>  <s_epik_input>  (185) 
W0NIM11uKFtjSF0xKWMoPU8pW2NIXWMoYzEyKVtuSF1bbkhdY1wyPU4vYzNbY0hdbltjSF1uW2NIXTM=

>  <s_epik_cmdline>  (185) 
J2VwaWtfcHl0aG9uJywgJy1waHQnLCAnMi4wJywgJy1waCcsICc3LjAnLCAnLXRuJywgJzgnLCAnLW1hJywgJzIwMCcsICctaW1hZScsICc8aW5maWxlLm1hZT4nLCAnLW9tYWUnLCAnPG91dGZpbGUubWFlPic=

>  <r_lp_tautomer_probability>  (185) 
1

>  <r_epik_Ionization_Penalty>  (185) 
6.33457e-06

>  <r_epik_Ionization_Penalty_Charging>  (185) 
3.03137e-12

>  <r_epik_Ionization_Penalty_Neutral>  (185) 
6.33456e-06

>  <r_epik_State_Penalty>  (185) 
-0

>  <r_epik_Charging_Adjusted_Penalty>  (185) 
3.03137e-12

>  <i_epik_Tot_Q>  (185) 
1

>  <i_epik_Tot_abs_Q>  (185) 
1

>  <s_lp_Force_Field>  (185) 
OPLS3e

>  <r_lp_Energy>  (185) 
37.9545

>  <b_lp_Chiralities_Consistent>  (185) 
1

>  <s_lp_Variant>  (185) 
63:0-1

>  <s_i_glide_gridfile>  (185) 
pfpi4k_grid

>  <i_i_glide_lignum>  (185) 
7

>  <i_i_glide_rotatable_bonds>  (185) 
2

>  <r_i_docking_score>  (185) 
-2.92413

>  <r_i_glide_ligand_efficiency>  (185) 
-0.162452

>  <r_i_glide_ligand_efficiency_sa>  (185) 
-0.425744

>  <r_i_glide_ligand_efficiency_ln>  (185) 
-0.751633

>  <r_i_glide_gscore>  (185) 
-2.92413

>  <r_i_glide_lipo>  (185) 
-0.000130076

>  <r_i_glide_hbond>  (185) 
0

>  <r_i_glide_metal>  (185) 
-0

>  <r_i_glide_rewards>  (185) 
-1.78757

>  <r_i_glide_evdw>  (185) 
-18.9141

>  <r_i_glide_ecoul>  (185) 
-4.40904

>  <r_i_glide_erotb>  (185) 
0.58688

>  <r_i_glide_esite>  (185) 
-0.116247

>  <r_i_glide_emodel>  (185) 
-29.273

>  <r_i_glide_energy>  (185) 
-23.3232

>  <r_i_glide_einternal>  (185) 
0.270363

>  <r_i_glide_intrahb_reward>  (185) 
-0

>  <i_i_glide_confnum>  (185) 
6

>  <i_i_glide_posenum>  (185) 
17

>  <r_i_glide_eff_state_penalty>  (185) 
0

>  <ligand_id>  (185) 
63

>  <original_smiles>  (185) 
Cn1cc2c(=Nc3cncnc3)[nH][nH]c2cc1=O

>  <smiles>  (185) 
[H]c1nc([H])c(N([H])c2c3c([H])n(C([H])([H])[H])c(=O)c([H])c3n([H])[n+]2[H])c([H])n1

$$$$
64:0:0
     RDKit          3D

 23 25  0  0  1  0  0  0  0  0999 V2000
   -9.3590   -3.7447   -5.9518 C   0  0  0  0  0  0  0  0  0  0  0  0
   -8.1348   -4.5535   -5.6411 C   0  0  0  0  0  0  0  0  0  0  0  0
   -7.1949   -4.1745   -4.7016 N   0  0  0  0  0  0  0  0  0  0  0  0
   -6.1777   -5.0709   -4.6019 N   0  0  0  0  0  0  0  0  0  0  0  0
   -6.5095   -6.0194   -5.4988 C   0  0  0  0  0  0  0  0  0  0  0  0
   -5.7274   -7.1570   -5.7578 C   0  0  0  0  0  0  0  0  0  0  0  0
   -4.5372   -7.3358   -5.0978 O   0  0  0  0  0  0  0  0  0  0  0  0
   -6.1650   -8.0935   -6.7269 C   0  0  0  0  0  0  0  0  0  0  0  0
   -5.4200   -9.2031   -6.9804 N   0  0  0  0  0  0  0  0  0  0  0  0
   -5.8406  -10.0920   -7.8942 C   0  0  0  0  0  0  0  0  0  0  0  0
   -7.0183   -9.9306   -8.6288 C   0  0  0  0  0  0  0  0  0  0  0  0
   -7.7991   -8.7842   -8.3935 C   0  0  0  0  0  0  0  0  0  0  0  0
   -7.3857   -7.8356   -7.4274 C   0  0  0  0  0  0  0  0  0  0  0  0
   -8.1613   -6.6652   -7.1726 C   0  0  0  0  0  0  0  0  0  0  0  0
   -9.6212   -6.3466   -8.0542 Cl  0  0  0  0  0  0  0  0  0  0  0  0
   -7.6927   -5.7673   -6.1800 C   0  0  0  0  0  0  0  0  0  0  0  0
   -7.2170   -3.3494   -4.1217 H   0  0  0  0  0  0  0  0  0  0  0  0
  -10.0148   -4.1647   -6.7160 H   0  0  0  0  0  0  0  0  0  0  0  0
   -9.0644   -2.7404   -6.2645 H   0  0  0  0  0  0  0  0  0  0  0  0
   -9.9478   -3.6082   -5.0426 H   0  0  0  0  0  0  0  0  0  0  0  0
   -5.1990  -10.9500   -8.0502 H   0  0  0  0  0  0  0  0  0  0  0  0
   -7.3086  -10.6645   -9.3627 H   0  0  0  0  0  0  0  0  0  0  0  0
   -8.7072   -8.6551   -8.9614 H   0  0  0  0  0  0  0  0  0  0  0  0
  1  2  1  0
  1 18  1  0
  1 19  1  0
  1 20  1  0
  2 16  2  0
  2  3  1  0
  3 17  1  0
  3  4  1  0
  4  5  2  0
  5 16  1  0
  5  6  1  0
  6  7  1  0
  6  8  2  0
  8 13  1  0
  8  9  1  0
  9 10  2  0
 10 11  1  0
 10 21  1  0
 11 12  2  0
 11 22  1  0
 12 13  1  0
 12 23  1  0
 13 14  2  0
 14 15  1  0
 14 16  1  0
M  CHG  1   7  -1
M  END
>  <i_m_ct_stereo_status>  (186) 
1

>  <s_m_source_file>  (186) 
/var/tmp/pbs.5076255.sched01/tmprae_yccg/80g5h6lheg.sdf

>  <i_m_source_file_index>  (186) 
8

>  <i_lp_mmshare_version>  (186) 
48012

>  <i_f3d_flags>  (186) 
0

>  <s_epik_input>  (186) 
bjFbbkhdYyhbQ0gzXSljKGMxMiljKENsKWMzYyhjMltPSF0pbltjSF1bY0hdW2NIXTM=

>  <s_epik_cmdline>  (186) 
J2VwaWtfcHl0aG9uJywgJy1waHQnLCAnMi4wJywgJy1waCcsICc3LjAnLCAnLXRuJywgJzgnLCAnLW1hJywgJzIwMCcsICctaW1hZScsICc8aW5maWxlLm1hZT4nLCAnLW9tYWUnLCAnPG91dGZpbGUubWFlPic=

>  <r_epik_Ionization_Penalty>  (186) 
0.218535

>  <r_epik_Ionization_Penalty_Charging>  (186) 
0.218357

>  <r_epik_Ionization_Penalty_Neutral>  (186) 
0.000177762

>  <r_epik_State_Penalty>  (186) 
0.208639

>  <r_epik_Charging_Adjusted_Penalty>  (186) 
0.426997

>  <i_epik_Tot_Q>  (186) 
-1

>  <i_epik_Tot_abs_Q>  (186) 
1

>  <s_lp_Force_Field>  (186) 
OPLS3e

>  <r_lp_Energy>  (186) 
27.1124

>  <b_lp_Chiralities_Consistent>  (186) 
1

>  <s_lp_Variant>  (186) 
64:0-1

>  <s_i_glide_gridfile>  (186) 
pfpi4k_grid

>  <i_i_glide_lignum>  (186) 
8

>  <i_i_glide_rotatable_bonds>  (186) 
0

>  <r_i_docking_score>  (186) 
-6.19528

>  <r_i_glide_ligand_efficiency>  (186) 
-0.387205

>  <r_i_glide_ligand_efficiency_sa>  (186) 
-0.975696

>  <r_i_glide_ligand_efficiency_ln>  (186) 
-1.64218

>  <r_i_glide_gscore>  (186) 
-6.19528

>  <r_i_glide_lipo>  (186) 
-2.44019

>  <r_i_glide_hbond>  (186) 
-0.0529623

>  <r_i_glide_metal>  (186) 
-0

>  <r_i_glide_rewards>  (186) 
-2.3479

>  <r_i_glide_evdw>  (186) 
-26.3211

>  <r_i_glide_ecoul>  (186) 
-0.254507

>  <r_i_glide_erotb>  (186) 
0

>  <r_i_glide_esite>  (186) 
0

>  <r_i_glide_emodel>  (186) 
-41.7396

>  <r_i_glide_energy>  (186) 
-26.5756

>  <r_i_glide_einternal>  (186) 
0

>  <r_i_glide_intrahb_reward>  (186) 
-0

>  <i_i_glide_confnum>  (186) 
2

>  <i_i_glide_posenum>  (186) 
3

>  <r_i_glide_eff_state_penalty>  (186) 
0

>  <ligand_id>  (186) 
64

>  <original_smiles>  (186) 
Cc1[nH]nc2c(O)c3ncccc3c(Cl)c12

>  <smiles>  (186) 
[H]c1nc2c([O-])c3nn([H])c(C([H])([H])[H])c3c(Cl)c2c([H])c1[H]

$$$$
64:0:1
     RDKit          3D

 23 25  0  0  1  0  0  0  0  0999 V2000
   -4.5855   -8.3940   -4.7932 C   0  0  0  0  0  0  0  0  0  0  0  0
   -4.6416   -9.6291   -5.6385 C   0  0  0  0  0  0  0  0  0  0  0  0
   -3.7368  -10.6650   -5.5247 N   0  0  0  0  0  0  0  0  0  0  0  0
   -3.9883  -11.6726   -6.4084 N   0  0  0  0  0  0  0  0  0  0  0  0
   -5.0879  -11.2454   -7.0675 C   0  0  0  0  0  0  0  0  0  0  0  0
   -5.7211  -11.9707   -8.0919 C   0  0  0  0  0  0  0  0  0  0  0  0
   -5.2179  -13.1889   -8.4987 O   0  0  0  0  0  0  0  0  0  0  0  0
   -6.8737  -11.4183   -8.7146 C   0  0  0  0  0  0  0  0  0  0  0  0
   -7.5014  -12.1059   -9.7045 N   0  0  0  0  0  0  0  0  0  0  0  0
   -8.5823  -11.5774  -10.3024 C   0  0  0  0  0  0  0  0  0  0  0  0
   -9.1079  -10.3275   -9.9586 C   0  0  0  0  0  0  0  0  0  0  0  0
   -8.4772   -9.5973   -8.9371 C   0  0  0  0  0  0  0  0  0  0  0  0
   -7.3381  -10.1297   -8.2863 C   0  0  0  0  0  0  0  0  0  0  0  0
   -6.6811   -9.4040   -7.2514 C   0  0  0  0  0  0  0  0  0  0  0  0
   -7.2448   -7.8374   -6.7579 Cl  0  0  0  0  0  0  0  0  0  0  0  0
   -5.5425   -9.9968   -6.6513 C   0  0  0  0  0  0  0  0  0  0  0  0
   -2.9737  -10.7262   -4.8683 H   0  0  0  0  0  0  0  0  0  0  0  0
   -5.3655   -7.6558   -4.9797 H   0  0  0  0  0  0  0  0  0  0  0  0
   -3.6163   -7.9055   -4.9251 H   0  0  0  0  0  0  0  0  0  0  0  0
   -4.6176   -8.6747   -3.7375 H   0  0  0  0  0  0  0  0  0  0  0  0
   -9.0320  -12.1768  -11.0806 H   0  0  0  0  0  0  0  0  0  0  0  0
   -9.9797   -9.9482  -10.4669 H   0  0  0  0  0  0  0  0  0  0  0  0
   -8.8863   -8.6342   -8.6698 H   0  0  0  0  0  0  0  0  0  0  0  0
  1  2  1  0
  1 18  1  0
  1 19  1  0
  1 20  1  0
  2 16  2  0
  2  3  1  0
  3 17  1  0
  3  4  1  0
  4  5  2  0
  5 16  1  0
  5  6  1  0
  6  7  1  0
  6  8  2  0
  8 13  1  0
  8  9  1  0
  9 10  2  0
 10 11  1  0
 10 21  1  0
 11 12  2  0
 11 22  1  0
 12 13  1  0
 12 23  1  0
 13 14  2  0
 14 15  1  0
 14 16  1  0
M  CHG  1   7  -1
M  END
>  <i_m_ct_stereo_status>  (187) 
1

>  <s_m_source_file>  (187) 
/var/tmp/pbs.5076255.sched01/tmprae_yccg/80g5h6lheg.sdf

>  <i_m_source_file_index>  (187) 
8

>  <i_lp_mmshare_version>  (187) 
48012

>  <i_f3d_flags>  (187) 
0

>  <s_epik_input>  (187) 
bjFbbkhdYyhbQ0gzXSljKGMxMiljKENsKWMzYyhjMltPSF0pbltjSF1bY0hdW2NIXTM=

>  <s_epik_cmdline>  (187) 
J2VwaWtfcHl0aG9uJywgJy1waHQnLCAnMi4wJywgJy1waCcsICc3LjAnLCAnLXRuJywgJzgnLCAnLW1hJywgJzIwMCcsICctaW1hZScsICc8aW5maWxlLm1hZT4nLCAnLW9tYWUnLCAnPG91dGZpbGUubWFlPic=

>  <r_epik_Ionization_Penalty>  (187) 
0.218535

>  <r_epik_Ionization_Penalty_Charging>  (187) 
0.218357

>  <r_epik_Ionization_Penalty_Neutral>  (187) 
0.000177762

>  <r_epik_State_Penalty>  (187) 
0.208639

>  <r_epik_Charging_Adjusted_Penalty>  (187) 
0.426997

>  <i_epik_Tot_Q>  (187) 
-1

>  <i_epik_Tot_abs_Q>  (187) 
1

>  <s_lp_Force_Field>  (187) 
OPLS3e

>  <r_lp_Energy>  (187) 
27.1124

>  <b_lp_Chiralities_Consistent>  (187) 
1

>  <s_lp_Variant>  (187) 
64:0-1

>  <s_i_glide_gridfile>  (187) 
pfpi4k_grid

>  <i_i_glide_lignum>  (187) 
8

>  <i_i_glide_rotatable_bonds>  (187) 
0

>  <r_i_docking_score>  (187) 
-4.6066

>  <r_i_glide_ligand_efficiency>  (187) 
-0.287913

>  <r_i_glide_ligand_efficiency_sa>  (187) 
-0.725495

>  <r_i_glide_ligand_efficiency_ln>  (187) 
-1.22107

>  <r_i_glide_gscore>  (187) 
-4.6066

>  <r_i_glide_lipo>  (187) 
-1.18529

>  <r_i_glide_hbond>  (187) 
0

>  <r_i_glide_metal>  (187) 
-0

>  <r_i_glide_rewards>  (187) 
-2.05559

>  <r_i_glide_evdw>  (187) 
-21.6097

>  <r_i_glide_ecoul>  (187) 
-1.90159

>  <r_i_glide_erotb>  (187) 
0

>  <r_i_glide_esite>  (187) 
0

>  <r_i_glide_emodel>  (187) 
-34.7783

>  <r_i_glide_energy>  (187) 
-23.5113

>  <r_i_glide_einternal>  (187) 
0

>  <r_i_glide_intrahb_reward>  (187) 
-0

>  <i_i_glide_confnum>  (187) 
2

>  <i_i_glide_posenum>  (187) 
4

>  <r_i_glide_eff_state_penalty>  (187) 
0

>  <ligand_id>  (187) 
64

>  <original_smiles>  (187) 
Cc1[nH]nc2c(O)c3ncccc3c(Cl)c12

>  <smiles>  (187) 
[H]c1nc2c([O-])c3nn([H])c(C([H])([H])[H])c3c(Cl)c2c([H])c1[H]

$$$$
64:0:2
     RDKit          3D

 23 25  0  0  1  0  0  0  0  0999 V2000
   -1.2760    1.7181    3.0866 C   0  0  0  0  0  0  0  0  0  0  0  0
   -0.9387    2.9462    3.8626 C   0  0  0  0  0  0  0  0  0  0  0  0
   -0.3908    4.0766    3.2796 N   0  0  0  0  0  0  0  0  0  0  0  0
   -0.2031    5.0725    4.2005 N   0  0  0  0  0  0  0  0  0  0  0  0
   -0.5964    4.5174    5.3702 C   0  0  0  0  0  0  0  0  0  0  0  0
   -0.5674    5.2286    6.5911 C   0  0  0  0  0  0  0  0  0  0  0  0
   -0.1414    6.5559    6.6392 O   0  0  0  0  0  0  0  0  0  0  0  0
   -1.0500    4.5589    7.7360 C   0  0  0  0  0  0  0  0  0  0  0  0
   -1.0642    5.2002    8.9340 N   0  0  0  0  0  0  0  0  0  0  0  0
   -1.5314    4.5840   10.0312 C   0  0  0  0  0  0  0  0  0  0  0  0
   -2.0334    3.2761   10.0056 C   0  0  0  0  0  0  0  0  0  0  0  0
   -2.0530    2.5938    8.7760 C   0  0  0  0  0  0  0  0  0  0  0  0
   -1.5619    3.2185    7.6031 C   0  0  0  0  0  0  0  0  0  0  0  0
   -1.5742    2.5332    6.3564 C   0  0  0  0  0  0  0  0  0  0  0  0
   -2.1284    0.8880    6.2715 Cl  0  0  0  0  0  0  0  0  0  0  0  0
   -1.0858    3.2259    5.2268 C   0  0  0  0  0  0  0  0  0  0  0  0
   -0.1763    4.1975    2.2680 H   0  0  0  0  0  0  0  0  0  0  0  0
   -1.7105    0.8927    3.6577 H   0  0  0  0  0  0  0  0  0  0  0  0
   -0.3787    1.3597    2.5783 H   0  0  0  0  0  0  0  0  0  0  0  0
   -1.9559    1.9698    2.2696 H   0  0  0  0  0  0  0  0  0  0  0  0
   -1.4886    5.1500   10.9493 H   0  0  0  0  0  0  0  0  0  0  0  0
   -2.3859    2.8140   10.9230 H   0  0  0  0  0  0  0  0  0  0  0  0
   -2.4431    1.5965    8.7607 H   0  0  0  0  0  0  0  0  0  0  0  0
  1  2  1  0
  1 18  1  0
  1 19  1  0
  1 20  1  0
  2 16  2  0
  2  3  1  0
  3 17  1  0
  3  4  1  0
  4  5  2  0
  5 16  1  0
  5  6  1  0
  6  7  1  0
  6  8  2  0
  8 13  1  0
  8  9  1  0
  9 10  2  0
 10 11  1  0
 10 21  1  0
 11 12  2  0
 11 22  1  0
 12 13  1  0
 12 23  1  0
 13 14  2  0
 14 15  1  0
 14 16  1  0
M  CHG  1   7  -1
M  END
>  <i_m_ct_stereo_status>  (188) 
1

>  <s_m_source_file>  (188) 
/var/tmp/pbs.5076255.sched01/tmprae_yccg/80g5h6lheg.sdf

>  <i_m_source_file_index>  (188) 
8

>  <i_lp_mmshare_version>  (188) 
48012

>  <i_f3d_flags>  (188) 
0

>  <s_epik_input>  (188) 
bjFbbkhdYyhbQ0gzXSljKGMxMiljKENsKWMzYyhjMltPSF0pbltjSF1bY0hdW2NIXTM=

>  <s_epik_cmdline>  (188) 
J2VwaWtfcHl0aG9uJywgJy1waHQnLCAnMi4wJywgJy1waCcsICc3LjAnLCAnLXRuJywgJzgnLCAnLW1hJywgJzIwMCcsICctaW1hZScsICc8aW5maWxlLm1hZT4nLCAnLW9tYWUnLCAnPG91dGZpbGUubWFlPic=

>  <r_epik_Ionization_Penalty>  (188) 
0.218535

>  <r_epik_Ionization_Penalty_Charging>  (188) 
0.218357

>  <r_epik_Ionization_Penalty_Neutral>  (188) 
0.000177762

>  <r_epik_State_Penalty>  (188) 
0.208639

>  <r_epik_Charging_Adjusted_Penalty>  (188) 
0.426997

>  <i_epik_Tot_Q>  (188) 
-1

>  <i_epik_Tot_abs_Q>  (188) 
1

>  <s_lp_Force_Field>  (188) 
OPLS3e

>  <r_lp_Energy>  (188) 
27.1124

>  <b_lp_Chiralities_Consistent>  (188) 
1

>  <s_lp_Variant>  (188) 
64:0-1

>  <s_i_glide_gridfile>  (188) 
pfpi4k_grid

>  <i_i_glide_lignum>  (188) 
8

>  <i_i_glide_rotatable_bonds>  (188) 
0

>  <r_i_docking_score>  (188) 
-4.10609

>  <r_i_glide_ligand_efficiency>  (188) 
-0.256631

>  <r_i_glide_ligand_efficiency_sa>  (188) 
-0.646669

>  <r_i_glide_ligand_efficiency_ln>  (188) 
-1.0884

>  <r_i_glide_gscore>  (188) 
-4.10609

>  <r_i_glide_lipo>  (188) 
-0.0549619

>  <r_i_glide_hbond>  (188) 
-0.16

>  <r_i_glide_metal>  (188) 
-0

>  <r_i_glide_rewards>  (188) 
-1.82287

>  <r_i_glide_evdw>  (188) 
-11.9196

>  <r_i_glide_ecoul>  (188) 
-9.14853

>  <r_i_glide_erotb>  (188) 
0

>  <r_i_glide_esite>  (188) 
-0.1

>  <r_i_glide_emodel>  (188) 
-31.0117

>  <r_i_glide_energy>  (188) 
-21.0681

>  <r_i_glide_einternal>  (188) 
0

>  <r_i_glide_intrahb_reward>  (188) 
-0

>  <i_i_glide_confnum>  (188) 
1

>  <i_i_glide_posenum>  (188) 
2

>  <r_i_glide_eff_state_penalty>  (188) 
0

>  <ligand_id>  (188) 
64

>  <original_smiles>  (188) 
Cc1[nH]nc2c(O)c3ncccc3c(Cl)c12

>  <smiles>  (188) 
[H]c1nc2c([O-])c3nn([H])c(C([H])([H])[H])c3c(Cl)c2c([H])c1[H]

$$$$
64:1:0
     RDKit          3D

 24 26  0  0  1  0  0  0  0  0999 V2000
   -7.4648   -4.3883   -4.6563 C   0  0  0  0  0  0  0  0  0  0  0  0
   -8.4653   -4.5197   -5.7679 C   0  0  0  0  0  0  0  0  0  0  0  0
   -9.4927   -3.6125   -6.0014 N   0  0  0  0  0  0  0  0  0  0  0  0
  -10.2588   -3.9869   -7.0703 N   0  0  0  0  0  0  0  0  0  0  0  0
   -9.7017   -5.1473   -7.4767 C   0  0  0  0  0  0  0  0  0  0  0  0
  -10.1864   -5.9181   -8.5434 C   0  0  0  0  0  0  0  0  0  0  0  0
  -11.3018   -5.5406   -9.2408 O   0  0  0  0  0  0  0  0  0  0  0  0
   -9.5071   -7.1021   -8.9041 C   0  0  0  0  0  0  0  0  0  0  0  0
   -9.9611   -7.8341   -9.9503 N   0  0  0  0  0  0  0  0  0  0  0  0
   -9.3454   -8.9791  -10.2933 C   0  0  0  0  0  0  0  0  0  0  0  0
   -8.2268   -9.4643   -9.6050 C   0  0  0  0  0  0  0  0  0  0  0  0
   -7.7272   -8.7177   -8.5218 C   0  0  0  0  0  0  0  0  0  0  0  0
   -8.3618   -7.5047   -8.1469 C   0  0  0  0  0  0  0  0  0  0  0  0
   -7.8881   -6.7262   -7.0522 C   0  0  0  0  0  0  0  0  0  0  0  0
   -6.5251   -7.2549   -6.1182 Cl  0  0  0  0  0  0  0  0  0  0  0  0
   -8.5861   -5.5265   -6.7381 C   0  0  0  0  0  0  0  0  0  0  0  0
   -9.7071   -2.7681   -5.4875 H   0  0  0  0  0  0  0  0  0  0  0  0
   -6.7236   -5.1861   -4.6022 H   0  0  0  0  0  0  0  0  0  0  0  0
   -7.9880   -4.3450   -3.6997 H   0  0  0  0  0  0  0  0  0  0  0  0
   -6.9294   -3.4431   -4.7480 H   0  0  0  0  0  0  0  0  0  0  0  0
  -12.1045   -5.4526   -8.7175 H   0  0  0  0  0  0  0  0  0  0  0  0
   -9.7594   -9.5199  -11.1382 H   0  0  0  0  0  0  0  0  0  0  0  0
   -7.7590  -10.3877   -9.9098 H   0  0  0  0  0  0  0  0  0  0  0  0
   -6.8635   -9.0906   -7.9883 H   0  0  0  0  0  0  0  0  0  0  0  0
  1  2  1  0
  1 18  1  0
  1 19  1  0
  1 20  1  0
  2 16  2  0
  2  3  1  0
  3 17  1  0
  3  4  1  0
  4  5  2  0
  5 16  1  0
  5  6  1  0
  6  7  1  0
  6  8  2  0
  7 21  1  0
  8 13  1  0
  8  9  1  0
  9 10  2  0
 10 11  1  0
 10 22  1  0
 11 12  2  0
 11 23  1  0
 12 13  1  0
 12 24  1  0
 13 14  2  0
 14 15  1  0
 14 16  1  0
M  END
>  <i_m_ct_stereo_status>  (189) 
1

>  <s_m_source_file>  (189) 
/var/tmp/pbs.5076255.sched01/tmprae_yccg/80g5h6lheg.sdf

>  <i_m_source_file_index>  (189) 
9

>  <i_lp_mmshare_version>  (189) 
48012

>  <i_f3d_flags>  (189) 
0

>  <s_epik_input>  (189) 
bjFbbkhdYyhbQ0gzXSljKGMxMiljKENsKWMzYyhjMltPSF0pbltjSF1bY0hdW2NIXTM=

>  <s_epik_cmdline>  (189) 
J2VwaWtfcHl0aG9uJywgJy1waHQnLCAnMi4wJywgJy1waCcsICc3LjAnLCAnLXRuJywgJzgnLCAnLW1hJywgJzIwMCcsICctaW1hZScsICc8aW5maWxlLm1hZT4nLCAnLW9tYWUnLCAnPG91dGZpbGUubWFlPic=

>  <r_epik_Ionization_Penalty>  (189) 
0.697248

>  <r_epik_Ionization_Penalty_Charging>  (189) 
0

>  <r_epik_Ionization_Penalty_Neutral>  (189) 
0.697248

>  <r_epik_State_Penalty>  (189) 
0.719651

>  <r_epik_Charging_Adjusted_Penalty>  (189) 
0.719651

>  <i_epik_Tot_Q>  (189) 
0

>  <i_epik_Tot_abs_Q>  (189) 
0

>  <s_lp_Force_Field>  (189) 
OPLS3e

>  <r_lp_Energy>  (189) 
23.3635

>  <b_lp_Chiralities_Consistent>  (189) 
1

>  <s_lp_Variant>  (189) 
64:0-2

>  <s_i_glide_gridfile>  (189) 
pfpi4k_grid

>  <i_i_glide_lignum>  (189) 
9

>  <i_i_glide_rotatable_bonds>  (189) 
1

>  <r_i_docking_score>  (189) 
-6.73785

>  <r_i_glide_ligand_efficiency>  (189) 
-0.421116

>  <r_i_glide_ligand_efficiency_sa>  (189) 
-1.06115

>  <r_i_glide_ligand_efficiency_ln>  (189) 
-1.786

>  <r_i_glide_gscore>  (189) 
-6.73785

>  <r_i_glide_lipo>  (189) 
-1.98462

>  <r_i_glide_hbond>  (189) 
-0.328599

>  <r_i_glide_metal>  (189) 
-0

>  <r_i_glide_rewards>  (189) 
-2.241

>  <r_i_glide_evdw>  (189) 
-23.2571

>  <r_i_glide_ecoul>  (189) 
-6.80519

>  <r_i_glide_erotb>  (189) 
0

>  <r_i_glide_esite>  (189) 
0

>  <r_i_glide_emodel>  (189) 
-42.3543

>  <r_i_glide_energy>  (189) 
-30.0623

>  <r_i_glide_einternal>  (189) 
2.6672

>  <r_i_glide_intrahb_reward>  (189) 
-0

>  <i_i_glide_confnum>  (189) 
1

>  <i_i_glide_posenum>  (189) 
7

>  <r_i_glide_eff_state_penalty>  (189) 
0

>  <ligand_id>  (189) 
64

>  <original_smiles>  (189) 
Cc1[nH]nc2c(O)c3ncccc3c(Cl)c12

>  <smiles>  (189) 
[H]Oc1c2nc([H])c([H])c([H])c2c(Cl)c2c(C([H])([H])[H])n([H])nc12

$$$$
64:1:1
     RDKit          3D

 24 26  0  0  1  0  0  0  0  0999 V2000
   -6.7558   -4.4277   -4.2040 C   0  0  0  0  0  0  0  0  0  0  0  0
   -7.7665   -4.5603   -5.3004 C   0  0  0  0  0  0  0  0  0  0  0  0
   -8.7553   -3.6203   -5.5510 N   0  0  0  0  0  0  0  0  0  0  0  0
   -9.5233   -3.9644   -6.6237 N   0  0  0  0  0  0  0  0  0  0  0  0
   -9.0022   -5.1474   -7.0152 C   0  0  0  0  0  0  0  0  0  0  0  0
   -9.5019   -5.9042   -8.0776 C   0  0  0  0  0  0  0  0  0  0  0  0
  -10.5864   -5.4657   -8.7854 O   0  0  0  0  0  0  0  0  0  0  0  0
   -8.8985   -7.1367   -8.4032 C   0  0  0  0  0  0  0  0  0  0  0  0
   -9.3909   -7.8586   -9.4362 N   0  0  0  0  0  0  0  0  0  0  0  0
   -8.8143   -9.0320   -9.7641 C   0  0  0  0  0  0  0  0  0  0  0  0
   -7.7143   -9.5509   -9.0677 C   0  0  0  0  0  0  0  0  0  0  0  0
   -7.1912   -8.8154   -7.9875 C   0  0  0  0  0  0  0  0  0  0  0  0
   -7.7791   -7.5779   -7.6294 C   0  0  0  0  0  0  0  0  0  0  0  0
   -7.2782   -6.8048   -6.5439 C   0  0  0  0  0  0  0  0  0  0  0  0
   -5.9247   -7.3574   -5.6108 Cl  0  0  0  0  0  0  0  0  0  0  0  0
   -7.9253   -5.5729   -6.2526 C   0  0  0  0  0  0  0  0  0  0  0  0
   -8.9206   -2.7589   -5.0517 H   0  0  0  0  0  0  0  0  0  0  0  0
   -6.0479   -5.2524   -4.1240 H   0  0  0  0  0  0  0  0  0  0  0  0
   -7.2706   -4.3296   -3.2474 H   0  0  0  0  0  0  0  0  0  0  0  0
   -6.1886   -3.5051   -4.3428 H   0  0  0  0  0  0  0  0  0  0  0  0
  -11.0594   -6.1904   -9.1777 H   0  0  0  0  0  0  0  0  0  0  0  0
   -9.2375   -9.5688  -10.6049 H   0  0  0  0  0  0  0  0  0  0  0  0
   -7.2788  -10.4939   -9.3598 H   0  0  0  0  0  0  0  0  0  0  0  0
   -6.3411   -9.2125   -7.4514 H   0  0  0  0  0  0  0  0  0  0  0  0
  1  2  1  0
  1 18  1  0
  1 19  1  0
  1 20  1  0
  2 16  2  0
  2  3  1  0
  3 17  1  0
  3  4  1  0
  4  5  2  0
  5 16  1  0
  5  6  1  0
  6  7  1  0
  6  8  2  0
  7 21  1  0
  8 13  1  0
  8  9  1  0
  9 10  2  0
 10 11  1  0
 10 22  1  0
 11 12  2  0
 11 23  1  0
 12 13  1  0
 12 24  1  0
 13 14  2  0
 14 15  1  0
 14 16  1  0
M  END
>  <i_m_ct_stereo_status>  (190) 
1

>  <s_m_source_file>  (190) 
/var/tmp/pbs.5076255.sched01/tmprae_yccg/80g5h6lheg.sdf

>  <i_m_source_file_index>  (190) 
9

>  <i_lp_mmshare_version>  (190) 
48012

>  <i_f3d_flags>  (190) 
0

>  <s_epik_input>  (190) 
bjFbbkhdYyhbQ0gzXSljKGMxMiljKENsKWMzYyhjMltPSF0pbltjSF1bY0hdW2NIXTM=

>  <s_epik_cmdline>  (190) 
J2VwaWtfcHl0aG9uJywgJy1waHQnLCAnMi4wJywgJy1waCcsICc3LjAnLCAnLXRuJywgJzgnLCAnLW1hJywgJzIwMCcsICctaW1hZScsICc8aW5maWxlLm1hZT4nLCAnLW9tYWUnLCAnPG91dGZpbGUubWFlPic=

>  <r_epik_Ionization_Penalty>  (190) 
0.697248

>  <r_epik_Ionization_Penalty_Charging>  (190) 
0

>  <r_epik_Ionization_Penalty_Neutral>  (190) 
0.697248

>  <r_epik_State_Penalty>  (190) 
0.719651

>  <r_epik_Charging_Adjusted_Penalty>  (190) 
0.719651

>  <i_epik_Tot_Q>  (190) 
0

>  <i_epik_Tot_abs_Q>  (190) 
0

>  <s_lp_Force_Field>  (190) 
OPLS3e

>  <r_lp_Energy>  (190) 
23.3635

>  <b_lp_Chiralities_Consistent>  (190) 
1

>  <s_lp_Variant>  (190) 
64:0-2

>  <s_i_glide_gridfile>  (190) 
pfpi4k_grid

>  <i_i_glide_lignum>  (190) 
9

>  <i_i_glide_rotatable_bonds>  (190) 
1

>  <r_i_docking_score>  (190) 
-6.42018

>  <r_i_glide_ligand_efficiency>  (190) 
-0.401261

>  <r_i_glide_ligand_efficiency_sa>  (190) 
-1.01111

>  <r_i_glide_ligand_efficiency_ln>  (190) 
-1.7018

>  <r_i_glide_gscore>  (190) 
-6.42018

>  <r_i_glide_lipo>  (190) 
-2.3605

>  <r_i_glide_hbond>  (190) 
-0.0254547

>  <r_i_glide_metal>  (190) 
-0

>  <r_i_glide_rewards>  (190) 
-2.32433

>  <r_i_glide_evdw>  (190) 
-27.4418

>  <r_i_glide_ecoul>  (190) 
-2.25203

>  <r_i_glide_erotb>  (190) 
0

>  <r_i_glide_esite>  (190) 
0

>  <r_i_glide_emodel>  (190) 
-42.7348

>  <r_i_glide_energy>  (190) 
-29.6938

>  <r_i_glide_einternal>  (190) 
0.8574

>  <r_i_glide_intrahb_reward>  (190) 
-0

>  <i_i_glide_confnum>  (190) 
1

>  <i_i_glide_posenum>  (190) 
1

>  <r_i_glide_eff_state_penalty>  (190) 
0

>  <ligand_id>  (190) 
64

>  <original_smiles>  (190) 
Cc1[nH]nc2c(O)c3ncccc3c(Cl)c12

>  <smiles>  (190) 
[H]Oc1c2nc([H])c([H])c([H])c2c(Cl)c2c(C([H])([H])[H])n([H])nc12

$$$$
64:1:2
     RDKit          3D

 24 26  0  0  1  0  0  0  0  0999 V2000
   -5.6386   -6.5367   -4.5341 C   0  0  0  0  0  0  0  0  0  0  0  0
   -6.7579   -5.7034   -5.0708 C   0  0  0  0  0  0  0  0  0  0  0  0
   -7.1645   -4.5116   -4.4937 N   0  0  0  0  0  0  0  0  0  0  0  0
   -8.2186   -3.9617   -5.1686 N   0  0  0  0  0  0  0  0  0  0  0  0
   -8.4428   -4.8295   -6.1740 C   0  0  0  0  0  0  0  0  0  0  0  0
   -9.4380   -4.6522   -7.1416 C   0  0  0  0  0  0  0  0  0  0  0  0
  -10.2259   -3.5342   -7.0963 O   0  0  0  0  0  0  0  0  0  0  0  0
   -9.6016   -5.6266   -8.1525 C   0  0  0  0  0  0  0  0  0  0  0  0
  -10.5655   -5.4647   -9.0905 N   0  0  0  0  0  0  0  0  0  0  0  0
  -10.7310   -6.3856  -10.0548 C   0  0  0  0  0  0  0  0  0  0  0  0
   -9.9161   -7.5237  -10.1568 C   0  0  0  0  0  0  0  0  0  0  0  0
   -8.9050   -7.7134   -9.1976 C   0  0  0  0  0  0  0  0  0  0  0  0
   -8.7244   -6.7600   -8.1638 C   0  0  0  0  0  0  0  0  0  0  0  0
   -7.7099   -6.9230   -7.1729 C   0  0  0  0  0  0  0  0  0  0  0  0
   -6.6522   -8.3041   -7.2018 Cl  0  0  0  0  0  0  0  0  0  0  0  0
   -7.5893   -5.9212   -6.1735 C   0  0  0  0  0  0  0  0  0  0  0  0
   -6.7795   -4.0611   -3.6709 H   0  0  0  0  0  0  0  0  0  0  0  0
   -5.4213   -7.4571   -5.0869 H   0  0  0  0  0  0  0  0  0  0  0  0
   -5.8549   -6.8015   -3.5005 H   0  0  0  0  0  0  0  0  0  0  0  0
   -4.7316   -5.9386   -4.5119 H   0  0  0  0  0  0  0  0  0  0  0  0
  -10.0932   -3.0405   -6.2984 H   0  0  0  0  0  0  0  0  0  0  0  0
  -11.5147   -6.1987  -10.7763 H   0  0  0  0  0  0  0  0  0  0  0  0
  -10.0718   -8.2362  -10.9527 H   0  0  0  0  0  0  0  0  0  0  0  0
   -8.2820   -8.5939   -9.2674 H   0  0  0  0  0  0  0  0  0  0  0  0
  1  2  1  0
  1 18  1  0
  1 19  1  0
  1 20  1  0
  2 16  2  0
  2  3  1  0
  3 17  1  0
  3  4  1  0
  4  5  2  0
  5 16  1  0
  5  6  1  0
  6  7  1  0
  6  8  2  0
  7 21  1  0
  8 13  1  0
  8  9  1  0
  9 10  2  0
 10 11  1  0
 10 22  1  0
 11 12  2  0
 11 23  1  0
 12 13  1  0
 12 24  1  0
 13 14  2  0
 14 15  1  0
 14 16  1  0
M  END
>  <i_m_ct_stereo_status>  (191) 
1

>  <s_m_source_file>  (191) 
/var/tmp/pbs.5076255.sched01/tmprae_yccg/80g5h6lheg.sdf

>  <i_m_source_file_index>  (191) 
9

>  <i_lp_mmshare_version>  (191) 
48012

>  <i_f3d_flags>  (191) 
0

>  <s_epik_input>  (191) 
bjFbbkhdYyhbQ0gzXSljKGMxMiljKENsKWMzYyhjMltPSF0pbltjSF1bY0hdW2NIXTM=

>  <s_epik_cmdline>  (191) 
J2VwaWtfcHl0aG9uJywgJy1waHQnLCAnMi4wJywgJy1waCcsICc3LjAnLCAnLXRuJywgJzgnLCAnLW1hJywgJzIwMCcsICctaW1hZScsICc8aW5maWxlLm1hZT4nLCAnLW9tYWUnLCAnPG91dGZpbGUubWFlPic=

>  <r_epik_Ionization_Penalty>  (191) 
0.697248

>  <r_epik_Ionization_Penalty_Charging>  (191) 
0

>  <r_epik_Ionization_Penalty_Neutral>  (191) 
0.697248

>  <r_epik_State_Penalty>  (191) 
0.719651

>  <r_epik_Charging_Adjusted_Penalty>  (191) 
0.719651

>  <i_epik_Tot_Q>  (191) 
0

>  <i_epik_Tot_abs_Q>  (191) 
0

>  <s_lp_Force_Field>  (191) 
OPLS3e

>  <r_lp_Energy>  (191) 
23.3635

>  <b_lp_Chiralities_Consistent>  (191) 
1

>  <s_lp_Variant>  (191) 
64:0-2

>  <s_i_glide_gridfile>  (191) 
pfpi4k_grid

>  <i_i_glide_lignum>  (191) 
9

>  <i_i_glide_rotatable_bonds>  (191) 
1

>  <r_i_docking_score>  (191) 
-6.18568

>  <r_i_glide_ligand_efficiency>  (191) 
-0.386605

>  <r_i_glide_ligand_efficiency_sa>  (191) 
-0.974183

>  <r_i_glide_ligand_efficiency_ln>  (191) 
-1.63964

>  <r_i_glide_gscore>  (191) 
-6.18568

>  <r_i_glide_lipo>  (191) 
-2.00431

>  <r_i_glide_hbond>  (191) 
-0.0651408

>  <r_i_glide_metal>  (191) 
-0

>  <r_i_glide_rewards>  (191) 
-2.28267

>  <r_i_glide_evdw>  (191) 
-26.9299

>  <r_i_glide_ecoul>  (191) 
-3.24707

>  <r_i_glide_erotb>  (191) 
0

>  <r_i_glide_esite>  (191) 
0

>  <r_i_glide_emodel>  (191) 
-43.2721

>  <r_i_glide_energy>  (191) 
-30.177

>  <r_i_glide_einternal>  (191) 
0.0679624

>  <r_i_glide_intrahb_reward>  (191) 
-0

>  <i_i_glide_confnum>  (191) 
2

>  <i_i_glide_posenum>  (191) 
10

>  <r_i_glide_eff_state_penalty>  (191) 
0

>  <ligand_id>  (191) 
64

>  <original_smiles>  (191) 
Cc1[nH]nc2c(O)c3ncccc3c(Cl)c12

>  <smiles>  (191) 
[H]Oc1c2nc([H])c([H])c([H])c2c(Cl)c2c(C([H])([H])[H])n([H])nc12

$$$$
65:0:0
     RDKit          3D

 52 58  0  0  1  0  0  0  0  0999 V2000
    2.2198   -0.0265    1.2898 O   0  0  0  0  0  0  0  0  0  0  0  0
    2.7606   -1.2182    1.8251 C   0  0  2  0  0  0  0  0  0  0  0  0
    3.7468   -0.8291    2.9184 C   0  0  0  0  0  0  0  0  0  0  0  0
    4.8847   -1.8214    2.8715 C   0  0  1  0  0  0  0  0  0  0  0  0
    4.6461   -2.8659    3.8049 O   0  0  0  0  0  0  0  0  0  0  0  0
    5.0390   -2.3924    1.4164 C   0  0  2  0  0  0  0  0  0  0  0  0
    6.3378   -2.9069    1.7137 O   0  0  0  0  0  0  0  0  0  0  0  0
    5.2695   -1.0882    0.3126 C   0  0  2  0  0  0  0  0  0  0  0  0
    5.4748   -0.6752   -1.1487 O   0  0  0  0  0  0  0  0  0  0  0  0
    4.4237   -1.0327   -2.0120 C   0  0  0  0  0  0  0  0  0  0  0  0
    4.1270   -1.0777   -3.4029 C   0  0  0  0  0  0  0  0  0  0  0  0
    3.2070   -2.0695   -3.8979 C   0  0  0  0  0  0  0  0  0  0  0  0
    2.6155   -3.0761   -3.0580 C   0  0  0  0  0  0  0  0  0  0  0  0
    2.9432   -3.0631   -1.6857 C   0  0  0  0  0  0  0  0  0  0  0  0
    3.7802   -2.0027   -1.3874 C   0  0  0  0  0  0  0  0  0  0  0  0
    4.5158   -2.1466   -0.2539 C   0  0  1  0  0  0  0  0  0  0  0  0
    5.5784   -3.2712   -0.8954 C   0  0  0  0  0  0  0  0  0  0  0  0
    5.6167   -4.6456   -0.2624 C   0  0  0  0  0  0  0  0  0  0  0  0
    4.5653   -4.7721    0.7490 N   0  0  1  0  0  0  0  0  0  0  0  0
    4.8890   -5.6739    1.8845 C   0  0  0  0  0  0  0  0  0  0  0  0
    3.6814   -6.4901    2.2954 C   0  0  0  0  0  0  0  0  0  0  0  0
    3.8563   -7.6940    3.1928 C   0  0  0  0  0  0  0  0  0  0  0  0
    3.4774   -7.8872    1.7473 C   0  0  0  0  0  0  0  0  0  0  0  0
    3.7292   -3.5664    1.1084 C   0  0  1  0  0  0  0  0  0  0  0  0
    2.8198   -3.9944   -0.3380 C   0  0  0  0  0  0  0  0  0  0  0  0
    3.2813   -2.2342    0.7025 C   0  0  1  0  0  0  0  0  0  0  0  0
    1.6118   -0.2587    0.5842 H   0  0  0  0  0  0  0  0  0  0  0  0
    1.9235   -1.7033    2.3282 H   0  0  0  0  0  0  0  0  0  0  0  0
    4.1405    0.1742    2.7380 H   0  0  0  0  0  0  0  0  0  0  0  0
    3.2699   -0.7639    3.8999 H   0  0  0  0  0  0  0  0  0  0  0  0
    5.7761   -1.2819    3.1996 H   0  0  0  0  0  0  0  0  0  0  0  0
    3.7947   -3.2461    3.6444 H   0  0  0  0  0  0  0  0  0  0  0  0
    6.2470   -3.4211    2.5038 H   0  0  0  0  0  0  0  0  0  0  0  0
    4.7107   -0.2207    0.6457 H   0  0  0  0  0  0  0  0  0  0  0  0
    4.6175   -0.4238   -4.0994 H   0  0  0  0  0  0  0  0  0  0  0  0
    3.0233   -2.1048   -4.9548 H   0  0  0  0  0  0  0  0  0  0  0  0
    1.9954   -3.8526   -3.4827 H   0  0  0  0  0  0  0  0  0  0  0  0
    5.4959   -3.4401   -1.9760 H   0  0  0  0  0  0  0  0  0  0  0  0
    6.5925   -2.8708   -0.8269 H   0  0  0  0  0  0  0  0  0  0  0  0
    5.4382   -5.4150   -1.0122 H   0  0  0  0  0  0  0  0  0  0  0  0
    6.6044   -4.8312    0.1597 H   0  0  0  0  0  0  0  0  0  0  0  0
    5.6844   -6.3650    1.6036 H   0  0  0  0  0  0  0  0  0  0  0  0
    5.2552   -5.1231    2.7465 H   0  0  0  0  0  0  0  0  0  0  0  0
    2.7861   -5.8993    2.4918 H   0  0  0  0  0  0  0  0  0  0  0  0
    4.8641   -7.9767    3.4936 H   0  0  0  0  0  0  0  0  0  0  0  0
    3.0804   -7.8910    3.9289 H   0  0  0  0  0  0  0  0  0  0  0  0
    2.4546   -8.1958    1.5393 H   0  0  0  0  0  0  0  0  0  0  0  0
    4.2341   -8.2926    1.0752 H   0  0  0  0  0  0  0  0  0  0  0  0
    1.7713   -4.0213   -0.0725 H   0  0  0  0  0  0  0  0  0  0  0  0
    2.9214   -5.0272   -0.6957 H   0  0  0  0  0  0  0  0  0  0  0  0
    2.2689   -2.0759    0.2968 H   0  0  0  0  0  0  0  0  0  0  0  0
    3.9129   -5.3393    0.2212 H   0  0  0  0  0  0  0  0  0  0  0  0
  1  2  1  0
  1 27  1  0
  2 26  1  0
  2  3  1  0
  2 28  1  1
  3  4  1  0
  3 29  1  0
  3 30  1  0
  4  5  1  0
  4  6  1  0
  4 31  1  1
  5 32  1  0
  6 24  1  0
  6  7  1  1
  6  8  1  0
  7 33  1  0
  8 16  1  0
  8  9  1  0
  8 34  1  1
  9 10  1  0
 10 15  2  0
 10 11  1  0
 11 12  2  0
 11 35  1  0
 12 13  1  0
 12 36  1  0
 13 14  2  0
 13 37  1  0
 14 25  1  0
 14 15  1  0
 15 16  1  0
 16 26  1  0
 16 17  1  6
 17 18  1  0
 17 38  1  0
 17 39  1  0
 18 19  1  0
 18 40  1  0
 18 41  1  0
 19 20  1  0
 19 24  1  0
 19 52  1  6
 20 21  1  0
 20 42  1  0
 20 43  1  0
 21 23  1  0
 21 22  1  0
 21 44  1  0
 22 23  1  0
 22 45  1  0
 22 46  1  0
 23 47  1  0
 23 48  1  0
 24 25  1  6
 24 26  1  0
 25 49  1  0
 25 50  1  0
 26 51  1  6
M  CHG  1  19   1
M  END
>  <i_m_ct_stereo_status>  (192) 
1

>  <s_m_source_file>  (192) 
/var/tmp/pbs.5076255.sched01/tmprae_yccg/80g5h6lheg.sdf

>  <i_m_source_file_index>  (192) 
10

>  <i_lp_mmshare_version>  (192) 
48012

>  <i_f3d_flags>  (192) 
0

>  <s_epik_input>  (192) 
W09IXVtDQEBIXTFbQ0gyXVtDQEBIXShbT0hdKVtDQEBIXTJbQ0BAXShbQ0BAXTEoW09IXSlbQ0BASF0zQzI0NSkoTihbQ0gyXVtDSDJdNSlbQ0gyXVtDSF02W0NIMl1bQ0gyXTYpW0NIMl1jN2M0YyhPMylbY0hdW2NIXVtjSF03

>  <s_epik_cmdline>  (192) 
J2VwaWtfcHl0aG9uJywgJy1waHQnLCAnMi4wJywgJy1waCcsICc3LjAnLCAnLXRuJywgJzgnLCAnLW1hJywgJzIwMCcsICctaW1hZScsICc8aW5maWxlLm1hZT4nLCAnLW9tYWUnLCAnPG91dGZpbGUubWFlPic=

>  <r_lp_tautomer_probability>  (192) 
1

>  <r_epik_Ionization_Penalty>  (192) 
0.0506266

>  <r_epik_Ionization_Penalty_Charging>  (192) 
0.0506256

>  <r_epik_Ionization_Penalty_Neutral>  (192) 
9.20682e-07

>  <r_epik_State_Penalty>  (192) 
0.0433187

>  <r_epik_Charging_Adjusted_Penalty>  (192) 
0.0939443

>  <i_epik_Tot_Q>  (192) 
1

>  <i_epik_Tot_abs_Q>  (192) 
1

>  <s_lp_Force_Field>  (192) 
OPLS3e

>  <r_lp_Energy>  (192) 
491.526

>  <b_lp_Chiralities_Consistent>  (192) 
1

>  <s_lp_Variant>  (192) 
65:0-1

>  <s_i_glide_gridfile>  (192) 
pfpi4k_grid

>  <i_i_glide_lignum>  (192) 
10

>  <i_i_glide_rotatable_bonds>  (192) 
5

>  <r_i_docking_score>  (192) 
-3.91783

>  <r_i_glide_ligand_efficiency>  (192) 
-0.150686

>  <r_i_glide_ligand_efficiency_sa>  (192) 
-0.446406

>  <r_i_glide_ligand_efficiency_ln>  (192) 
-0.920089

>  <r_i_glide_gscore>  (192) 
-3.91783

>  <r_i_glide_lipo>  (192) 
-0.767814

>  <r_i_glide_hbond>  (192) 
-0.169396

>  <r_i_glide_metal>  (192) 
-0

>  <r_i_glide_rewards>  (192) 
-0.978849

>  <r_i_glide_evdw>  (192) 
-26.0251

>  <r_i_glide_ecoul>  (192) 
-6.67798

>  <r_i_glide_erotb>  (192) 
0.301187

>  <r_i_glide_esite>  (192) 
0

>  <r_i_glide_emodel>  (192) 
-42.6119

>  <r_i_glide_energy>  (192) 
-32.7031

>  <r_i_glide_einternal>  (192) 
1.11055

>  <r_i_glide_intrahb_reward>  (192) 
-0

>  <i_i_glide_confnum>  (192) 
3

>  <i_i_glide_posenum>  (192) 
15

>  <r_i_glide_eff_state_penalty>  (192) 
0

>  <ligand_id>  (192) 
65

>  <original_smiles>  (192) 
OC1CC(O)C2(O)C3Oc4cccc5c4C34CCN(CC3CC3)C2(C5)C14

>  <smiles>  (192) 
[H]OC1([H])C([H])([H])C([H])(O[H])C2(O[H])C3([H])Oc4c([H])c([H])c([H])c5c4C34C([H])([H])C([H])([H])[N+]([H])(C([H])([H])C3([H])C([H])([H])C3([H])[H])C2(C5([H])[H])C14[H]

$$$$
65:0:1
     RDKit          3D

 52 58  0  0  1  0  0  0  0  0999 V2000
    2.2200   -0.0105    1.2799 O   0  0  0  0  0  0  0  0  0  0  0  0
    2.7565   -1.2083    1.8205 C   0  0  2  0  0  0  0  0  0  0  0  0
    3.7428   -0.8154    2.9132 C   0  0  0  0  0  0  0  0  0  0  0  0
    4.8828   -1.8056    2.8623 C   0  0  1  0  0  0  0  0  0  0  0  0
    4.6493   -2.8427    3.8032 O   0  0  0  0  0  0  0  0  0  0  0  0
    5.0332   -2.3872    1.4112 C   0  0  2  0  0  0  0  0  0  0  0  0
    6.3290   -2.9045    1.7108 O   0  0  0  0  0  0  0  0  0  0  0  0
    5.2647   -1.0847    0.3073 C   0  0  2  0  0  0  0  0  0  0  0  0
    5.4739   -0.6784   -1.1517 O   0  0  0  0  0  0  0  0  0  0  0  0
    4.4173   -1.0304   -2.0176 C   0  0  0  0  0  0  0  0  0  0  0  0
    4.1262   -1.0770   -3.4059 C   0  0  0  0  0  0  0  0  0  0  0  0
    3.2055   -2.0673   -3.9033 C   0  0  0  0  0  0  0  0  0  0  0  0
    2.6129   -3.0731   -3.0634 C   0  0  0  0  0  0  0  0  0  0  0  0
    2.9352   -3.0530   -1.6876 C   0  0  0  0  0  0  0  0  0  0  0  0
    3.7716   -1.9955   -1.3934 C   0  0  0  0  0  0  0  0  0  0  0  0
    4.5053   -2.1384   -0.2570 C   0  0  1  0  0  0  0  0  0  0  0  0
    5.5668   -3.2713   -0.8990 C   0  0  0  0  0  0  0  0  0  0  0  0
    5.6005   -4.6479   -0.2628 C   0  0  0  0  0  0  0  0  0  0  0  0
    4.5489   -4.7689    0.7427 N   0  0  1  0  0  0  0  0  0  0  0  0
    4.8670   -5.6668    1.8794 C   0  0  0  0  0  0  0  0  0  0  0  0
    3.6331   -6.3906    2.3642 C   0  0  0  0  0  0  0  0  0  0  0  0
    2.8042   -5.8154    3.4929 C   0  0  0  0  0  0  0  0  0  0  0  0
    3.6282   -7.0527    3.7287 C   0  0  0  0  0  0  0  0  0  0  0  0
    3.7198   -3.5602    1.1043 C   0  0  1  0  0  0  0  0  0  0  0  0
    2.8094   -3.9846   -0.3434 C   0  0  0  0  0  0  0  0  0  0  0  0
    3.2723   -2.2287    0.6973 C   0  0  1  0  0  0  0  0  0  0  0  0
    1.6032   -0.2448    0.5833 H   0  0  0  0  0  0  0  0  0  0  0  0
    1.9176   -1.6929    2.3237 H   0  0  0  0  0  0  0  0  0  0  0  0
    4.1341    0.1856    2.7307 H   0  0  0  0  0  0  0  0  0  0  0  0
    3.2659   -0.7512    3.8927 H   0  0  0  0  0  0  0  0  0  0  0  0
    5.7738   -1.2685    3.1903 H   0  0  0  0  0  0  0  0  0  0  0  0
    3.7927   -3.2109    3.6474 H   0  0  0  0  0  0  0  0  0  0  0  0
    6.2337   -3.4106    2.5043 H   0  0  0  0  0  0  0  0  0  0  0  0
    4.7062   -0.2190    0.6405 H   0  0  0  0  0  0  0  0  0  0  0  0
    4.6194   -0.4252   -4.1029 H   0  0  0  0  0  0  0  0  0  0  0  0
    3.0178   -2.1078   -4.9610 H   0  0  0  0  0  0  0  0  0  0  0  0
    1.9867   -3.8456   -3.4849 H   0  0  0  0  0  0  0  0  0  0  0  0
    5.4834   -3.4409   -1.9793 H   0  0  0  0  0  0  0  0  0  0  0  0
    6.5824   -2.8706   -0.8277 H   0  0  0  0  0  0  0  0  0  0  0  0
    5.4240   -5.4132   -1.0167 H   0  0  0  0  0  0  0  0  0  0  0  0
    6.5872   -4.8323    0.1624 H   0  0  0  0  0  0  0  0  0  0  0  0
    5.5818   -6.4280    1.5679 H   0  0  0  0  0  0  0  0  0  0  0  0
    5.3313   -5.1267    2.7048 H   0  0  0  0  0  0  0  0  0  0  0  0
    3.1013   -6.9428    1.5876 H   0  0  0  0  0  0  0  0  0  0  0  0
    3.1505   -4.8961    3.9589 H   0  0  0  0  0  0  0  0  0  0  0  0
    1.7235   -5.9281    3.4216 H   0  0  0  0  0  0  0  0  0  0  0  0
    3.0724   -7.9791    3.8487 H   0  0  0  0  0  0  0  0  0  0  0  0
    4.5203   -6.9597    4.3457 H   0  0  0  0  0  0  0  0  0  0  0  0
    1.7610   -4.0074   -0.0750 H   0  0  0  0  0  0  0  0  0  0  0  0
    2.9061   -5.0204   -0.6982 H   0  0  0  0  0  0  0  0  0  0  0  0
    2.2606   -2.0655    0.2937 H   0  0  0  0  0  0  0  0  0  0  0  0
    3.8941   -5.3315    0.2106 H   0  0  0  0  0  0  0  0  0  0  0  0
  1  2  1  0
  1 27  1  0
  2 26  1  0
  2  3  1  0
  2 28  1  1
  3  4  1  0
  3 29  1  0
  3 30  1  0
  4  5  1  0
  4  6  1  0
  4 31  1  1
  5 32  1  0
  6 24  1  0
  6  7  1  1
  6  8  1  0
  7 33  1  0
  8 16  1  0
  8  9  1  0
  8 34  1  1
  9 10  1  0
 10 15  2  0
 10 11  1  0
 11 12  2  0
 11 35  1  0
 12 13  1  0
 12 36  1  0
 13 14  2  0
 13 37  1  0
 14 25  1  0
 14 15  1  0
 15 16  1  0
 16 26  1  0
 16 17  1  6
 17 18  1  0
 17 38  1  0
 17 39  1  0
 18 19  1  0
 18 40  1  0
 18 41  1  0
 19 20  1  0
 19 24  1  0
 19 52  1  6
 20 21  1  0
 20 42  1  0
 20 43  1  0
 21 23  1  0
 21 22  1  0
 21 44  1  0
 22 23  1  0
 22 45  1  0
 22 46  1  0
 23 47  1  0
 23 48  1  0
 24 25  1  6
 24 26  1  0
 25 49  1  0
 25 50  1  0
 26 51  1  6
M  CHG  1  19   1
M  END
>  <i_m_ct_stereo_status>  (193) 
1

>  <s_m_source_file>  (193) 
/var/tmp/pbs.5076255.sched01/tmprae_yccg/80g5h6lheg.sdf

>  <i_m_source_file_index>  (193) 
10

>  <i_lp_mmshare_version>  (193) 
48012

>  <i_f3d_flags>  (193) 
0

>  <s_epik_input>  (193) 
W09IXVtDQEBIXTFbQ0gyXVtDQEBIXShbT0hdKVtDQEBIXTJbQ0BAXShbQ0BAXTEoW09IXSlbQ0BASF0zQzI0NSkoTihbQ0gyXVtDSDJdNSlbQ0gyXVtDSF02W0NIMl1bQ0gyXTYpW0NIMl1jN2M0YyhPMylbY0hdW2NIXVtjSF03

>  <s_epik_cmdline>  (193) 
J2VwaWtfcHl0aG9uJywgJy1waHQnLCAnMi4wJywgJy1waCcsICc3LjAnLCAnLXRuJywgJzgnLCAnLW1hJywgJzIwMCcsICctaW1hZScsICc8aW5maWxlLm1hZT4nLCAnLW9tYWUnLCAnPG91dGZpbGUubWFlPic=

>  <r_lp_tautomer_probability>  (193) 
1

>  <r_epik_Ionization_Penalty>  (193) 
0.0506266

>  <r_epik_Ionization_Penalty_Charging>  (193) 
0.0506256

>  <r_epik_Ionization_Penalty_Neutral>  (193) 
9.20682e-07

>  <r_epik_State_Penalty>  (193) 
0.0433187

>  <r_epik_Charging_Adjusted_Penalty>  (193) 
0.0939443

>  <i_epik_Tot_Q>  (193) 
1

>  <i_epik_Tot_abs_Q>  (193) 
1

>  <s_lp_Force_Field>  (193) 
OPLS3e

>  <r_lp_Energy>  (193) 
491.526

>  <b_lp_Chiralities_Consistent>  (193) 
1

>  <s_lp_Variant>  (193) 
65:0-1

>  <s_i_glide_gridfile>  (193) 
pfpi4k_grid

>  <i_i_glide_lignum>  (193) 
10

>  <i_i_glide_rotatable_bonds>  (193) 
5

>  <r_i_docking_score>  (193) 
-3.8726

>  <r_i_glide_ligand_efficiency>  (193) 
-0.148946

>  <r_i_glide_ligand_efficiency_sa>  (193) 
-0.441252

>  <r_i_glide_ligand_efficiency_ln>  (193) 
-0.909467

>  <r_i_glide_gscore>  (193) 
-3.8726

>  <r_i_glide_lipo>  (193) 
-0.757872

>  <r_i_glide_hbond>  (193) 
-0.169427

>  <r_i_glide_metal>  (193) 
-0

>  <r_i_glide_rewards>  (193) 
-0.978849

>  <r_i_glide_evdw>  (193) 
-25.1422

>  <r_i_glide_ecoul>  (193) 
-6.73685

>  <r_i_glide_erotb>  (193) 
0.301187

>  <r_i_glide_esite>  (193) 
0

>  <r_i_glide_emodel>  (193) 
-41.6828

>  <r_i_glide_energy>  (193) 
-31.879

>  <r_i_glide_einternal>  (193) 
1.15622

>  <r_i_glide_intrahb_reward>  (193) 
-0

>  <i_i_glide_confnum>  (193) 
2

>  <i_i_glide_posenum>  (193) 
29

>  <r_i_glide_eff_state_penalty>  (193) 
0

>  <ligand_id>  (193) 
65

>  <original_smiles>  (193) 
OC1CC(O)C2(O)C3Oc4cccc5c4C34CCN(CC3CC3)C2(C5)C14

>  <smiles>  (193) 
[H]OC1([H])C([H])([H])C([H])(O[H])C2(O[H])C3([H])Oc4c([H])c([H])c([H])c5c4C34C([H])([H])C([H])([H])[N+]([H])(C([H])([H])C3([H])C([H])([H])C3([H])[H])C2(C5([H])[H])C14[H]

$$$$
65:0:2
     RDKit          3D

 52 58  0  0  1  0  0  0  0  0999 V2000
    6.8111  -10.3132    5.6732 O   0  0  0  0  0  0  0  0  0  0  0  0
    5.4019  -10.3541    5.4961 C   0  0  2  0  0  0  0  0  0  0  0  0
    4.9770  -11.8120    5.3862 C   0  0  0  0  0  0  0  0  0  0  0  0
    3.8382  -11.8658    4.4023 C   0  0  1  0  0  0  0  0  0  0  0  0
    2.6393  -11.7651    5.1549 O   0  0  0  0  0  0  0  0  0  0  0  0
    3.9479  -10.6743    3.3705 C   0  0  2  0  0  0  0  0  0  0  0  0
    3.0096  -11.3004    2.4843 O   0  0  0  0  0  0  0  0  0  0  0  0
    5.4969  -10.7246    2.6003 C   0  0  2  0  0  0  0  0  0  0  0  0
    6.4580  -10.0739    1.5894 O   0  0  0  0  0  0  0  0  0  0  0  0
    6.8220   -8.7452    1.8961 C   0  0  0  0  0  0  0  0  0  0  0  0
    7.4896   -7.6418    1.3002 C   0  0  0  0  0  0  0  0  0  0  0  0
    7.1217   -6.2994    1.6920 C   0  0  0  0  0  0  0  0  0  0  0  0
    6.0423   -6.0160    2.6118 C   0  0  0  0  0  0  0  0  0  0  0  0
    5.3494   -7.1186    3.1685 C   0  0  0  0  0  0  0  0  0  0  0  0
    5.8976   -8.3214    2.7329 C   0  0  0  0  0  0  0  0  0  0  0  0
    5.0642   -9.3949    2.8071 C   0  0  1  0  0  0  0  0  0  0  0  0
    4.1023   -8.9511    1.5125 C   0  0  0  0  0  0  0  0  0  0  0  0
    2.6337   -8.6792    1.7663 C   0  0  0  0  0  0  0  0  0  0  0  0
    2.3652   -8.7140    3.2086 N   0  0  1  0  0  0  0  0  0  0  0  0
    0.9974   -9.1647    3.5749 C   0  0  0  0  0  0  0  0  0  0  0  0
   -0.0843   -8.2154    3.0706 C   0  0  0  0  0  0  0  0  0  0  0  0
   -1.3733   -8.0594    3.8520 C   0  0  0  0  0  0  0  0  0  0  0  0
   -1.3844   -8.7743    2.5311 C   0  0  0  0  0  0  0  0  0  0  0  0
    3.4507   -9.1547    4.1663 C   0  0  1  0  0  0  0  0  0  0  0  0
    3.9994   -7.4727    4.0325 C   0  0  0  0  0  0  0  0  0  0  0  0
    4.8946   -9.3341    4.3590 C   0  0  1  0  0  0  0  0  0  0  0  0
    7.2367  -10.6622    4.9043 H   0  0  0  0  0  0  0  0  0  0  0  0
    4.9967  -10.0024    6.4444 H   0  0  0  0  0  0  0  0  0  0  0  0
    5.7929  -12.4336    5.0247 H   0  0  0  0  0  0  0  0  0  0  0  0
    4.7134  -12.2348    6.3580 H   0  0  0  0  0  0  0  0  0  0  0  0
    3.8824  -12.8479    3.9172 H   0  0  0  0  0  0  0  0  0  0  0  0
    2.5920  -12.4811    5.7847 H   0  0  0  0  0  0  0  0  0  0  0  0
    3.4936  -11.7412    1.7836 H   0  0  0  0  0  0  0  0  0  0  0  0
    6.2372  -11.1081    3.2927 H   0  0  0  0  0  0  0  0  0  0  0  0
    8.2074   -7.8051    0.5117 H   0  0  0  0  0  0  0  0  0  0  0  0
    7.6238   -5.4717    1.2182 H   0  0  0  0  0  0  0  0  0  0  0  0
    5.7363   -4.9924    2.8136 H   0  0  0  0  0  0  0  0  0  0  0  0
    4.4660   -8.0985    0.9261 H   0  0  0  0  0  0  0  0  0  0  0  0
    4.1431   -9.7388    0.7548 H   0  0  0  0  0  0  0  0  0  0  0  0
    2.3593   -7.7049    1.3677 H   0  0  0  0  0  0  0  0  0  0  0  0
    2.0106   -9.3925    1.2275 H   0  0  0  0  0  0  0  0  0  0  0  0
    0.8067  -10.1753    3.2090 H   0  0  0  0  0  0  0  0  0  0  0  0
    0.9284   -9.2103    4.6610 H   0  0  0  0  0  0  0  0  0  0  0  0
    0.2754   -7.3023    2.5984 H   0  0  0  0  0  0  0  0  0  0  0  0
   -1.5063   -8.6604    4.7495 H   0  0  0  0  0  0  0  0  0  0  0  0
   -1.8327   -7.0731    3.8875 H   0  0  0  0  0  0  0  0  0  0  0  0
   -1.8387   -8.2593    1.6890 H   0  0  0  0  0  0  0  0  0  0  0  0
   -1.5197   -9.8545    2.5423 H   0  0  0  0  0  0  0  0  0  0  0  0
    4.1548   -7.0790    5.0442 H   0  0  0  0  0  0  0  0  0  0  0  0
    3.2549   -6.7518    3.6867 H   0  0  0  0  0  0  0  0  0  0  0  0
    5.5004   -8.6100    4.9421 H   0  0  0  0  0  0  0  0  0  0  0  0
    2.3140   -7.7300    3.4180 H   0  0  0  0  0  0  0  0  0  0  0  0
  1  2  1  0
  1 27  1  0
  2 26  1  0
  2  3  1  0
  2 28  1  1
  3  4  1  0
  3 29  1  0
  3 30  1  0
  4  5  1  0
  4  6  1  0
  4 31  1  6
  5 32  1  0
  6 24  1  0
  6  7  1  6
  6  8  1  0
  7 33  1  0
  8 16  1  0
  8  9  1  0
  8 34  1  1
  9 10  1  0
 10 15  2  0
 10 11  1  0
 11 12  2  0
 11 35  1  0
 12 13  1  0
 12 36  1  0
 13 14  2  0
 13 37  1  0
 14 25  1  0
 14 15  1  0
 15 16  1  0
 16 26  1  0
 16 17  1  6
 17 18  1  0
 17 38  1  0
 17 39  1  0
 18 19  1  0
 18 40  1  0
 18 41  1  0
 19 20  1  0
 19 24  1  0
 19 52  1  1
 20 21  1  0
 20 42  1  0
 20 43  1  0
 21 23  1  0
 21 22  1  0
 21 44  1  0
 22 23  1  0
 22 45  1  0
 22 46  1  0
 23 47  1  0
 23 48  1  0
 24 25  1  6
 24 26  1  0
 25 49  1  0
 25 50  1  0
 26 51  1  1
M  CHG  1  19   1
M  END
>  <i_m_ct_stereo_status>  (194) 
1

>  <s_m_source_file>  (194) 
/var/tmp/pbs.5076255.sched01/tmprae_yccg/80g5h6lheg.sdf

>  <i_m_source_file_index>  (194) 
10

>  <i_lp_mmshare_version>  (194) 
48012

>  <i_f3d_flags>  (194) 
0

>  <s_epik_input>  (194) 
W09IXVtDQEBIXTFbQ0gyXVtDQEBIXShbT0hdKVtDQEBIXTJbQ0BAXShbQ0BAXTEoW09IXSlbQ0BASF0zQzI0NSkoTihbQ0gyXVtDSDJdNSlbQ0gyXVtDSF02W0NIMl1bQ0gyXTYpW0NIMl1jN2M0YyhPMylbY0hdW2NIXVtjSF03

>  <s_epik_cmdline>  (194) 
J2VwaWtfcHl0aG9uJywgJy1waHQnLCAnMi4wJywgJy1waCcsICc3LjAnLCAnLXRuJywgJzgnLCAnLW1hJywgJzIwMCcsICctaW1hZScsICc8aW5maWxlLm1hZT4nLCAnLW9tYWUnLCAnPG91dGZpbGUubWFlPic=

>  <r_lp_tautomer_probability>  (194) 
1

>  <r_epik_Ionization_Penalty>  (194) 
0.0506266

>  <r_epik_Ionization_Penalty_Charging>  (194) 
0.0506256

>  <r_epik_Ionization_Penalty_Neutral>  (194) 
9.20682e-07

>  <r_epik_State_Penalty>  (194) 
0.0433187

>  <r_epik_Charging_Adjusted_Penalty>  (194) 
0.0939443

>  <i_epik_Tot_Q>  (194) 
1

>  <i_epik_Tot_abs_Q>  (194) 
1

>  <s_lp_Force_Field>  (194) 
OPLS3e

>  <r_lp_Energy>  (194) 
491.526

>  <b_lp_Chiralities_Consistent>  (194) 
1

>  <s_lp_Variant>  (194) 
65:0-1

>  <s_i_glide_gridfile>  (194) 
pfpi4k_grid

>  <i_i_glide_lignum>  (194) 
10

>  <i_i_glide_rotatable_bonds>  (194) 
5

>  <r_i_docking_score>  (194) 
-3.23731

>  <r_i_glide_ligand_efficiency>  (194) 
-0.124512

>  <r_i_glide_ligand_efficiency_sa>  (194) 
-0.368866

>  <r_i_glide_ligand_efficiency_ln>  (194) 
-0.760271

>  <r_i_glide_gscore>  (194) 
-3.23731

>  <r_i_glide_lipo>  (194) 
-0.278272

>  <r_i_glide_hbond>  (194) 
0

>  <r_i_glide_metal>  (194) 
-0

>  <r_i_glide_rewards>  (194) 
-0.978849

>  <r_i_glide_evdw>  (194) 
-22.5956

>  <r_i_glide_ecoul>  (194) 
-7.638

>  <r_i_glide_erotb>  (194) 
0.301187

>  <r_i_glide_esite>  (194) 
-0.00589523

>  <r_i_glide_emodel>  (194) 
-37.6817

>  <r_i_glide_energy>  (194) 
-30.2336

>  <r_i_glide_einternal>  (194) 
2.32392

>  <r_i_glide_intrahb_reward>  (194) 
-0

>  <i_i_glide_confnum>  (194) 
5

>  <i_i_glide_posenum>  (194) 
8

>  <r_i_glide_eff_state_penalty>  (194) 
0

>  <ligand_id>  (194) 
65

>  <original_smiles>  (194) 
OC1CC(O)C2(O)C3Oc4cccc5c4C34CCN(CC3CC3)C2(C5)C14

>  <smiles>  (194) 
[H]OC1([H])C([H])([H])C([H])(O[H])C2(O[H])C3([H])Oc4c([H])c([H])c([H])c5c4C34C([H])([H])C([H])([H])[N+]([H])(C([H])([H])C3([H])C([H])([H])C3([H])[H])C2(C5([H])[H])C14[H]

$$$$
65:1:0
     RDKit          3D

 51 57  0  0  1  0  0  0  0  0999 V2000
    5.2321   -2.0387    4.1141 O   0  0  0  0  0  0  0  0  0  0  0  0
    4.7885   -1.5328    2.8659 C   0  0  2  0  0  0  0  0  0  0  0  0
    3.3029   -1.2765    2.9922 C   0  0  0  0  0  0  0  0  0  0  0  0
    2.7067   -1.6119    1.6546 C   0  0  1  0  0  0  0  0  0  0  0  0
    2.6225   -0.4246    0.8811 O   0  0  0  0  0  0  0  0  0  0  0  0
    3.5746   -2.7318    0.9473 C   0  0  2  0  0  0  0  0  0  0  0  0
    2.4130   -3.0674    0.1381 O   0  0  0  0  0  0  0  0  0  0  0  0
    3.7195   -4.1170    1.9421 C   0  0  2  0  0  0  0  0  0  0  0  0
    4.2443   -5.5421    2.0512 O   0  0  0  0  0  0  0  0  0  0  0  0
    5.6515   -5.6350    2.0063 C   0  0  0  0  0  0  0  0  0  0  0  0
    6.6322   -6.6494    1.8431 C   0  0  0  0  0  0  0  0  0  0  0  0
    7.8768   -6.3302    1.1844 C   0  0  0  0  0  0  0  0  0  0  0  0
    8.1429   -5.0382    0.5900 C   0  0  0  0  0  0  0  0  0  0  0  0
    7.1501   -4.0338    0.7198 C   0  0  0  0  0  0  0  0  0  0  0  0
    6.0676   -4.5027    1.4496 C   0  0  0  0  0  0  0  0  0  0  0  0
    4.8757   -3.8941    1.1633 C   0  0  1  0  0  0  0  0  0  0  0  0
    4.6616   -4.5943   -0.3524 C   0  0  0  0  0  0  0  0  0  0  0  0
    4.6979   -3.6500   -1.5399 C   0  0  0  0  0  0  0  0  0  0  0  0
    4.4800   -2.2942   -1.0724 N   0  0  0  0  0  0  0  0  0  0  0  0
    4.5802   -1.2585   -2.0859 C   0  0  0  0  0  0  0  0  0  0  0  0
    3.4803   -1.3720   -3.1206 C   0  0  0  0  0  0  0  0  0  0  0  0
    3.6412   -2.2975   -4.3017 C   0  0  0  0  0  0  0  0  0  0  0  0
    3.6500   -0.8039   -4.5077 C   0  0  0  0  0  0  0  0  0  0  0  0
    5.0971   -2.0139    0.2436 C   0  0  1  0  0  0  0  0  0  0  0  0
    6.7205   -2.6169    0.0122 C   0  0  0  0  0  0  0  0  0  0  0  0
    5.2487   -2.4459    1.6236 C   0  0  1  0  0  0  0  0  0  0  0  0
    5.0087   -1.4157    4.7913 H   0  0  0  0  0  0  0  0  0  0  0  0
    5.2604   -0.5554    2.7426 H   0  0  0  0  0  0  0  0  0  0  0  0
    2.8646   -1.9318    3.7461 H   0  0  0  0  0  0  0  0  0  0  0  0
    3.0756   -0.2585    3.3152 H   0  0  0  0  0  0  0  0  0  0  0  0
    1.6838   -1.9334    1.8707 H   0  0  0  0  0  0  0  0  0  0  0  0
    1.9421   -0.5513    0.2196 H   0  0  0  0  0  0  0  0  0  0  0  0
    2.1707   -2.2790   -0.3378 H   0  0  0  0  0  0  0  0  0  0  0  0
    3.7774   -3.8196    2.9838 H   0  0  0  0  0  0  0  0  0  0  0  0
    6.4104   -7.6673    2.1187 H   0  0  0  0  0  0  0  0  0  0  0  0
    8.5974   -7.1229    1.0397 H   0  0  0  0  0  0  0  0  0  0  0  0
    9.0228   -4.8834   -0.0185 H   0  0  0  0  0  0  0  0  0  0  0  0
    5.3282   -5.4338   -0.5791 H   0  0  0  0  0  0  0  0  0  0  0  0
    3.6944   -5.0972   -0.3812 H   0  0  0  0  0  0  0  0  0  0  0  0
    5.6312   -3.7451   -2.0880 H   0  0  0  0  0  0  0  0  0  0  0  0
    3.9155   -3.9477   -2.2344 H   0  0  0  0  0  0  0  0  0  0  0  0
    4.4822   -0.2824   -1.6095 H   0  0  0  0  0  0  0  0  0  0  0  0
    5.5472   -1.2847   -2.5794 H   0  0  0  0  0  0  0  0  0  0  0  0
    2.4828   -1.3102   -2.6925 H   0  0  0  0  0  0  0  0  0  0  0  0
    4.5810   -2.8438   -4.3377 H   0  0  0  0  0  0  0  0  0  0  0  0
    2.7613   -2.8604   -4.6072 H   0  0  0  0  0  0  0  0  0  0  0  0
    2.7755   -0.3715   -4.9908 H   0  0  0  0  0  0  0  0  0  0  0  0
    4.6028   -0.3311   -4.7321 H   0  0  0  0  0  0  0  0  0  0  0  0
    7.4322   -1.8701    0.3772 H   0  0  0  0  0  0  0  0  0  0  0  0
    6.9997   -2.6782   -1.0370 H   0  0  0  0  0  0  0  0  0  0  0  0
    6.2501   -2.3328    2.0626 H   0  0  0  0  0  0  0  0  0  0  0  0
  1  2  1  0
  1 27  1  0
  2 26  1  0
  2  3  1  0
  2 28  1  6
  3  4  1  0
  3 29  1  0
  3 30  1  0
  4  5  1  0
  4  6  1  0
  4 31  1  1
  5 32  1  0
  6 24  1  0
  6  7  1  6
  6  8  1  0
  7 33  1  0
  8 16  1  0
  8  9  1  0
  8 34  1  1
  9 10  1  0
 10 15  2  0
 10 11  1  0
 11 12  2  0
 11 35  1  0
 12 13  1  0
 12 36  1  0
 13 14  2  0
 13 37  1  0
 14 25  1  0
 14 15  1  0
 15 16  1  0
 16 26  1  0
 16 17  1  6
 17 18  1  0
 17 38  1  0
 17 39  1  0
 18 19  1  0
 18 40  1  0
 18 41  1  0
 19 20  1  0
 24 19  1  1
 20 21  1  0
 20 42  1  0
 20 43  1  0
 21 23  1  0
 21 22  1  0
 21 44  1  0
 22 23  1  0
 22 45  1  0
 22 46  1  0
 23 47  1  0
 23 48  1  0
 24 25  1  0
 24 26  1  0
 25 49  1  0
 25 50  1  0
 26 51  1  1
M  END
>  <i_m_ct_stereo_status>  (195) 
1

>  <s_m_source_file>  (195) 
/var/tmp/pbs.5076255.sched01/tmprae_yccg/80g5h6lheg.sdf

>  <i_m_source_file_index>  (195) 
11

>  <i_lp_mmshare_version>  (195) 
48012

>  <i_f3d_flags>  (195) 
0

>  <s_epik_input>  (195) 
W09IXVtDQEBIXTFbQ0gyXVtDQEBIXShbT0hdKVtDQEBIXTJbQ0BAXShbQ0BAXTEoW09IXSlbQ0BASF0zQzI0NSkoTihbQ0gyXVtDSDJdNSlbQ0gyXVtDSF02W0NIMl1bQ0gyXTYpW0NIMl1jN2M0YyhPMylbY0hdW2NIXVtjSF03

>  <s_epik_cmdline>  (195) 
J2VwaWtfcHl0aG9uJywgJy1waHQnLCAnMi4wJywgJy1waCcsICc3LjAnLCAnLXRuJywgJzgnLCAnLW1hJywgJzIwMCcsICctaW1hZScsICc8aW5maWxlLm1hZT4nLCAnLW9tYWUnLCAnPG91dGZpbGUubWFlPic=

>  <r_lp_tautomer_probability>  (195) 
1

>  <r_epik_Ionization_Penalty>  (195) 
1.48257

>  <r_epik_Ionization_Penalty_Charging>  (195) 
0

>  <r_epik_Ionization_Penalty_Neutral>  (195) 
1.48257

>  <r_epik_State_Penalty>  (195) 
1.57132

>  <r_epik_Charging_Adjusted_Penalty>  (195) 
1.57132

>  <i_epik_Tot_Q>  (195) 
0

>  <i_epik_Tot_abs_Q>  (195) 
0

>  <s_lp_Force_Field>  (195) 
OPLS3e

>  <r_lp_Energy>  (195) 
472.876

>  <b_lp_Chiralities_Consistent>  (195) 
1

>  <s_lp_Variant>  (195) 
65:0-2

>  <s_i_glide_gridfile>  (195) 
pfpi4k_grid

>  <i_i_glide_lignum>  (195) 
11

>  <i_i_glide_rotatable_bonds>  (195) 
5

>  <r_i_docking_score>  (195) 
-3.71605

>  <r_i_glide_ligand_efficiency>  (195) 
-0.142925

>  <r_i_glide_ligand_efficiency_sa>  (195) 
-0.423415

>  <r_i_glide_ligand_efficiency_ln>  (195) 
-0.872702

>  <r_i_glide_gscore>  (195) 
-3.71605

>  <r_i_glide_lipo>  (195) 
-0.785312

>  <r_i_glide_hbond>  (195) 
0

>  <r_i_glide_metal>  (195) 
-0

>  <r_i_glide_rewards>  (195) 
-0.985722

>  <r_i_glide_evdw>  (195) 
-22.9277

>  <r_i_glide_ecoul>  (195) 
-7.34228

>  <r_i_glide_erotb>  (195) 
0.302709

>  <r_i_glide_esite>  (195) 
0

>  <r_i_glide_emodel>  (195) 
-36.7303

>  <r_i_glide_energy>  (195) 
-30.2699

>  <r_i_glide_einternal>  (195) 
2.08364

>  <r_i_glide_intrahb_reward>  (195) 
-0

>  <i_i_glide_confnum>  (195) 
2

>  <i_i_glide_posenum>  (195) 
9

>  <r_i_glide_eff_state_penalty>  (195) 
0

>  <ligand_id>  (195) 
65

>  <original_smiles>  (195) 
OC1CC(O)C2(O)C3Oc4cccc5c4C34CCN(CC3CC3)C2(C5)C14

>  <smiles>  (195) 
[H]OC1([H])C([H])([H])C([H])(O[H])C2(O[H])C3([H])Oc4c([H])c([H])c([H])c5c4C34C([H])([H])C([H])([H])N(C([H])([H])C3([H])C([H])([H])C3([H])[H])C2(C5([H])[H])C14[H]

$$$$
65:1:1
     RDKit          3D

 51 57  0  0  1  0  0  0  0  0999 V2000
    5.3219   -1.9638    4.0521 O   0  0  0  0  0  0  0  0  0  0  0  0
    4.8447   -1.4751    2.8116 C   0  0  2  0  0  0  0  0  0  0  0  0
    3.3674   -1.1992    2.9879 C   0  0  0  0  0  0  0  0  0  0  0  0
    2.7196   -1.5621    1.6806 C   0  0  1  0  0  0  0  0  0  0  0  0
    2.6281   -0.3947    0.8784 O   0  0  0  0  0  0  0  0  0  0  0  0
    3.5483   -2.7127    0.9736 C   0  0  2  0  0  0  0  0  0  0  0  0
    2.3615   -3.0520    0.2096 O   0  0  0  0  0  0  0  0  0  0  0  0
    3.7154   -4.0699    2.0027 C   0  0  2  0  0  0  0  0  0  0  0  0
    4.2305   -5.4968    2.1338 O   0  0  0  0  0  0  0  0  0  0  0  0
    5.6342   -5.6058    2.0449 C   0  0  0  0  0  0  0  0  0  0  0  0
    6.5995   -6.6356    1.8777 C   0  0  0  0  0  0  0  0  0  0  0  0
    7.8253   -6.3456    1.1738 C   0  0  0  0  0  0  0  0  0  0  0  0
    8.0851   -5.0728    0.5355 C   0  0  0  0  0  0  0  0  0  0  0  0
    7.1052   -4.0560    0.6687 C   0  0  0  0  0  0  0  0  0  0  0  0
    6.0433   -4.4937    1.4457 C   0  0  0  0  0  0  0  0  0  0  0  0
    4.8475   -3.8816    1.1800 C   0  0  1  0  0  0  0  0  0  0  0  0
    4.5774   -4.6188   -0.3084 C   0  0  0  0  0  0  0  0  0  0  0  0
    4.5879   -3.7053   -1.5200 C   0  0  0  0  0  0  0  0  0  0  0  0
    4.3964   -2.3356   -1.0831 N   0  0  0  0  0  0  0  0  0  0  0  0
    4.4795   -1.3256   -2.1235 C   0  0  0  0  0  0  0  0  0  0  0  0
    3.3988   -1.4966   -3.1662 C   0  0  0  0  0  0  0  0  0  0  0  0
    3.6265   -2.4314   -4.3262 C   0  0  0  0  0  0  0  0  0  0  0  0
    3.5647   -0.9410   -4.5591 C   0  0  0  0  0  0  0  0  0  0  0  0
    5.0563   -2.0282    0.2029 C   0  0  1  0  0  0  0  0  0  0  0  0
    6.6671   -2.6542   -0.0657 C   0  0  0  0  0  0  0  0  0  0  0  0
    5.2504   -2.4252    1.5835 C   0  0  1  0  0  0  0  0  0  0  0  0
    6.2579   -2.0871    3.9921 H   0  0  0  0  0  0  0  0  0  0  0  0
    5.3235   -0.5065    2.6528 H   0  0  0  0  0  0  0  0  0  0  0  0
    2.9524   -1.8273    3.7771 H   0  0  0  0  0  0  0  0  0  0  0  0
    3.1644   -0.1718    3.2948 H   0  0  0  0  0  0  0  0  0  0  0  0
    1.7018   -1.8665    1.9405 H   0  0  0  0  0  0  0  0  0  0  0  0
    1.9417   -0.5364    0.2240 H   0  0  0  0  0  0  0  0  0  0  0  0
    2.1241   -2.2794   -0.2751 H   0  0  0  0  0  0  0  0  0  0  0  0
    3.8089   -3.7447    3.0335 H   0  0  0  0  0  0  0  0  0  0  0  0
    6.3742   -7.6428    2.1869 H   0  0  0  0  0  0  0  0  0  0  0  0
    8.5349   -7.1479    1.0259 H   0  0  0  0  0  0  0  0  0  0  0  0
    8.9475   -4.9450   -0.1044 H   0  0  0  0  0  0  0  0  0  0  0  0
    5.2289   -5.4697   -0.5335 H   0  0  0  0  0  0  0  0  0  0  0  0
    3.6041   -5.1118   -0.2934 H   0  0  0  0  0  0  0  0  0  0  0  0
    5.5025   -3.8219   -2.0936 H   0  0  0  0  0  0  0  0  0  0  0  0
    3.7821   -4.0105   -2.1828 H   0  0  0  0  0  0  0  0  0  0  0  0
    4.3377   -0.3423   -1.6750 H   0  0  0  0  0  0  0  0  0  0  0  0
    5.4530   -1.3275   -2.6030 H   0  0  0  0  0  0  0  0  0  0  0  0
    2.3927   -1.4872   -2.7540 H   0  0  0  0  0  0  0  0  0  0  0  0
    4.5952   -2.9247   -4.3567 H   0  0  0  0  0  0  0  0  0  0  0  0
    2.7846   -3.0338   -4.6596 H   0  0  0  0  0  0  0  0  0  0  0  0
    2.6787   -0.5539   -5.0594 H   0  0  0  0  0  0  0  0  0  0  0  0
    4.4930   -0.4129   -4.7614 H   0  0  0  0  0  0  0  0  0  0  0  0
    7.3967   -1.9056    0.2569 H   0  0  0  0  0  0  0  0  0  0  0  0
    6.9115   -2.7457   -1.1204 H   0  0  0  0  0  0  0  0  0  0  0  0
    6.2667   -2.3090    1.9852 H   0  0  0  0  0  0  0  0  0  0  0  0
  1  2  1  0
  1 27  1  0
  2 26  1  0
  2  3  1  0
  2 28  1  6
  3  4  1  0
  3 29  1  0
  3 30  1  0
  4  5  1  0
  4  6  1  0
  4 31  1  1
  5 32  1  0
  6 24  1  0
  6  7  1  6
  6  8  1  0
  7 33  1  0
  8 16  1  0
  8  9  1  0
  8 34  1  1
  9 10  1  0
 10 15  2  0
 10 11  1  0
 11 12  2  0
 11 35  1  0
 12 13  1  0
 12 36  1  0
 13 14  2  0
 13 37  1  0
 14 25  1  0
 14 15  1  0
 15 16  1  0
 16 26  1  0
 16 17  1  6
 17 18  1  0
 17 38  1  0
 17 39  1  0
 18 19  1  0
 18 40  1  0
 18 41  1  0
 19 20  1  0
 24 19  1  1
 20 21  1  0
 20 42  1  0
 20 43  1  0
 21 23  1  0
 21 22  1  0
 21 44  1  0
 22 23  1  0
 22 45  1  0
 22 46  1  0
 23 47  1  0
 23 48  1  0
 24 25  1  0
 24 26  1  0
 25 49  1  0
 25 50  1  0
 26 51  1  6
M  END
>  <i_m_ct_stereo_status>  (196) 
1

>  <s_m_source_file>  (196) 
/var/tmp/pbs.5076255.sched01/tmprae_yccg/80g5h6lheg.sdf

>  <i_m_source_file_index>  (196) 
11

>  <i_lp_mmshare_version>  (196) 
48012

>  <i_f3d_flags>  (196) 
0

>  <s_epik_input>  (196) 
W09IXVtDQEBIXTFbQ0gyXVtDQEBIXShbT0hdKVtDQEBIXTJbQ0BAXShbQ0BAXTEoW09IXSlbQ0BASF0zQzI0NSkoTihbQ0gyXVtDSDJdNSlbQ0gyXVtDSF02W0NIMl1bQ0gyXTYpW0NIMl1jN2M0YyhPMylbY0hdW2NIXVtjSF03

>  <s_epik_cmdline>  (196) 
J2VwaWtfcHl0aG9uJywgJy1waHQnLCAnMi4wJywgJy1waCcsICc3LjAnLCAnLXRuJywgJzgnLCAnLW1hJywgJzIwMCcsICctaW1hZScsICc8aW5maWxlLm1hZT4nLCAnLW9tYWUnLCAnPG91dGZpbGUubWFlPic=

>  <r_lp_tautomer_probability>  (196) 
1

>  <r_epik_Ionization_Penalty>  (196) 
1.48257

>  <r_epik_Ionization_Penalty_Charging>  (196) 
0

>  <r_epik_Ionization_Penalty_Neutral>  (196) 
1.48257

>  <r_epik_State_Penalty>  (196) 
1.57132

>  <r_epik_Charging_Adjusted_Penalty>  (196) 
1.57132

>  <i_epik_Tot_Q>  (196) 
0

>  <i_epik_Tot_abs_Q>  (196) 
0

>  <s_lp_Force_Field>  (196) 
OPLS3e

>  <r_lp_Energy>  (196) 
472.876

>  <b_lp_Chiralities_Consistent>  (196) 
1

>  <s_lp_Variant>  (196) 
65:0-2

>  <s_i_glide_gridfile>  (196) 
pfpi4k_grid

>  <i_i_glide_lignum>  (196) 
11

>  <i_i_glide_rotatable_bonds>  (196) 
5

>  <r_i_docking_score>  (196) 
-3.53427

>  <r_i_glide_ligand_efficiency>  (196) 
-0.135933

>  <r_i_glide_ligand_efficiency_sa>  (196) 
-0.402702

>  <r_i_glide_ligand_efficiency_ln>  (196) 
-0.830011

>  <r_i_glide_gscore>  (196) 
-3.53427

>  <r_i_glide_lipo>  (196) 
-0.72607

>  <r_i_glide_hbond>  (196) 
0

>  <r_i_glide_metal>  (196) 
-0

>  <r_i_glide_rewards>  (196) 
-0.985722

>  <r_i_glide_evdw>  (196) 
-22.2425

>  <r_i_glide_ecoul>  (196) 
-6.75376

>  <r_i_glide_erotb>  (196) 
0.302709

>  <r_i_glide_esite>  (196) 
0

>  <r_i_glide_emodel>  (196) 
-35.1786

>  <r_i_glide_energy>  (196) 
-28.9962

>  <r_i_glide_einternal>  (196) 
1.89238

>  <r_i_glide_intrahb_reward>  (196) 
-0

>  <i_i_glide_confnum>  (196) 
2

>  <i_i_glide_posenum>  (196) 
3

>  <r_i_glide_eff_state_penalty>  (196) 
0

>  <ligand_id>  (196) 
65

>  <original_smiles>  (196) 
OC1CC(O)C2(O)C3Oc4cccc5c4C34CCN(CC3CC3)C2(C5)C14

>  <smiles>  (196) 
[H]OC1([H])C([H])([H])C([H])(O[H])C2(O[H])C3([H])Oc4c([H])c([H])c([H])c5c4C34C([H])([H])C([H])([H])N(C([H])([H])C3([H])C([H])([H])C3([H])[H])C2(C5([H])[H])C14[H]

$$$$
65:1:2
     RDKit          3D

 51 57  0  0  1  0  0  0  0  0999 V2000
    7.5506   -5.4164    1.8530 O   0  0  0  0  0  0  0  0  0  0  0  0
    7.1431   -4.8538    0.6194 C   0  0  2  0  0  0  0  0  0  0  0  0
    8.1829   -3.8361    0.1911 C   0  0  0  0  0  0  0  0  0  0  0  0
    7.4353   -2.7302   -0.5005 C   0  0  1  0  0  0  0  0  0  0  0  0
    7.4214   -2.9797   -1.8990 O   0  0  0  0  0  0  0  0  0  0  0  0
    5.9657   -2.6179    0.0813 C   0  0  2  0  0  0  0  0  0  0  0  0
    5.9013   -1.2462   -0.3984 O   0  0  0  0  0  0  0  0  0  0  0  0
    5.9961   -2.4015    1.7749 C   0  0  2  0  0  0  0  0  0  0  0  0
    5.1836   -2.1630    3.0500 O   0  0  0  0  0  0  0  0  0  0  0  0
    4.3189   -3.2198    3.3919 C   0  0  0  0  0  0  0  0  0  0  0  0
    3.2202   -3.4481    4.2580 C   0  0  0  0  0  0  0  0  0  0  0  0
    2.1809   -4.3663    3.8577 C   0  0  0  0  0  0  0  0  0  0  0  0
    2.1552   -5.0138    2.5708 C   0  0  0  0  0  0  0  0  0  0  0  0
    3.2427   -4.7637    1.6831 C   0  0  0  0  0  0  0  0  0  0  0  0
    4.1836   -3.9388    2.2723 C   0  0  0  0  0  0  0  0  0  0  0  0
    4.8908   -3.1793    1.3848 C   0  0  1  0  0  0  0  0  0  0  0  0
    3.6331   -2.1490    0.9610 C   0  0  0  0  0  0  0  0  0  0  0  0
    3.1647   -2.2087   -0.4744 C   0  0  0  0  0  0  0  0  0  0  0  0
    4.1768   -2.8751   -1.2691 N   0  0  0  0  0  0  0  0  0  0  0  0
    3.8461   -3.0867   -2.6719 C   0  0  0  0  0  0  0  0  0  0  0  0
    4.0044   -1.8055   -3.4738 C   0  0  0  0  0  0  0  0  0  0  0  0
    3.2281   -0.5453   -3.1311 C   0  0  0  0  0  0  0  0  0  0  0  0
    2.9057   -1.3160   -4.3714 C   0  0  0  0  0  0  0  0  0  0  0  0
    4.9084   -3.9554   -0.5741 C   0  0  1  0  0  0  0  0  0  0  0  0
    3.5679   -4.8856    0.0792 C   0  0  0  0  0  0  0  0  0  0  0  0
    5.6162   -4.3492    0.6403 C   0  0  1  0  0  0  0  0  0  0  0  0
    7.0075   -6.1661    2.0418 H   0  0  0  0  0  0  0  0  0  0  0  0
    7.2018   -5.6806   -0.0809 H   0  0  0  0  0  0  0  0  0  0  0  0
    8.6971   -3.4264    1.0609 H   0  0  0  0  0  0  0  0  0  0  0  0
    8.9644   -4.2655   -0.4358 H   0  0  0  0  0  0  0  0  0  0  0  0
    8.0283   -1.8275   -0.3260 H   0  0  0  0  0  0  0  0  0  0  0  0
    8.3129   -3.0550   -2.2127 H   0  0  0  0  0  0  0  0  0  0  0  0
    5.0191   -0.9556   -0.2438 H   0  0  0  0  0  0  0  0  0  0  0  0
    6.8254   -2.9632    2.1589 H   0  0  0  0  0  0  0  0  0  0  0  0
    3.1121   -2.8633    5.1594 H   0  0  0  0  0  0  0  0  0  0  0  0
    1.3421   -4.5099    4.5183 H   0  0  0  0  0  0  0  0  0  0  0  0
    1.2983   -5.5935    2.2535 H   0  0  0  0  0  0  0  0  0  0  0  0
    2.7504   -2.1873    1.6111 H   0  0  0  0  0  0  0  0  0  0  0  0
    3.9537   -1.1203    1.1288 H   0  0  0  0  0  0  0  0  0  0  0  0
    2.2084   -2.7198   -0.5484 H   0  0  0  0  0  0  0  0  0  0  0  0
    3.0207   -1.1776   -0.7510 H   0  0  0  0  0  0  0  0  0  0  0  0
    4.5076   -3.8410   -3.1030 H   0  0  0  0  0  0  0  0  0  0  0  0
    2.8361   -3.4803   -2.7840 H   0  0  0  0  0  0  0  0  0  0  0  0
    5.0068   -1.6751   -3.8693 H   0  0  0  0  0  0  0  0  0  0  0  0
    2.4067   -0.5496   -2.4183 H   0  0  0  0  0  0  0  0  0  0  0  0
    3.7991    0.3869   -3.2333 H   0  0  0  0  0  0  0  0  0  0  0  0
    3.1274   -0.8015   -5.3058 H   0  0  0  0  0  0  0  0  0  0  0  0
    1.9761   -1.8804   -4.3330 H   0  0  0  0  0  0  0  0  0  0  0  0
    3.7334   -5.9489   -0.1358 H   0  0  0  0  0  0  0  0  0  0  0  0
    2.6423   -4.7162   -0.4689 H   0  0  0  0  0  0  0  0  0  0  0  0
    5.4061   -5.3642    1.0093 H   0  0  0  0  0  0  0  0  0  0  0  0
  1  2  1  0
  1 27  1  0
  2 26  1  0
  2  3  1  0
  2 28  1  6
  3  4  1  0
  3 29  1  0
  3 30  1  0
  4  5  1  0
  4  6  1  0
  4 31  1  6
  5 32  1  0
  6 24  1  0
  6  7  1  6
  6  8  1  0
  7 33  1  0
  8 16  1  0
  8  9  1  0
  8 34  1  1
  9 10  1  0
 10 15  2  0
 10 11  1  0
 11 12  2  0
 11 35  1  0
 12 13  1  0
 12 36  1  0
 13 14  2  0
 13 37  1  0
 14 25  1  0
 14 15  1  0
 15 16  1  0
 16 26  1  0
 16 17  1  6
 17 18  1  0
 17 38  1  0
 17 39  1  0
 18 19  1  0
 18 40  1  0
 18 41  1  0
 19 20  1  0
 24 19  1  6
 20 21  1  0
 20 42  1  0
 20 43  1  0
 21 23  1  0
 21 22  1  0
 21 44  1  0
 22 23  1  0
 22 45  1  0
 22 46  1  0
 23 47  1  0
 23 48  1  0
 24 25  1  0
 24 26  1  0
 25 49  1  0
 25 50  1  0
 26 51  1  1
M  END
>  <i_m_ct_stereo_status>  (197) 
1

>  <s_m_source_file>  (197) 
/var/tmp/pbs.5076255.sched01/tmprae_yccg/80g5h6lheg.sdf

>  <i_m_source_file_index>  (197) 
11

>  <i_lp_mmshare_version>  (197) 
48012

>  <i_f3d_flags>  (197) 
0

>  <s_epik_input>  (197) 
W09IXVtDQEBIXTFbQ0gyXVtDQEBIXShbT0hdKVtDQEBIXTJbQ0BAXShbQ0BAXTEoW09IXSlbQ0BASF0zQzI0NSkoTihbQ0gyXVtDSDJdNSlbQ0gyXVtDSF02W0NIMl1bQ0gyXTYpW0NIMl1jN2M0YyhPMylbY0hdW2NIXVtjSF03

>  <s_epik_cmdline>  (197) 
J2VwaWtfcHl0aG9uJywgJy1waHQnLCAnMi4wJywgJy1waCcsICc3LjAnLCAnLXRuJywgJzgnLCAnLW1hJywgJzIwMCcsICctaW1hZScsICc8aW5maWxlLm1hZT4nLCAnLW9tYWUnLCAnPG91dGZpbGUubWFlPic=

>  <r_lp_tautomer_probability>  (197) 
1

>  <r_epik_Ionization_Penalty>  (197) 
1.48257

>  <r_epik_Ionization_Penalty_Charging>  (197) 
0

>  <r_epik_Ionization_Penalty_Neutral>  (197) 
1.48257

>  <r_epik_State_Penalty>  (197) 
1.57132

>  <r_epik_Charging_Adjusted_Penalty>  (197) 
1.57132

>  <i_epik_Tot_Q>  (197) 
0

>  <i_epik_Tot_abs_Q>  (197) 
0

>  <s_lp_Force_Field>  (197) 
OPLS3e

>  <r_lp_Energy>  (197) 
472.876

>  <b_lp_Chiralities_Consistent>  (197) 
1

>  <s_lp_Variant>  (197) 
65:0-2

>  <s_i_glide_gridfile>  (197) 
pfpi4k_grid

>  <i_i_glide_lignum>  (197) 
11

>  <i_i_glide_rotatable_bonds>  (197) 
5

>  <r_i_docking_score>  (197) 
-3.20083

>  <r_i_glide_ligand_efficiency>  (197) 
-0.123109

>  <r_i_glide_ligand_efficiency_sa>  (197) 
-0.36471

>  <r_i_glide_ligand_efficiency_ln>  (197) 
-0.751705

>  <r_i_glide_gscore>  (197) 
-3.20083

>  <r_i_glide_lipo>  (197) 
-0.807573

>  <r_i_glide_hbond>  (197) 
0

>  <r_i_glide_metal>  (197) 
-0

>  <r_i_glide_rewards>  (197) 
-0.985722

>  <r_i_glide_evdw>  (197) 
-22.779

>  <r_i_glide_ecoul>  (197) 
-3.80864

>  <r_i_glide_erotb>  (197) 
0.302709

>  <r_i_glide_esite>  (197) 
0

>  <r_i_glide_emodel>  (197) 
-28.9391

>  <r_i_glide_energy>  (197) 
-26.5876

>  <r_i_glide_einternal>  (197) 
5.65031

>  <r_i_glide_intrahb_reward>  (197) 
-0

>  <i_i_glide_confnum>  (197) 
2

>  <i_i_glide_posenum>  (197) 
10

>  <r_i_glide_eff_state_penalty>  (197) 
0

>  <ligand_id>  (197) 
65

>  <original_smiles>  (197) 
OC1CC(O)C2(O)C3Oc4cccc5c4C34CCN(CC3CC3)C2(C5)C14

>  <smiles>  (197) 
[H]OC1([H])C([H])([H])C([H])(O[H])C2(O[H])C3([H])Oc4c([H])c([H])c([H])c5c4C34C([H])([H])C([H])([H])N(C([H])([H])C3([H])C([H])([H])C3([H])[H])C2(C5([H])[H])C14[H]

$$$$
66:0:0
     RDKit          3D

 53 57  0  0  1  0  0  0  0  0999 V2000
    3.5050   -0.4755   -4.2290 C   0  0  0  0  0  0  0  0  0  0  0  0
    4.0551   -1.6613   -3.4176 C   0  0  2  0  0  0  0  0  0  0  0  0
    2.9827   -2.5777   -2.9151 C   0  0  1  0  0  0  0  0  0  0  0  0
    2.7919   -3.6352   -3.8318 O   0  0  0  0  0  0  0  0  0  0  0  0
    3.7204   -3.0000   -1.6486 C   0  0  0  0  0  0  0  0  0  0  0  0
    4.4507   -4.0923   -1.5873 C   0  0  0  0  0  0  0  0  0  0  0  0
    5.4215   -4.4565   -0.5346 C   0  0  0  0  0  0  0  0  0  0  0  0
    5.7453   -3.4504    0.2587 C   0  0  0  0  0  0  0  0  0  0  0  0
    4.6438   -3.2470    1.3100 C   0  0  1  0  0  0  0  0  0  0  0  0
    5.1229   -2.9066    2.7284 C   0  0  1  0  0  0  0  0  0  0  0  0
    6.0447   -1.8743    2.7712 O   0  0  0  0  0  0  0  0  0  0  0  0
    3.9460   -2.4974    3.6132 C   0  0  0  0  0  0  0  0  0  0  0  0
    3.3774   -1.1786    3.0864 C   0  0  0  0  0  0  0  0  0  0  0  0
    2.8243   -1.2781    1.6680 C   0  0  1  0  0  0  0  0  0  0  0  0
    2.6728    0.1547    1.1380 C   0  0  0  0  0  0  0  0  0  0  0  0
    3.4953   -2.3537    0.6700 C   0  0  2  0  0  0  0  0  0  0  0  0
    2.3184   -3.3775    0.5452 C   0  0  0  0  0  0  0  0  0  0  0  0
    3.8643   -1.6601   -0.7833 C   0  0  2  0  0  0  0  0  0  0  0  0
    5.2041   -1.0822   -0.0899 C   0  0  0  0  0  0  0  0  0  0  0  0
    6.2688   -2.1237   -0.3679 C   0  0  1  0  0  0  0  0  0  0  0  0
    7.6977   -1.8126    0.1090 C   0  0  0  0  0  0  0  0  0  0  0  0
    6.1928   -2.0114   -1.9059 C   0  0  0  0  0  0  0  0  0  0  0  0
    4.7879   -1.3367   -2.0842 C   0  0  1  0  0  0  0  0  0  0  0  0
    2.8219    0.1257   -3.6329 H   0  0  0  0  0  0  0  0  0  0  0  0
    2.9665   -0.8258   -5.1103 H   0  0  0  0  0  0  0  0  0  0  0  0
    4.3066    0.1680   -4.5821 H   0  0  0  0  0  0  0  0  0  0  0  0
    4.7412   -2.2242   -4.0456 H   0  0  0  0  0  0  0  0  0  0  0  0
    2.0502   -2.0597   -2.6665 H   0  0  0  0  0  0  0  0  0  0  0  0
    2.3650   -4.3477   -3.3664 H   0  0  0  0  0  0  0  0  0  0  0  0
    4.5691   -4.6427   -2.5168 H   0  0  0  0  0  0  0  0  0  0  0  0
    5.0806   -5.3596   -0.0652 H   0  0  0  0  0  0  0  0  0  0  0  0
    4.2308   -4.2409    1.4872 H   0  0  0  0  0  0  0  0  0  0  0  0
    5.5690   -3.8269    3.1311 H   0  0  0  0  0  0  0  0  0  0  0  0
    5.5978   -1.0713    2.4371 H   0  0  0  0  0  0  0  0  0  0  0  0
    3.1777   -3.2692    3.6456 H   0  0  0  0  0  0  0  0  0  0  0  0
    4.3134   -2.3602    4.6305 H   0  0  0  0  0  0  0  0  0  0  0  0
    2.5750   -0.8715    3.7525 H   0  0  0  0  0  0  0  0  0  0  0  0
    4.1192   -0.3824    3.1458 H   0  0  0  0  0  0  0  0  0  0  0  0
    1.7845   -1.5602    1.8245 H   0  0  0  0  0  0  0  0  0  0  0  0
    3.6189    0.7025    1.0642 H   0  0  0  0  0  0  0  0  0  0  0  0
    1.9950    0.7365    1.7761 H   0  0  0  0  0  0  0  0  0  0  0  0
    2.2211    0.1365    0.1482 H   0  0  0  0  0  0  0  0  0  0  0  0
    1.5390   -2.9000   -0.0573 H   0  0  0  0  0  0  0  0  0  0  0  0
    1.9398   -3.6529    1.5398 H   0  0  0  0  0  0  0  0  0  0  0  0
    2.5605   -4.3353    0.0668 H   0  0  0  0  0  0  0  0  0  0  0  0
    5.5409   -0.0782   -0.3600 H   0  0  0  0  0  0  0  0  0  0  0  0
    5.1341   -0.8076    0.9529 H   0  0  0  0  0  0  0  0  0  0  0  0
    7.9054   -0.7398    0.1031 H   0  0  0  0  0  0  0  0  0  0  0  0
    8.4565   -2.3111   -0.5033 H   0  0  0  0  0  0  0  0  0  0  0  0
    7.8433   -2.1528    1.1268 H   0  0  0  0  0  0  0  0  0  0  0  0
    6.9300   -1.3711   -2.3092 H   0  0  0  0  0  0  0  0  0  0  0  0
    6.3444   -2.9612   -2.4443 H   0  0  0  0  0  0  0  0  0  0  0  0
    4.8929   -0.2605   -2.2148 H   0  0  0  0  0  0  0  0  0  0  0  0
  1  2  1  0
  1 24  1  0
  1 25  1  0
  1 26  1  0
  2 23  1  0
  2  3  1  0
  2 27  1  6
  3  4  1  0
  3  5  1  0
  3 28  1  1
  4 29  1  0
  5 18  1  0
  5  6  2  0
  6  7  1  0
  6 30  1  0
  7  8  2  0
  7 31  1  0
  8 20  1  0
  8  9  1  0
  9 16  1  0
  9 10  1  0
  9 32  1  1
 10 11  1  0
 10 12  1  0
 10 33  1  1
 11 34  1  0
 12 13  1  0
 12 35  1  0
 12 36  1  0
 13 14  1  0
 13 37  1  0
 13 38  1  0
 14 15  1  0
 14 16  1  0
 14 39  1  1
 15 40  1  0
 15 41  1  0
 15 42  1  0
 16 17  1  6
 16 18  1  0
 17 43  1  0
 17 44  1  0
 17 45  1  0
 18 23  1  0
 18 19  1  6
 19 20  1  0
 19 46  1  0
 19 47  1  0
 20 21  1  1
 20 22  1  0
 21 48  1  0
 21 49  1  0
 21 50  1  0
 22 23  1  0
 22 51  1  0
 22 52  1  0
 23 53  1  6
M  END
>  <i_m_ct_stereo_status>  (198) 
1

>  <s_m_source_file>  (198) 
/var/tmp/pbs.5076255.sched01/tmprae_yccg/80g5h6lheg.sdf

>  <i_m_source_file_index>  (198) 
12

>  <i_lp_mmshare_version>  (198) 
48012

>  <i_f3d_flags>  (198) 
0

>  <s_epik_input>  (198) 
W09IXVtDQEBIXTFbQ0BASF0oW0NIM10pW0NAQEhdMltDSDJdW0NAXShbQ0gyXTMpKFtDSDNdKUMoPVtDSF1bQ0hdPUMxQzIzNClbQ0BASF01W0NAQF00KFtDSDNdKVtDQEhdKFtDSDNdKVtDSDJdW0NIMl1bQ0BASF01W09IXQ==

>  <s_epik_cmdline>  (198) 
J2VwaWtfcHl0aG9uJywgJy1waHQnLCAnMi4wJywgJy1waCcsICc3LjAnLCAnLXRuJywgJzgnLCAnLW1hJywgJzIwMCcsICctaW1hZScsICc8aW5maWxlLm1hZT4nLCAnLW9tYWUnLCAnPG91dGZpbGUubWFlPic=

>  <r_lp_tautomer_probability>  (198) 
1

>  <r_epik_Ionization_Penalty>  (198) 
1.56732e-06

>  <r_epik_Ionization_Penalty_Charging>  (198) 
0

>  <r_epik_Ionization_Penalty_Neutral>  (198) 
1.56732e-06

>  <r_epik_State_Penalty>  (198) 
-0

>  <r_epik_Charging_Adjusted_Penalty>  (198) 
0

>  <i_epik_Tot_Q>  (198) 
0

>  <i_epik_Tot_abs_Q>  (198) 
0

>  <s_lp_Force_Field>  (198) 
OPLS3e

>  <r_lp_Energy>  (198) 
260.435

>  <b_lp_Chiralities_Consistent>  (198) 
1

>  <s_lp_Variant>  (198) 
66:0-1

>  <s_i_glide_gridfile>  (198) 
pfpi4k_grid

>  <i_i_glide_lignum>  (198) 
12

>  <i_i_glide_rotatable_bonds>  (198) 
2

>  <r_i_docking_score>  (198) 
-2.95724

>  <r_i_glide_ligand_efficiency>  (198) 
-0.128576

>  <r_i_glide_ligand_efficiency_sa>  (198) 
-0.365653

>  <r_i_glide_ligand_efficiency_ln>  (198) 
-0.715088

>  <r_i_glide_gscore>  (198) 
-2.95724

>  <r_i_glide_lipo>  (198) 
-0.629996

>  <r_i_glide_hbond>  (198) 
-0.226865

>  <r_i_glide_metal>  (198) 
-0

>  <r_i_glide_rewards>  (198) 
-1.26503

>  <r_i_glide_evdw>  (198) 
-5.63881

>  <r_i_glide_ecoul>  (198) 
-4.64845

>  <r_i_glide_erotb>  (198) 
0

>  <r_i_glide_esite>  (198) 
0

>  <r_i_glide_emodel>  (198) 
-8.69847

>  <r_i_glide_energy>  (198) 
-10.2873

>  <r_i_glide_einternal>  (198) 
0.649067

>  <r_i_glide_intrahb_reward>  (198) 
-0

>  <i_i_glide_confnum>  (198) 
1

>  <i_i_glide_posenum>  (198) 
20

>  <r_i_glide_eff_state_penalty>  (198) 
0

>  <ligand_id>  (198) 
66

>  <original_smiles>  (198) 
CC1C(O)C2=CC=C3C4C(O)CCC(C)C4(C)C24CC3(C)CC14

>  <smiles>  (198) 
[H]OC1([H])C2=C([H])C([H])=C3C4([H])C([H])(O[H])C([H])([H])C([H])([H])C([H])(C([H])([H])[H])C4(C([H])([H])[H])C24C([H])([H])C3(C([H])([H])[H])C([H])([H])C4([H])C1([H])C([H])([H])[H]

$$$$
66:0:1
     RDKit          3D

 53 57  0  0  1  0  0  0  0  0999 V2000
    3.5989   -0.3323   -4.2254 C   0  0  0  0  0  0  0  0  0  0  0  0
    4.1216   -1.5489   -3.4416 C   0  0  2  0  0  0  0  0  0  0  0  0
    3.0224   -2.4657   -2.9850 C   0  0  1  0  0  0  0  0  0  0  0  0
    2.7889   -3.4908   -3.9208 O   0  0  0  0  0  0  0  0  0  0  0  0
    3.7072   -2.9036   -1.7389 C   0  0  0  0  0  0  0  0  0  0  0  0
    4.4579   -4.0596   -1.7144 C   0  0  0  0  0  0  0  0  0  0  0  0
    5.3788   -4.4487   -0.6594 C   0  0  0  0  0  0  0  0  0  0  0  0
    5.6997   -3.4811    0.2011 C   0  0  0  0  0  0  0  0  0  0  0  0
    4.5605   -3.3234    1.2222 C   0  0  1  0  0  0  0  0  0  0  0  0
    4.9486   -3.0903    2.6925 C   0  0  1  0  0  0  0  0  0  0  0  0
    5.7856   -1.9971    2.8604 O   0  0  0  0  0  0  0  0  0  0  0  0
    3.7597   -2.6868    3.5473 C   0  0  0  0  0  0  0  0  0  0  0  0
    3.2198   -1.3381    3.0610 C   0  0  0  0  0  0  0  0  0  0  0  0
    2.7390   -1.3652    1.5958 C   0  0  1  0  0  0  0  0  0  0  0  0
    2.6199    0.1166    1.1337 C   0  0  0  0  0  0  0  0  0  0  0  0
    3.4158   -2.4115    0.5843 C   0  0  2  0  0  0  0  0  0  0  0  0
    2.2216   -3.4132    0.3685 C   0  0  0  0  0  0  0  0  0  0  0  0
    3.8500   -1.6320   -0.8123 C   0  0  2  0  0  0  0  0  0  0  0  0
    5.1754   -1.1005   -0.0582 C   0  0  0  0  0  0  0  0  0  0  0  0
    6.2450   -2.1337   -0.3389 C   0  0  1  0  0  0  0  0  0  0  0  0
    7.6586   -1.8326    0.2112 C   0  0  0  0  0  0  0  0  0  0  0  0
    6.2007   -1.9548   -1.8661 C   0  0  0  0  0  0  0  0  0  0  0  0
    4.8012   -1.2743   -2.0744 C   0  0  1  0  0  0  0  0  0  0  0  0
    2.9007    0.2463   -3.6227 H   0  0  0  0  0  0  0  0  0  0  0  0
    3.0804   -0.6444   -5.1318 H   0  0  0  0  0  0  0  0  0  0  0  0
    4.4104    0.3281   -4.5304 H   0  0  0  0  0  0  0  0  0  0  0  0
    4.8252   -2.0905   -4.0748 H   0  0  0  0  0  0  0  0  0  0  0  0
    2.1038   -1.9353   -2.7361 H   0  0  0  0  0  0  0  0  0  0  0  0
    2.0928   -4.0376   -3.5849 H   0  0  0  0  0  0  0  0  0  0  0  0
    4.5065   -4.6331   -2.6262 H   0  0  0  0  0  0  0  0  0  0  0  0
    5.0387   -5.3826   -0.2336 H   0  0  0  0  0  0  0  0  0  0  0  0
    4.1605   -4.3302    1.3516 H   0  0  0  0  0  0  0  0  0  0  0  0
    5.4496   -3.9822    3.0865 H   0  0  0  0  0  0  0  0  0  0  0  0
    6.2212   -2.0680    3.6981 H   0  0  0  0  0  0  0  0  0  0  0  0
    2.9923   -3.4660    3.5215 H   0  0  0  0  0  0  0  0  0  0  0  0
    4.0888   -2.5825    4.5811 H   0  0  0  0  0  0  0  0  0  0  0  0
    2.3992   -1.0415    3.6982 H   0  0  0  0  0  0  0  0  0  0  0  0
    3.9506   -0.5377    3.1764 H   0  0  0  0  0  0  0  0  0  0  0  0
    1.6956   -1.6362    1.6943 H   0  0  0  0  0  0  0  0  0  0  0  0
    3.5601    0.6744    1.1102 H   0  0  0  0  0  0  0  0  0  0  0  0
    1.9222    0.6692    1.7744 H   0  0  0  0  0  0  0  0  0  0  0  0
    2.2493    0.1351    0.1437 H   0  0  0  0  0  0  0  0  0  0  0  0
    1.4326   -2.9749   -0.2505 H   0  0  0  0  0  0  0  0  0  0  0  0
    1.8264   -3.7399    1.3426 H   0  0  0  0  0  0  0  0  0  0  0  0
    2.5246   -4.3534   -0.0977 H   0  0  0  0  0  0  0  0  0  0  0  0
    5.5127   -0.0898   -0.2848 H   0  0  0  0  0  0  0  0  0  0  0  0
    5.0787   -0.8708    0.9878 H   0  0  0  0  0  0  0  0  0  0  0  0
    7.8594   -0.7665    0.2445 H   0  0  0  0  0  0  0  0  0  0  0  0
    8.4318   -2.3078   -0.3921 H   0  0  0  0  0  0  0  0  0  0  0  0
    7.7717   -2.2036    1.2247 H   0  0  0  0  0  0  0  0  0  0  0  0
    6.9384   -1.3130   -2.2728 H   0  0  0  0  0  0  0  0  0  0  0  0
    6.3880   -2.8583   -2.4382 H   0  0  0  0  0  0  0  0  0  0  0  0
    4.9401   -0.1959   -2.1661 H   0  0  0  0  0  0  0  0  0  0  0  0
  1  2  1  0
  1 24  1  0
  1 25  1  0
  1 26  1  0
  2 23  1  0
  2  3  1  0
  2 27  1  6
  3  4  1  0
  3  5  1  0
  3 28  1  1
  4 29  1  0
  5 18  1  0
  5  6  2  0
  6  7  1  0
  6 30  1  0
  7  8  2  0
  7 31  1  0
  8 20  1  0
  8  9  1  0
  9 16  1  0
  9 10  1  0
  9 32  1  1
 10 11  1  0
 10 12  1  0
 10 33  1  1
 11 34  1  0
 12 13  1  0
 12 35  1  0
 12 36  1  0
 13 14  1  0
 13 37  1  0
 13 38  1  0
 14 15  1  0
 14 16  1  0
 14 39  1  1
 15 40  1  0
 15 41  1  0
 15 42  1  0
 16 17  1  6
 16 18  1  0
 17 43  1  0
 17 44  1  0
 17 45  1  0
 18 23  1  0
 18 19  1  6
 19 20  1  0
 19 46  1  0
 19 47  1  0
 20 21  1  1
 20 22  1  0
 21 48  1  0
 21 49  1  0
 21 50  1  0
 22 23  1  0
 22 51  1  0
 22 52  1  0
 23 53  1  6
M  END
>  <i_m_ct_stereo_status>  (199) 
1

>  <s_m_source_file>  (199) 
/var/tmp/pbs.5076255.sched01/tmprae_yccg/80g5h6lheg.sdf

>  <i_m_source_file_index>  (199) 
12

>  <i_lp_mmshare_version>  (199) 
48012

>  <i_f3d_flags>  (199) 
0

>  <s_epik_input>  (199) 
W09IXVtDQEBIXTFbQ0BASF0oW0NIM10pW0NAQEhdMltDSDJdW0NAXShbQ0gyXTMpKFtDSDNdKUMoPVtDSF1bQ0hdPUMxQzIzNClbQ0BASF01W0NAQF00KFtDSDNdKVtDQEhdKFtDSDNdKVtDSDJdW0NIMl1bQ0BASF01W09IXQ==

>  <s_epik_cmdline>  (199) 
J2VwaWtfcHl0aG9uJywgJy1waHQnLCAnMi4wJywgJy1waCcsICc3LjAnLCAnLXRuJywgJzgnLCAnLW1hJywgJzIwMCcsICctaW1hZScsICc8aW5maWxlLm1hZT4nLCAnLW9tYWUnLCAnPG91dGZpbGUubWFlPic=

>  <r_lp_tautomer_probability>  (199) 
1

>  <r_epik_Ionization_Penalty>  (199) 
1.56732e-06

>  <r_epik_Ionization_Penalty_Charging>  (199) 
0

>  <r_epik_Ionization_Penalty_Neutral>  (199) 
1.56732e-06

>  <r_epik_State_Penalty>  (199) 
-0

>  <r_epik_Charging_Adjusted_Penalty>  (199) 
0

>  <i_epik_Tot_Q>  (199) 
0

>  <i_epik_Tot_abs_Q>  (199) 
0

>  <s_lp_Force_Field>  (199) 
OPLS3e

>  <r_lp_Energy>  (199) 
260.435

>  <b_lp_Chiralities_Consistent>  (199) 
1

>  <s_lp_Variant>  (199) 
66:0-1

>  <s_i_glide_gridfile>  (199) 
pfpi4k_grid

>  <i_i_glide_lignum>  (199) 
12

>  <i_i_glide_rotatable_bonds>  (199) 
2

>  <r_i_docking_score>  (199) 
-2.90533

>  <r_i_glide_ligand_efficiency>  (199) 
-0.126319

>  <r_i_glide_ligand_efficiency_sa>  (199) 
-0.359234

>  <r_i_glide_ligand_efficiency_ln>  (199) 
-0.702535

>  <r_i_glide_gscore>  (199) 
-2.90533

>  <r_i_glide_lipo>  (199) 
-0.652728

>  <r_i_glide_hbond>  (199) 
-0.0929565

>  <r_i_glide_metal>  (199) 
-0

>  <r_i_glide_rewards>  (199) 
-1.26503

>  <r_i_glide_evdw>  (199) 
-9.02358

>  <r_i_glide_ecoul>  (199) 
-2.95622

>  <r_i_glide_erotb>  (199) 
0

>  <r_i_glide_esite>  (199) 
0

>  <r_i_glide_emodel>  (199) 
-11.7755

>  <r_i_glide_energy>  (199) 
-11.9798

>  <r_i_glide_einternal>  (199) 
0.546513

>  <r_i_glide_intrahb_reward>  (199) 
-0

>  <i_i_glide_confnum>  (199) 
1

>  <i_i_glide_posenum>  (199) 
1

>  <r_i_glide_eff_state_penalty>  (199) 
0

>  <ligand_id>  (199) 
66

>  <original_smiles>  (199) 
CC1C(O)C2=CC=C3C4C(O)CCC(C)C4(C)C24CC3(C)CC14

>  <smiles>  (199) 
[H]OC1([H])C2=C([H])C([H])=C3C4([H])C([H])(O[H])C([H])([H])C([H])([H])C([H])(C([H])([H])[H])C4(C([H])([H])[H])C24C([H])([H])C3(C([H])([H])[H])C([H])([H])C4([H])C1([H])C([H])([H])[H]

$$$$
66:0:2
     RDKit          3D

 53 57  0  0  1  0  0  0  0  0999 V2000
    3.7539   -0.0039   -3.4593 C   0  0  0  0  0  0  0  0  0  0  0  0
    4.2632   -1.3492   -2.9538 C   0  0  2  0  0  0  0  0  0  0  0  0
    3.1765   -2.3712   -2.8445 C   0  0  1  0  0  0  0  0  0  0  0  0
    3.0677   -3.1432   -4.0220 O   0  0  0  0  0  0  0  0  0  0  0  0
    3.8181   -3.0805   -1.7013 C   0  0  0  0  0  0  0  0  0  0  0  0
    4.6079   -4.1603   -1.9055 C   0  0  0  0  0  0  0  0  0  0  0  0
    5.4023   -4.7921   -0.8912 C   0  0  0  0  0  0  0  0  0  0  0  0
    5.6651   -4.0848    0.1882 C   0  0  0  0  0  0  0  0  0  0  0  0
    4.4878   -4.2441    1.1432 C   0  0  1  0  0  0  0  0  0  0  0  0
    4.8027   -4.4318    2.6353 C   0  0  1  0  0  0  0  0  0  0  0  0
    5.6965   -3.4954    3.1582 O   0  0  0  0  0  0  0  0  0  0  0  0
    3.5352   -4.3023    3.4712 C   0  0  0  0  0  0  0  0  0  0  0  0
    2.9463   -2.8982    3.3031 C   0  0  0  0  0  0  0  0  0  0  0  0
    2.5320   -2.5355    1.8684 C   0  0  1  0  0  0  0  0  0  0  0  0
    2.3384   -1.0020    1.8302 C   0  0  0  0  0  0  0  0  0  0  0  0
    3.3382   -3.2387    0.6621 C   0  0  2  0  0  0  0  0  0  0  0  0
    2.2282   -4.2074    0.0908 C   0  0  0  0  0  0  0  0  0  0  0  0
    3.7972   -2.0968   -0.4517 C   0  0  2  0  0  0  0  0  0  0  0  0
    5.0235   -1.7448    0.5429 C   0  0  0  0  0  0  0  0  0  0  0  0
    6.1585   -2.6243    0.0854 C   0  0  1  0  0  0  0  0  0  0  0  0
    7.5071   -2.4485    0.7673 C   0  0  0  0  0  0  0  0  0  0  0  0
    6.2321   -1.9633   -1.2815 C   0  0  0  0  0  0  0  0  0  0  0  0
    4.8070   -1.3675   -1.4800 C   0  0  1  0  0  0  0  0  0  0  0  0
    2.9490    0.2617   -2.7880 H   0  0  0  0  0  0  0  0  0  0  0  0
    3.3189   -0.0579   -4.4580 H   0  0  0  0  0  0  0  0  0  0  0  0
    4.5137    0.7836   -3.4339 H   0  0  0  0  0  0  0  0  0  0  0  0
    5.0208   -1.6949   -3.6538 H   0  0  0  0  0  0  0  0  0  0  0  0
    2.2142   -1.9584   -2.5484 H   0  0  0  0  0  0  0  0  0  0  0  0
    2.3220   -3.7087   -3.9152 H   0  0  0  0  0  0  0  0  0  0  0  0
    4.6745   -4.5855   -2.9029 H   0  0  0  0  0  0  0  0  0  0  0  0
    5.0588   -5.8007   -0.7546 H   0  0  0  0  0  0  0  0  0  0  0  0
    4.1162   -5.2550    0.9927 H   0  0  0  0  0  0  0  0  0  0  0  0
    5.2489   -5.4138    2.7961 H   0  0  0  0  0  0  0  0  0  0  0  0
    5.9021   -3.7296    4.0445 H   0  0  0  0  0  0  0  0  0  0  0  0
    2.8113   -5.0621    3.1707 H   0  0  0  0  0  0  0  0  0  0  0  0
    3.7549   -4.4756    4.5306 H   0  0  0  0  0  0  0  0  0  0  0  0
    2.0613   -2.8253    3.9303 H   0  0  0  0  0  0  0  0  0  0  0  0
    3.6328   -2.1392    3.6881 H   0  0  0  0  0  0  0  0  0  0  0  0
    1.5041   -2.8881    1.8190 H   0  0  0  0  0  0  0  0  0  0  0  0
    3.2464   -0.4197    1.9797 H   0  0  0  0  0  0  0  0  0  0  0  0
    1.5866   -0.6838    2.5485 H   0  0  0  0  0  0  0  0  0  0  0  0
    1.9255   -0.6770    0.8840 H   0  0  0  0  0  0  0  0  0  0  0  0
    1.4498   -3.6479   -0.4258 H   0  0  0  0  0  0  0  0  0  0  0  0
    1.8104   -4.8042    0.8940 H   0  0  0  0  0  0  0  0  0  0  0  0
    2.5959   -4.9642   -0.6013 H   0  0  0  0  0  0  0  0  0  0  0  0
    5.3123   -0.6893    0.6183 H   0  0  0  0  0  0  0  0  0  0  0  0
    4.8823   -1.8554    1.6093 H   0  0  0  0  0  0  0  0  0  0  0  0
    7.6604   -1.4226    1.0914 H   0  0  0  0  0  0  0  0  0  0  0  0
    8.3399   -2.6898    0.1051 H   0  0  0  0  0  0  0  0  0  0  0  0
    7.5828   -3.0959    1.6346 H   0  0  0  0  0  0  0  0  0  0  0  0
    6.8959   -1.1607   -1.0928 H   0  0  0  0  0  0  0  0  0  0  0  0
    6.6146   -2.5957   -2.0870 H   0  0  0  0  0  0  0  0  0  0  0  0
    4.8560   -0.2957   -1.2740 H   0  0  0  0  0  0  0  0  0  0  0  0
  1  2  1  0
  1 24  1  0
  1 25  1  0
  1 26  1  0
  2 23  1  0
  2  3  1  0
  2 27  1  6
  3  4  1  0
  3  5  1  0
  3 28  1  1
  4 29  1  0
  5 18  1  0
  5  6  2  0
  6  7  1  0
  6 30  1  0
  7  8  2  0
  7 31  1  0
  8 20  1  0
  8  9  1  0
  9 16  1  0
  9 10  1  0
  9 32  1  6
 10 11  1  0
 10 12  1  0
 10 33  1  6
 11 34  1  0
 12 13  1  0
 12 35  1  0
 12 36  1  0
 13 14  1  0
 13 37  1  0
 13 38  1  0
 14 15  1  0
 14 16  1  0
 14 39  1  6
 15 40  1  0
 15 41  1  0
 15 42  1  0
 16 17  1  6
 16 18  1  0
 17 43  1  0
 17 44  1  0
 17 45  1  0
 18 23  1  0
 18 19  1  6
 19 20  1  0
 19 46  1  0
 19 47  1  0
 20 21  1  1
 20 22  1  0
 21 48  1  0
 21 49  1  0
 21 50  1  0
 22 23  1  0
 22 51  1  0
 22 52  1  0
 23 53  1  1
M  END
>  <i_m_ct_stereo_status>  (200) 
1

>  <s_m_source_file>  (200) 
/var/tmp/pbs.5076255.sched01/tmprae_yccg/80g5h6lheg.sdf

>  <i_m_source_file_index>  (200) 
12

>  <i_lp_mmshare_version>  (200) 
48012

>  <i_f3d_flags>  (200) 
0

>  <s_epik_input>  (200) 
W09IXVtDQEBIXTFbQ0BASF0oW0NIM10pW0NAQEhdMltDSDJdW0NAXShbQ0gyXTMpKFtDSDNdKUMoPVtDSF1bQ0hdPUMxQzIzNClbQ0BASF01W0NAQF00KFtDSDNdKVtDQEhdKFtDSDNdKVtDSDJdW0NIMl1bQ0BASF01W09IXQ==

>  <s_epik_cmdline>  (200) 
J2VwaWtfcHl0aG9uJywgJy1waHQnLCAnMi4wJywgJy1waCcsICc3LjAnLCAnLXRuJywgJzgnLCAnLW1hJywgJzIwMCcsICctaW1hZScsICc8aW5maWxlLm1hZT4nLCAnLW9tYWUnLCAnPG91dGZpbGUubWFlPic=

>  <r_lp_tautomer_probability>  (200) 
1

>  <r_epik_Ionization_Penalty>  (200) 
1.56732e-06

>  <r_epik_Ionization_Penalty_Charging>  (200) 
0

>  <r_epik_Ionization_Penalty_Neutral>  (200) 
1.56732e-06

>  <r_epik_State_Penalty>  (200) 
-0

>  <r_epik_Charging_Adjusted_Penalty>  (200) 
0

>  <i_epik_Tot_Q>  (200) 
0

>  <i_epik_Tot_abs_Q>  (200) 
0

>  <s_lp_Force_Field>  (200) 
OPLS3e

>  <r_lp_Energy>  (200) 
260.435

>  <b_lp_Chiralities_Consistent>  (200) 
1

>  <s_lp_Variant>  (200) 
66:0-1

>  <s_i_glide_gridfile>  (200) 
pfpi4k_grid

>  <i_i_glide_lignum>  (200) 
12

>  <i_i_glide_rotatable_bonds>  (200) 
2

>  <r_i_docking_score>  (200) 
-2.47313

>  <r_i_glide_ligand_efficiency>  (200) 
-0.107527

>  <r_i_glide_ligand_efficiency_sa>  (200) 
-0.305794

>  <r_i_glide_ligand_efficiency_ln>  (200) 
-0.598025

>  <r_i_glide_gscore>  (200) 
-2.47313

>  <r_i_glide_lipo>  (200) 
-0.370215

>  <r_i_glide_hbond>  (200) 
0

>  <r_i_glide_metal>  (200) 
-0

>  <r_i_glide_rewards>  (200) 
-1.26503

>  <r_i_glide_evdw>  (200) 
-8.08075

>  <r_i_glide_ecoul>  (200) 
-2.89229

>  <r_i_glide_erotb>  (200) 
0

>  <r_i_glide_esite>  (200) 
0

>  <r_i_glide_emodel>  (200) 
-11.771

>  <r_i_glide_energy>  (200) 
-10.973

>  <r_i_glide_einternal>  (200) 
0.528465

>  <r_i_glide_intrahb_reward>  (200) 
-0

>  <i_i_glide_confnum>  (200) 
1

>  <i_i_glide_posenum>  (200) 
39

>  <r_i_glide_eff_state_penalty>  (200) 
0

>  <ligand_id>  (200) 
66

>  <original_smiles>  (200) 
CC1C(O)C2=CC=C3C4C(O)CCC(C)C4(C)C24CC3(C)CC14

>  <smiles>  (200) 
[H]OC1([H])C2=C([H])C([H])=C3C4([H])C([H])(O[H])C([H])([H])C([H])([H])C([H])(C([H])([H])[H])C4(C([H])([H])[H])C24C([H])([H])C3(C([H])([H])[H])C([H])([H])C4([H])C1([H])C([H])([H])[H]

$$$$
67:0:0
     RDKit          3D

 71 78  0  0  1  0  0  0  0  0999 V2000
    0.1792   -9.5043    3.6587 C   0  0  0  0  0  0  0  0  0  0  0  0
    1.2180   -8.9797    2.6607 C   0  0  2  0  0  0  0  0  0  0  0  0
    2.6474   -9.3260    3.0884 C   0  0  0  0  0  0  0  0  0  0  0  0
    3.6705   -8.7356    2.1159 C   0  0  1  0  0  0  0  0  0  0  0  0
    3.6384   -9.4375    0.8771 O   0  0  0  0  0  0  0  0  0  0  0  0
    3.4051   -7.2044    1.9652 C   0  0  2  0  0  0  0  0  0  0  0  0
    4.1833   -6.7446    0.8811 O   0  0  0  0  0  0  0  0  0  0  0  0
    3.7875   -6.5793    3.1659 O   0  0  0  0  0  0  0  0  0  0  0  0
    3.5574   -5.1692    3.1830 C   0  0  2  0  0  0  0  0  0  0  0  0
    4.1133   -4.5192    4.4984 C   0  0  0  0  0  0  0  0  0  0  0  0
    3.0823   -3.5224    4.9982 C   0  0  1  0  0  0  0  0  0  0  0  0
    3.3259   -2.3558    5.8134 O   0  0  0  0  0  0  0  0  0  0  0  0
    2.1886   -1.7468    5.1061 C   0  0  1  0  0  0  0  0  0  0  0  0
    2.2824   -0.2103    5.0261 C   0  0  0  0  0  0  0  0  0  0  0  0
    1.3483    0.5690    5.9826 C   0  0  2  0  0  0  0  0  0  0  0  0
    0.0351   -0.0195    6.0476 O   0  0  0  0  0  0  0  0  0  0  0  0
   -0.9483    0.7359    5.3465 C   0  0  1  0  0  0  0  0  0  0  0  0
   -1.7799   -0.0174    4.4802 O   0  0  0  0  0  0  0  0  0  0  0  0
   -1.7585    1.6015    6.3409 C   0  0  0  0  0  0  0  0  0  0  0  0
   -2.5245    1.3481    7.2674 O   0  0  0  0  0  0  0  0  0  0  0  0
   -1.1723    2.9004    5.7260 C   0  0  1  0  0  0  0  0  0  0  0  0
   -0.3084    3.7390    6.6613 C   0  0  0  0  0  0  0  0  0  0  0  0
    1.0497    3.0511    6.6614 C   0  0  2  0  0  0  0  0  0  0  0  0
    2.0678    3.1877    5.5537 C   0  0  1  0  0  0  0  0  0  0  0  0
    3.5343    3.0240    5.8891 C   0  0  0  0  0  0  0  0  0  0  0  0
    1.1014    2.0147    5.5456 C   0  0  1  0  0  0  0  0  0  0  0  0
   -0.2466    2.0177    4.8677 C   0  0  1  0  0  0  0  0  0  0  0  0
   -0.1964    2.3256    3.3663 C   0  0  0  0  0  0  0  0  0  0  0  0
    2.5485   -2.6230    3.8935 C   0  0  1  0  0  0  0  0  0  0  0  0
    3.5812   -1.9645    2.9588 C   0  0  0  0  0  0  0  0  0  0  0  0
    1.5656   -3.4398    3.0532 C   0  0  0  0  0  0  0  0  0  0  0  0
    2.0245   -4.9359    2.9586 C   0  0  1  0  0  0  0  0  0  0  0  0
    1.6458   -5.5215    1.7168 O   0  0  0  0  0  0  0  0  0  0  0  0
    1.8947   -6.9053    1.6733 C   0  0  2  0  0  0  0  0  0  0  0  0
    1.0728   -7.5639    2.5947 O   0  0  0  0  0  0  0  0  0  0  0  0
    0.2427  -10.5875    3.7694 H   0  0  0  0  0  0  0  0  0  0  0  0
   -0.8360   -9.2640    3.3396 H   0  0  0  0  0  0  0  0  0  0  0  0
    0.3298   -9.0616    4.6406 H   0  0  0  0  0  0  0  0  0  0  0  0
    1.0099   -9.4158    1.6829 H   0  0  0  0  0  0  0  0  0  0  0  0
    2.8285   -8.9533    4.0921 H   0  0  0  0  0  0  0  0  0  0  0  0
    2.7702  -10.4070    3.1329 H   0  0  0  0  0  0  0  0  0  0  0  0
    4.6676   -8.8461    2.5397 H   0  0  0  0  0  0  0  0  0  0  0  0
    3.8122  -10.3769    1.0049 H   0  0  0  0  0  0  0  0  0  0  0  0
    5.0558   -7.0870    0.9900 H   0  0  0  0  0  0  0  0  0  0  0  0
    4.1011   -4.7283    2.3469 H   0  0  0  0  0  0  0  0  0  0  0  0
    4.3262   -5.2730    5.2548 H   0  0  0  0  0  0  0  0  0  0  0  0
    5.0544   -4.0180    4.2787 H   0  0  0  0  0  0  0  0  0  0  0  0
    2.2632   -4.0849    5.4573 H   0  0  0  0  0  0  0  0  0  0  0  0
    1.2342   -2.0833    5.5153 H   0  0  0  0  0  0  0  0  0  0  0  0
    3.3111    0.0949    5.2230 H   0  0  0  0  0  0  0  0  0  0  0  0
    2.0899    0.1201    4.0085 H   0  0  0  0  0  0  0  0  0  0  0  0
    1.7893    0.5614    6.9794 H   0  0  0  0  0  0  0  0  0  0  0  0
   -2.2926    0.5964    3.9678 H   0  0  0  0  0  0  0  0  0  0  0  0
   -1.9227    3.4483    5.1558 H   0  0  0  0  0  0  0  0  0  0  0  0
   -0.1946    4.7544    6.2784 H   0  0  0  0  0  0  0  0  0  0  0  0
   -0.7056    3.8138    7.6751 H   0  0  0  0  0  0  0  0  0  0  0  0
    1.3985    2.7454    7.6450 H   0  0  0  0  0  0  0  0  0  0  0  0
    1.8925    3.9908    4.8318 H   0  0  0  0  0  0  0  0  0  0  0  0
    3.6901    2.2284    6.6178 H   0  0  0  0  0  0  0  0  0  0  0  0
    3.9355    3.9479    6.3084 H   0  0  0  0  0  0  0  0  0  0  0  0
    4.0957    2.7853    4.9880 H   0  0  0  0  0  0  0  0  0  0  0  0
    0.2062    3.3199    3.1757 H   0  0  0  0  0  0  0  0  0  0  0  0
   -1.2003    2.3152    2.9373 H   0  0  0  0  0  0  0  0  0  0  0  0
    0.4011    1.6040    2.8087 H   0  0  0  0  0  0  0  0  0  0  0  0
    3.1589   -1.1043    2.4381 H   0  0  0  0  0  0  0  0  0  0  0  0
    3.9532   -2.6352    2.1857 H   0  0  0  0  0  0  0  0  0  0  0  0
    4.4481   -1.6149    3.5284 H   0  0  0  0  0  0  0  0  0  0  0  0
    0.5717   -3.4093    3.4915 H   0  0  0  0  0  0  0  0  0  0  0  0
    1.4721   -2.9930    2.0671 H   0  0  0  0  0  0  0  0  0  0  0  0
    1.4969   -5.4663    3.7544 H   0  0  0  0  0  0  0  0  0  0  0  0
    1.6091   -7.2551    0.6825 H   0  0  0  0  0  0  0  0  0  0  0  0
  1  2  1  0
  1 36  1  0
  1 37  1  0
  1 38  1  0
  2 35  1  0
  2  3  1  0
  2 39  1  6
  3  4  1  0
  3 40  1  0
  3 41  1  0
  4  5  1  0
  4  6  1  0
  4 42  1  1
  5 43  1  0
  6 34  1  0
  6  7  1  6
  6  8  1  0
  7 44  1  0
  8  9  1  0
  9 32  1  0
  9 10  1  0
  9 45  1  6
 10 11  1  0
 10 46  1  0
 10 47  1  0
 11 29  1  0
 11 12  1  0
 11 48  1  1
 12 13  1  0
 13 14  1  0
 13 29  1  0
 13 49  1  1
 14 15  1  0
 14 50  1  0
 14 51  1  0
 15 26  1  0
 15 16  1  0
 15 52  1  1
 16 17  1  0
 17 27  1  0
 17 18  1  6
 17 19  1  0
 18 53  1  0
 19 20  2  0
 19 21  1  0
 21 27  1  0
 21 22  1  0
 21 54  1  6
 22 23  1  0
 22 55  1  0
 22 56  1  0
 23 26  1  0
 23 24  1  0
 23 57  1  1
 24 25  1  0
 24 26  1  0
 24 58  1  6
 25 59  1  0
 25 60  1  0
 25 61  1  0
 26 27  1  6
 27 28  1  6
 28 62  1  0
 28 63  1  0
 28 64  1  0
 29 30  1  6
 29 31  1  0
 30 65  1  0
 30 66  1  0
 30 67  1  0
 31 32  1  0
 31 68  1  0
 31 69  1  0
 32 33  1  0
 32 70  1  1
 33 34  1  0
 34 35  1  0
 34 71  1  6
M  END
>  <i_m_ct_stereo_status>  (201) 
1

>  <s_m_source_file>  (201) 
/var/tmp/pbs.5076255.sched01/tmprae_yccg/80g5h6lheg.sdf

>  <i_m_source_file_index>  (201) 
13

>  <i_lp_mmshare_version>  (201) 
48012

>  <i_f3d_flags>  (201) 
0

>  <s_epik_input>  (201) 
W09IXVtDQEBIXTFbQ0gyXVtDQEBIXShbQ0gzXSlPW0NASF0oW0NAXTEyW09IXSlPW0NASF0zW0NASF0oTzIpW0NIMl1bQ0BASF00W0NAQF0oW0NIM10pKFtDSDJdMylbQ0BASF0oTzQpW0NIMl1bQ0BASF01T1tDQEBdKFtPSF0pKEM2PU8pW0NAQF03KFtDSDNdKVtDQEhdNltDSDJdW0NAQEhdKFtDQEBdNTc4KVtDQEhdOFtDSDNd

>  <s_epik_cmdline>  (201) 
J2VwaWtfcHl0aG9uJywgJy1waHQnLCAnMi4wJywgJy1waCcsICc3LjAnLCAnLXRuJywgJzgnLCAnLW1hJywgJzIwMCcsICctaW1hZScsICc8aW5maWxlLm1hZT4nLCAnLW9tYWUnLCAnPG91dGZpbGUubWFlPic=

>  <r_lp_tautomer_probability>  (201) 
1

>  <r_epik_Ionization_Penalty>  (201) 
5.04863e-05

>  <r_epik_Ionization_Penalty_Charging>  (201) 
0

>  <r_epik_Ionization_Penalty_Neutral>  (201) 
5.04863e-05

>  <r_epik_State_Penalty>  (201) 
-0

>  <r_epik_Charging_Adjusted_Penalty>  (201) 
0

>  <i_epik_Tot_Q>  (201) 
0

>  <i_epik_Tot_abs_Q>  (201) 
0

>  <s_epik_Chemistry_Notes>  (201) 
This compound contains an acetal/aminal-like group ( X-CH(R)-Y where X, Y are N, S, or O) that may be acid/base labile, releasing an aldehyde.

>  <s_lp_Force_Field>  (201) 
OPLS3e

>  <r_lp_Energy>  (201) 
63.0906

>  <b_lp_Chiralities_Consistent>  (201) 
1

>  <s_lp_Variant>  (201) 
67:0-1

>  <s_i_glide_gridfile>  (201) 
pfpi4k_grid

>  <i_i_glide_lignum>  (201) 
13

>  <i_i_glide_rotatable_bonds>  (201) 
5

>  <r_i_docking_score>  (201) 
-2.76152

>  <r_i_glide_ligand_efficiency>  (201) 
-0.0789006

>  <r_i_glide_ligand_efficiency_sa>  (201) 
-0.258089

>  <r_i_glide_ligand_efficiency_ln>  (201) 
-0.606215

>  <r_i_glide_gscore>  (201) 
-2.76152

>  <r_i_glide_lipo>  (201) 
-0.0223004

>  <r_i_glide_hbond>  (201) 
-0.225047

>  <r_i_glide_metal>  (201) 
-0

>  <r_i_glide_rewards>  (201) 
-0.0926942

>  <r_i_glide_evdw>  (201) 
-21.1

>  <r_i_glide_ecoul>  (201) 
-9.70995

>  <r_i_glide_erotb>  (201) 
0.167883

>  <r_i_glide_esite>  (201) 
-0.0778689

>  <r_i_glide_emodel>  (201) 
-32.1764

>  <r_i_glide_energy>  (201) 
-30.81

>  <r_i_glide_einternal>  (201) 
8.02735

>  <r_i_glide_intrahb_reward>  (201) 
-0

>  <i_i_glide_confnum>  (201) 
3

>  <i_i_glide_posenum>  (201) 
33

>  <r_i_glide_eff_state_penalty>  (201) 
0

>  <ligand_id>  (201) 
67

>  <original_smiles>  (201) 
CC1CC(O)C2(O)OC3CC4OC(CC5OC6(O)C(=O)C7CC8C(C)C58C76C)C4(C)CC3OC2O1

>  <smiles>  (201) 
[H]OC12OC([H])(C([H])([H])C3([H])OC4([H])C([H])([H])C5([H])OC6(O[H])C([H])(OC([H])(C([H])([H])[H])C([H])([H])C6([H])O[H])OC5([H])C([H])([H])C43C([H])([H])[H])C34C([H])(C([H])([H])[H])C3([H])C([H])([H])C([H])(C1=O)C24C([H])([H])[H]

$$$$
67:0:1
     RDKit          3D

 71 78  0  0  1  0  0  0  0  0999 V2000
   -1.2035    2.5185    2.8679 C   0  0  0  0  0  0  0  0  0  0  0  0
   -1.1909    1.9259    4.2801 C   0  0  2  0  0  0  0  0  0  0  0  0
   -0.0388    2.4936    5.1176 C   0  0  0  0  0  0  0  0  0  0  0  0
    0.0151    1.8259    6.4945 C   0  0  1  0  0  0  0  0  0  0  0  0
   -1.0728    2.2729    7.2882 O   0  0  0  0  0  0  0  0  0  0  0  0
    0.0576    0.2852    6.3274 C   0  0  2  0  0  0  0  0  0  0  0  0
   -0.1738   -0.2833    7.6039 O   0  0  0  0  0  0  0  0  0  0  0  0
    1.3303   -0.0538    5.8399 O   0  0  0  0  0  0  0  0  0  0  0  0
    1.5086   -1.4440    5.5773 C   0  0  2  0  0  0  0  0  0  0  0  0
    2.9775   -1.7651    5.1303 C   0  0  0  0  0  0  0  0  0  0  0  0
    2.9141   -2.7522    3.9763 C   0  0  1  0  0  0  0  0  0  0  0  0
    3.9239   -3.7161    3.6097 O   0  0  0  0  0  0  0  0  0  0  0  0
    2.8136   -4.5708    3.1675 C   0  0  1  0  0  0  0  0  0  0  0  0
    3.1710   -6.0643    3.2537 C   0  0  0  0  0  0  0  0  0  0  0  0
    2.0951   -7.0160    2.6738 C   0  0  2  0  0  0  0  0  0  0  0  0
    0.7582   -6.6650    3.0989 O   0  0  0  0  0  0  0  0  0  0  0  0
    0.2341   -7.5928    4.0514 C   0  0  1  0  0  0  0  0  0  0  0  0
   -0.3775   -7.0327    5.2015 O   0  0  0  0  0  0  0  0  0  0  0  0
   -0.6989   -8.6047    3.3565 C   0  0  0  0  0  0  0  0  0  0  0  0
   -1.7826   -8.5091    2.7844 O   0  0  0  0  0  0  0  0  0  0  0  0
    0.2819   -9.7633    3.6875 C   0  0  1  0  0  0  0  0  0  0  0  0
    0.8931  -10.4598    2.4803 C   0  0  0  0  0  0  0  0  0  0  0  0
    2.0117   -9.5342    2.0287 C   0  0  2  0  0  0  0  0  0  0  0  0
    3.3708   -9.4449    2.6741 C   0  0  1  0  0  0  0  0  0  0  0  0
    4.5628   -9.0200    1.8433 C   0  0  0  0  0  0  0  0  0  0  0  0
    2.2803   -8.4743    3.0917 C   0  0  1  0  0  0  0  0  0  0  0  0
    1.2825   -8.7067    4.1937 C   0  0  1  0  0  0  0  0  0  0  0  0
    1.9228   -8.9733    5.5604 C   0  0  0  0  0  0  0  0  0  0  0  0
    1.9458   -3.8907    4.2407 C   0  0  1  0  0  0  0  0  0  0  0  0
    2.0523   -4.5833    5.6085 C   0  0  0  0  0  0  0  0  0  0  0  0
    0.5297   -3.3588    4.0585 C   0  0  0  0  0  0  0  0  0  0  0  0
    0.4230   -1.8726    4.5365 C   0  0  1  0  0  0  0  0  0  0  0  0
   -0.8658   -1.5865    5.0720 O   0  0  0  0  0  0  0  0  0  0  0  0
   -1.0439   -0.2175    5.3369 C   0  0  2  0  0  0  0  0  0  0  0  0
   -1.0091    0.5236    4.1469 O   0  0  0  0  0  0  0  0  0  0  0  0
   -1.3082    3.6026    2.8859 H   0  0  0  0  0  0  0  0  0  0  0  0
   -2.0249    2.1112    2.2787 H   0  0  0  0  0  0  0  0  0  0  0  0
   -0.2786    2.2915    2.3368 H   0  0  0  0  0  0  0  0  0  0  0  0
   -2.1505    2.1256    4.7594 H   0  0  0  0  0  0  0  0  0  0  0  0
    0.9090    2.3398    4.6037 H   0  0  0  0  0  0  0  0  0  0  0  0
   -0.1533    3.5697    5.2318 H   0  0  0  0  0  0  0  0  0  0  0  0
    0.9317    2.1226    7.0034 H   0  0  0  0  0  0  0  0  0  0  0  0
   -0.9286    3.1833    7.4939 H   0  0  0  0  0  0  0  0  0  0  0  0
    0.4455    0.1119    8.2012 H   0  0  0  0  0  0  0  0  0  0  0  0
    1.3203   -1.9773    6.5085 H   0  0  0  0  0  0  0  0  0  0  0  0
    3.5148   -0.8614    4.8471 H   0  0  0  0  0  0  0  0  0  0  0  0
    3.5153   -2.1964    5.9729 H   0  0  0  0  0  0  0  0  0  0  0  0
    2.6202   -2.2078    3.0726 H   0  0  0  0  0  0  0  0  0  0  0  0
    2.4894   -4.2883    2.1623 H   0  0  0  0  0  0  0  0  0  0  0  0
    4.1045   -6.2374    2.7171 H   0  0  0  0  0  0  0  0  0  0  0  0
    3.4121   -6.3576    4.2738 H   0  0  0  0  0  0  0  0  0  0  0  0
    2.1327   -6.9498    1.5890 H   0  0  0  0  0  0  0  0  0  0  0  0
   -0.5520   -7.7651    5.7757 H   0  0  0  0  0  0  0  0  0  0  0  0
   -0.0959  -10.4245    4.4639 H   0  0  0  0  0  0  0  0  0  0  0  0
    1.3258  -11.4205    2.7701 H   0  0  0  0  0  0  0  0  0  0  0  0
    0.1778  -10.6381    1.6798 H   0  0  0  0  0  0  0  0  0  0  0  0
    1.9269   -9.1922    1.0006 H   0  0  0  0  0  0  0  0  0  0  0  0
    3.6141  -10.2547    3.3655 H   0  0  0  0  0  0  0  0  0  0  0  0
    4.2970   -8.2260    1.1439 H   0  0  0  0  0  0  0  0  0  0  0  0
    4.9409   -9.8648    1.2664 H   0  0  0  0  0  0  0  0  0  0  0  0
    5.3590   -8.6640    2.4945 H   0  0  0  0  0  0  0  0  0  0  0  0
    2.5333   -9.8733    5.5381 H   0  0  0  0  0  0  0  0  0  0  0  0
    1.1565   -9.1496    6.3155 H   0  0  0  0  0  0  0  0  0  0  0  0
    2.5427   -8.1449    5.9041 H   0  0  0  0  0  0  0  0  0  0  0  0
    1.6269   -5.5809    5.5783 H   0  0  0  0  0  0  0  0  0  0  0  0
    1.5450   -4.0542    6.4111 H   0  0  0  0  0  0  0  0  0  0  0  0
    3.0970   -4.6977    5.9026 H   0  0  0  0  0  0  0  0  0  0  0  0
    0.2683   -3.3771    3.0063 H   0  0  0  0  0  0  0  0  0  0  0  0
   -0.1835   -4.0023    4.5716 H   0  0  0  0  0  0  0  0  0  0  0  0
    0.5672   -1.2577    3.6443 H   0  0  0  0  0  0  0  0  0  0  0  0
   -2.0384   -0.0856    5.7651 H   0  0  0  0  0  0  0  0  0  0  0  0
  1  2  1  0
  1 36  1  0
  1 37  1  0
  1 38  1  0
  2 35  1  0
  2  3  1  0
  2 39  1  1
  3  4  1  0
  3 40  1  0
  3 41  1  0
  4  5  1  0
  4  6  1  0
  4 42  1  1
  5 43  1  0
  6 34  1  0
  6  7  1  1
  6  8  1  0
  7 44  1  0
  8  9  1  0
  9 32  1  0
  9 10  1  0
  9 45  1  1
 10 11  1  0
 10 46  1  0
 10 47  1  0
 11 29  1  0
 11 12  1  0
 11 48  1  6
 12 13  1  0
 13 14  1  0
 13 29  1  0
 13 49  1  6
 14 15  1  0
 14 50  1  0
 14 51  1  0
 15 26  1  0
 15 16  1  0
 15 52  1  6
 16 17  1  0
 17 27  1  0
 17 18  1  1
 17 19  1  0
 18 53  1  0
 19 20  2  0
 19 21  1  0
 21 27  1  0
 21 22  1  0
 21 54  1  1
 22 23  1  0
 22 55  1  0
 22 56  1  0
 23 26  1  0
 23 24  1  0
 23 57  1  6
 24 25  1  0
 24 26  1  0
 24 58  1  1
 25 59  1  0
 25 60  1  0
 25 61  1  0
 26 27  1  1
 27 28  1  1
 28 62  1  0
 28 63  1  0
 28 64  1  0
 29 30  1  1
 29 31  1  0
 30 65  1  0
 30 66  1  0
 30 67  1  0
 31 32  1  0
 31 68  1  0
 31 69  1  0
 32 33  1  0
 32 70  1  6
 33 34  1  0
 34 35  1  0
 34 71  1  1
M  END
>  <i_m_ct_stereo_status>  (202) 
1

>  <s_m_source_file>  (202) 
/var/tmp/pbs.5076255.sched01/tmprae_yccg/80g5h6lheg.sdf

>  <i_m_source_file_index>  (202) 
13

>  <i_lp_mmshare_version>  (202) 
48012

>  <i_f3d_flags>  (202) 
0

>  <s_epik_input>  (202) 
W09IXVtDQEBIXTFbQ0gyXVtDQEBIXShbQ0gzXSlPW0NASF0oW0NAXTEyW09IXSlPW0NASF0zW0NASF0oTzIpW0NIMl1bQ0BASF00W0NAQF0oW0NIM10pKFtDSDJdMylbQ0BASF0oTzQpW0NIMl1bQ0BASF01T1tDQEBdKFtPSF0pKEM2PU8pW0NAQF03KFtDSDNdKVtDQEhdNltDSDJdW0NAQEhdKFtDQEBdNTc4KVtDQEhdOFtDSDNd

>  <s_epik_cmdline>  (202) 
J2VwaWtfcHl0aG9uJywgJy1waHQnLCAnMi4wJywgJy1waCcsICc3LjAnLCAnLXRuJywgJzgnLCAnLW1hJywgJzIwMCcsICctaW1hZScsICc8aW5maWxlLm1hZT4nLCAnLW9tYWUnLCAnPG91dGZpbGUubWFlPic=

>  <r_lp_tautomer_probability>  (202) 
1

>  <r_epik_Ionization_Penalty>  (202) 
5.04863e-05

>  <r_epik_Ionization_Penalty_Charging>  (202) 
0

>  <r_epik_Ionization_Penalty_Neutral>  (202) 
5.04863e-05

>  <r_epik_State_Penalty>  (202) 
-0

>  <r_epik_Charging_Adjusted_Penalty>  (202) 
0

>  <i_epik_Tot_Q>  (202) 
0

>  <i_epik_Tot_abs_Q>  (202) 
0

>  <s_epik_Chemistry_Notes>  (202) 
This compound contains an acetal/aminal-like group ( X-CH(R)-Y where X, Y are N, S, or O) that may be acid/base labile, releasing an aldehyde.

>  <s_lp_Force_Field>  (202) 
OPLS3e

>  <r_lp_Energy>  (202) 
63.0906

>  <b_lp_Chiralities_Consistent>  (202) 
1

>  <s_lp_Variant>  (202) 
67:0-1

>  <s_i_glide_gridfile>  (202) 
pfpi4k_grid

>  <i_i_glide_lignum>  (202) 
13

>  <i_i_glide_rotatable_bonds>  (202) 
5

>  <r_i_docking_score>  (202) 
-2.17603

>  <r_i_glide_ligand_efficiency>  (202) 
-0.0621723

>  <r_i_glide_ligand_efficiency_sa>  (202) 
-0.20337

>  <r_i_glide_ligand_efficiency_ln>  (202) 
-0.477687

>  <r_i_glide_gscore>  (202) 
-2.17603

>  <r_i_glide_lipo>  (202) 
-0.311231

>  <r_i_glide_hbond>  (202) 
0

>  <r_i_glide_metal>  (202) 
-0

>  <r_i_glide_rewards>  (202) 
-0.0507365

>  <r_i_glide_evdw>  (202) 
-25.32

>  <r_i_glide_ecoul>  (202) 
-3.84819

>  <r_i_glide_erotb>  (202) 
0.167883

>  <r_i_glide_esite>  (202) 
-0.13872

>  <r_i_glide_emodel>  (202) 
-30.4197

>  <r_i_glide_energy>  (202) 
-29.1681

>  <r_i_glide_einternal>  (202) 
6.34685

>  <r_i_glide_intrahb_reward>  (202) 
-0

>  <i_i_glide_confnum>  (202) 
3

>  <i_i_glide_posenum>  (202) 
3

>  <r_i_glide_eff_state_penalty>  (202) 
0

>  <ligand_id>  (202) 
67

>  <original_smiles>  (202) 
CC1CC(O)C2(O)OC3CC4OC(CC5OC6(O)C(=O)C7CC8C(C)C58C76C)C4(C)CC3OC2O1

>  <smiles>  (202) 
[H]OC12OC([H])(C([H])([H])C3([H])OC4([H])C([H])([H])C5([H])OC6(O[H])C([H])(OC([H])(C([H])([H])[H])C([H])([H])C6([H])O[H])OC5([H])C([H])([H])C43C([H])([H])[H])C34C([H])(C([H])([H])[H])C3([H])C([H])([H])C([H])(C1=O)C24C([H])([H])[H]

$$$$
67:0:2
     RDKit          3D

 71 78  0  0  1  0  0  0  0  0999 V2000
    0.8177   -9.9247    3.7494 C   0  0  0  0  0  0  0  0  0  0  0  0
    1.6508   -9.2686    2.6446 C   0  0  2  0  0  0  0  0  0  0  0  0
    3.1466   -9.5531    2.8154 C   0  0  0  0  0  0  0  0  0  0  0  0
    3.9744   -8.8270    1.7523 C   0  0  1  0  0  0  0  0  0  0  0  0
    3.7957   -9.4465    0.4893 O   0  0  0  0  0  0  0  0  0  0  0  0
    3.6059   -7.3111    1.7606 C   0  0  2  0  0  0  0  0  0  0  0  0
    4.1752   -6.7223    0.6018 O   0  0  0  0  0  0  0  0  0  0  0  0
    4.1362   -6.7468    2.9362 O   0  0  0  0  0  0  0  0  0  0  0  0
    3.8450   -5.3596    3.1070 C   0  0  2  0  0  0  0  0  0  0  0  0
    4.5676   -4.7694    4.3663 C   0  0  0  0  0  0  0  0  0  0  0  0
    3.5763   -3.8772    5.0934 C   0  0  1  0  0  0  0  0  0  0  0  0
    3.8951   -2.7503    5.9331 O   0  0  0  0  0  0  0  0  0  0  0  0
    2.6364   -2.1588    5.4632 C   0  0  1  0  0  0  0  0  0  0  0  0
    2.6918   -0.6156    5.5023 C   0  0  0  0  0  0  0  0  0  0  0  0
    1.3508    0.0751    5.1567 C   0  0  2  0  0  0  0  0  0  0  0  0
    0.9289   -0.2037    3.8075 O   0  0  0  0  0  0  0  0  0  0  0  0
    1.0632    0.9403    2.9489 C   0  0  1  0  0  0  0  0  0  0  0  0
    1.6864    0.7343    1.6871 O   0  0  0  0  0  0  0  0  0  0  0  0
   -0.2932    1.6654    2.8026 C   0  0  0  0  0  0  0  0  0  0  0  0
   -1.3712    1.3384    2.3082 O   0  0  0  0  0  0  0  0  0  0  0  0
    0.2408    2.9086    3.5630 C   0  0  1  0  0  0  0  0  0  0  0  0
   -0.4540    3.2290    4.8785 C   0  0  0  0  0  0  0  0  0  0  0  0
    0.1584    2.2602    5.8749 C   0  0  2  0  0  0  0  0  0  0  0  0
    1.5102    2.4442    6.5206 C   0  0  1  0  0  0  0  0  0  0  0  0
    1.7547    1.8427    7.8892 C   0  0  0  0  0  0  0  0  0  0  0  0
    1.3904    1.5955    5.2673 C   0  0  1  0  0  0  0  0  0  0  0  0
    1.5174    2.1024    3.8561 C   0  0  1  0  0  0  0  0  0  0  0  0
    2.8536    2.7890    3.5680 C   0  0  0  0  0  0  0  0  0  0  0  0
    2.8238   -2.9448    4.1567 C   0  0  1  0  0  0  0  0  0  0  0  0
    3.6650   -2.1742    3.1256 C   0  0  0  0  0  0  0  0  0  0  0  0
    1.7573   -3.7621    3.4242 C   0  0  0  0  0  0  0  0  0  0  0  0
    2.2853   -5.2100    3.1366 C   0  0  1  0  0  0  0  0  0  0  0  0
    1.7585   -5.7280    1.9154 O   0  0  0  0  0  0  0  0  0  0  0  0
    2.0548   -7.0915    1.7374 C   0  0  2  0  0  0  0  0  0  0  0  0
    1.4313   -7.8652    2.7255 O   0  0  0  0  0  0  0  0  0  0  0  0
    0.9527  -11.0072    3.7629 H   0  0  0  0  0  0  0  0  0  0  0  0
   -0.2488   -9.7271    3.6197 H   0  0  0  0  0  0  0  0  0  0  0  0
    1.1028   -9.5453    4.7312 H   0  0  0  0  0  0  0  0  0  0  0  0
    1.2998   -9.6394    1.6835 H   0  0  0  0  0  0  0  0  0  0  0  0
    3.4714   -9.2421    3.8050 H   0  0  0  0  0  0  0  0  0  0  0  0
    3.3323  -10.6238    2.7470 H   0  0  0  0  0  0  0  0  0  0  0  0
    5.0336   -8.8993    1.9974 H   0  0  0  0  0  0  0  0  0  0  0  0
    4.0052  -10.3898    0.5393 H   0  0  0  0  0  0  0  0  0  0  0  0
    3.7639   -5.8816    0.4676 H   0  0  0  0  0  0  0  0  0  0  0  0
    4.2301   -4.8291    2.2352 H   0  0  0  0  0  0  0  0  0  0  0  0
    4.9442   -5.5606    5.0142 H   0  0  0  0  0  0  0  0  0  0  0  0
    5.4362   -4.1985    4.0404 H   0  0  0  0  0  0  0  0  0  0  0  0
    2.8759   -4.5174    5.6341 H   0  0  0  0  0  0  0  0  0  0  0  0
    1.7945   -2.5504    6.0336 H   0  0  0  0  0  0  0  0  0  0  0  0
    2.9933   -0.3148    6.5033 H   0  0  0  0  0  0  0  0  0  0  0  0
    3.4784   -0.2202    4.8658 H   0  0  0  0  0  0  0  0  0  0  0  0
    0.5883   -0.3046    5.8324 H   0  0  0  0  0  0  0  0  0  0  0  0
    1.0606    0.2722    1.1385 H   0  0  0  0  0  0  0  0  0  0  0  0
    0.4071    3.7625    2.9023 H   0  0  0  0  0  0  0  0  0  0  0  0
   -0.2335    4.2477    5.1942 H   0  0  0  0  0  0  0  0  0  0  0  0
   -1.5391    3.1184    4.8366 H   0  0  0  0  0  0  0  0  0  0  0  0
   -0.5586    1.6219    6.3771 H   0  0  0  0  0  0  0  0  0  0  0  0
    1.9650    3.4279    6.4074 H   0  0  0  0  0  0  0  0  0  0  0  0
    1.2833    0.8660    7.9835 H   0  0  0  0  0  0  0  0  0  0  0  0
    1.3488    2.4940    8.6642 H   0  0  0  0  0  0  0  0  0  0  0  0
    2.8246    1.7346    8.0574 H   0  0  0  0  0  0  0  0  0  0  0  0
    2.9952    3.6726    4.1918 H   0  0  0  0  0  0  0  0  0  0  0  0
    2.8858    3.1379    2.5326 H   0  0  0  0  0  0  0  0  0  0  0  0
    3.7071    2.1240    3.7101 H   0  0  0  0  0  0  0  0  0  0  0  0
    3.1357   -1.2938    2.7596 H   0  0  0  0  0  0  0  0  0  0  0  0
    3.9406   -2.7587    2.2494 H   0  0  0  0  0  0  0  0  0  0  0  0
    4.5998   -1.8247    3.5772 H   0  0  0  0  0  0  0  0  0  0  0  0
    0.8557   -3.8386    4.0289 H   0  0  0  0  0  0  0  0  0  0  0  0
    1.4620   -3.2558    2.5047 H   0  0  0  0  0  0  0  0  0  0  0  0
    1.9209   -5.8325    3.9570 H   0  0  0  0  0  0  0  0  0  0  0  0
    1.6279   -7.3994    0.7852 H   0  0  0  0  0  0  0  0  0  0  0  0
  1  2  1  0
  1 36  1  0
  1 37  1  0
  1 38  1  0
  2 35  1  0
  2  3  1  0
  2 39  1  6
  3  4  1  0
  3 40  1  0
  3 41  1  0
  4  5  1  0
  4  6  1  0
  4 42  1  1
  5 43  1  0
  6 34  1  0
  6  7  1  6
  6  8  1  0
  7 44  1  0
  8  9  1  0
  9 32  1  0
  9 10  1  0
  9 45  1  6
 10 11  1  0
 10 46  1  0
 10 47  1  0
 11 29  1  0
 11 12  1  0
 11 48  1  1
 12 13  1  0
 13 14  1  0
 13 29  1  0
 13 49  1  1
 14 15  1  0
 14 50  1  0
 14 51  1  0
 15 26  1  0
 15 16  1  0
 15 52  1  1
 16 17  1  0
 17 27  1  0
 17 18  1  6
 17 19  1  0
 18 53  1  0
 19 20  2  0
 19 21  1  0
 21 27  1  0
 21 22  1  0
 21 54  1  6
 22 23  1  0
 22 55  1  0
 22 56  1  0
 23 26  1  0
 23 24  1  0
 23 57  1  1
 24 25  1  0
 24 26  1  0
 24 58  1  6
 25 59  1  0
 25 60  1  0
 25 61  1  0
 26 27  1  6
 27 28  1  6
 28 62  1  0
 28 63  1  0
 28 64  1  0
 29 30  1  6
 29 31  1  0
 30 65  1  0
 30 66  1  0
 30 67  1  0
 31 32  1  0
 31 68  1  0
 31 69  1  0
 32 33  1  0
 32 70  1  1
 33 34  1  0
 34 35  1  0
 34 71  1  6
M  END
>  <i_m_ct_stereo_status>  (203) 
1

>  <s_m_source_file>  (203) 
/var/tmp/pbs.5076255.sched01/tmprae_yccg/80g5h6lheg.sdf

>  <i_m_source_file_index>  (203) 
13

>  <i_lp_mmshare_version>  (203) 
48012

>  <i_f3d_flags>  (203) 
0

>  <s_epik_input>  (203) 
W09IXVtDQEBIXTFbQ0gyXVtDQEBIXShbQ0gzXSlPW0NASF0oW0NAXTEyW09IXSlPW0NASF0zW0NASF0oTzIpW0NIMl1bQ0BASF00W0NAQF0oW0NIM10pKFtDSDJdMylbQ0BASF0oTzQpW0NIMl1bQ0BASF01T1tDQEBdKFtPSF0pKEM2PU8pW0NAQF03KFtDSDNdKVtDQEhdNltDSDJdW0NAQEhdKFtDQEBdNTc4KVtDQEhdOFtDSDNd

>  <s_epik_cmdline>  (203) 
J2VwaWtfcHl0aG9uJywgJy1waHQnLCAnMi4wJywgJy1waCcsICc3LjAnLCAnLXRuJywgJzgnLCAnLW1hJywgJzIwMCcsICctaW1hZScsICc8aW5maWxlLm1hZT4nLCAnLW9tYWUnLCAnPG91dGZpbGUubWFlPic=

>  <r_lp_tautomer_probability>  (203) 
1

>  <r_epik_Ionization_Penalty>  (203) 
5.04863e-05

>  <r_epik_Ionization_Penalty_Charging>  (203) 
0

>  <r_epik_Ionization_Penalty_Neutral>  (203) 
5.04863e-05

>  <r_epik_State_Penalty>  (203) 
-0

>  <r_epik_Charging_Adjusted_Penalty>  (203) 
0

>  <i_epik_Tot_Q>  (203) 
0

>  <i_epik_Tot_abs_Q>  (203) 
0

>  <s_epik_Chemistry_Notes>  (203) 
This compound contains an acetal/aminal-like group ( X-CH(R)-Y where X, Y are N, S, or O) that may be acid/base labile, releasing an aldehyde.

>  <s_lp_Force_Field>  (203) 
OPLS3e

>  <r_lp_Energy>  (203) 
63.0906

>  <b_lp_Chiralities_Consistent>  (203) 
1

>  <s_lp_Variant>  (203) 
67:0-1

>  <s_i_glide_gridfile>  (203) 
pfpi4k_grid

>  <i_i_glide_lignum>  (203) 
13

>  <i_i_glide_rotatable_bonds>  (203) 
5

>  <r_i_docking_score>  (203) 
-2.13678

>  <r_i_glide_ligand_efficiency>  (203) 
-0.0610508

>  <r_i_glide_ligand_efficiency_sa>  (203) 
-0.199701

>  <r_i_glide_ligand_efficiency_ln>  (203) 
-0.469071

>  <r_i_glide_gscore>  (203) 
-2.13678

>  <r_i_glide_lipo>  (203) 
-0.0457511

>  <r_i_glide_hbond>  (203) 
-0.000888396

>  <r_i_glide_metal>  (203) 
-0

>  <r_i_glide_rewards>  (203) 
-0.117379

>  <r_i_glide_evdw>  (203) 
-21.8679

>  <r_i_glide_ecoul>  (203) 
-6.32586

>  <r_i_glide_erotb>  (203) 
0.167883

>  <r_i_glide_esite>  (203) 
-0.0983711

>  <r_i_glide_emodel>  (203) 
-30.0374

>  <r_i_glide_energy>  (203) 
-28.1937

>  <r_i_glide_einternal>  (203) 
4.79848

>  <r_i_glide_intrahb_reward>  (203) 
-0

>  <i_i_glide_confnum>  (203) 
3

>  <i_i_glide_posenum>  (203) 
12

>  <r_i_glide_eff_state_penalty>  (203) 
0

>  <ligand_id>  (203) 
67

>  <original_smiles>  (203) 
CC1CC(O)C2(O)OC3CC4OC(CC5OC6(O)C(=O)C7CC8C(C)C58C76C)C4(C)CC3OC2O1

>  <smiles>  (203) 
[H]OC12OC([H])(C([H])([H])C3([H])OC4([H])C([H])([H])C5([H])OC6(O[H])C([H])(OC([H])(C([H])([H])[H])C([H])([H])C6([H])O[H])OC5([H])C([H])([H])C43C([H])([H])[H])C34C([H])(C([H])([H])[H])C3([H])C([H])([H])C([H])(C1=O)C24C([H])([H])[H]

$$$$
68:0:0
     RDKit          3D

 53 57  0  0  1  0  0  0  0  0999 V2000
    2.5882   -3.1897   -3.7426 C   0  0  0  0  0  0  0  0  0  0  0  0
    3.3792   -2.5126   -2.8912 C   0  0  0  0  0  0  0  0  0  0  0  0
    3.6352   -1.0654   -3.1514 C   0  0  0  0  0  0  0  0  0  0  0  0
    3.0624   -0.4301   -4.0352 O   0  0  0  0  0  0  0  0  0  0  0  0
    4.6101   -0.4838   -2.3851 O   0  0  0  0  0  0  0  0  0  0  0  0
    5.2333   -1.1078   -1.2551 C   0  0  2  0  0  0  0  0  0  0  0  0
    5.4741   -2.5815   -1.5814 C   0  0  1  0  0  0  0  0  0  0  0  0
    6.4283   -3.3127   -0.6280 C   0  0  0  0  0  0  0  0  0  0  0  0
    6.3388   -2.8846    0.8394 C   0  0  0  0  0  0  0  0  0  0  0  0
    4.9384   -3.0138    1.5303 C   0  0  2  0  0  0  0  0  0  0  0  0
    5.1350   -2.4633    2.9659 C   0  0  0  0  0  0  0  0  0  0  0  0
    4.1814   -3.1871    3.9199 C   0  0  0  0  0  0  0  0  0  0  0  0
    3.8579   -4.5484    3.2797 C   0  0  1  0  0  0  0  0  0  0  0  0
    4.2573   -5.7118    4.2148 C   0  0  0  0  0  0  0  0  0  0  0  0
    2.4501   -4.6670    3.2043 O   0  0  0  0  0  0  0  0  0  0  0  0
    4.5401   -4.5164    1.8563 C   0  0  2  0  0  0  0  0  0  0  0  0
    5.7184   -5.2921    1.9842 O   0  0  0  0  0  0  0  0  0  0  0  0
    3.7836   -5.2599    0.7282 C   0  0  0  0  0  0  0  0  0  0  0  0
    2.6884   -4.4205    0.0834 C   0  0  0  0  0  0  0  0  0  0  0  0
    3.2122   -3.0670   -0.4256 C   0  0  2  0  0  0  0  0  0  0  0  0
    4.0803   -3.1944   -1.7185 C   0  0  1  0  0  0  0  0  0  0  0  0
    3.8319   -2.1873    0.7146 C   0  0  1  0  0  0  0  0  0  0  0  0
    2.6539   -1.6850    1.6034 C   0  0  0  0  0  0  0  0  0  0  0  0
    4.3630   -0.8868    0.0121 C   0  0  1  0  0  0  0  0  0  0  0  0
    5.0156    0.0184    0.8741 O   0  0  0  0  0  0  0  0  0  0  0  0
    2.3940   -4.2446   -3.6108 H   0  0  0  0  0  0  0  0  0  0  0  0
    2.1070   -2.7064   -4.5817 H   0  0  0  0  0  0  0  0  0  0  0  0
    6.2013   -0.6350   -1.1165 H   0  0  0  0  0  0  0  0  0  0  0  0
    5.9567   -2.6501   -2.5585 H   0  0  0  0  0  0  0  0  0  0  0  0
    6.3011   -4.3883   -0.7179 H   0  0  0  0  0  0  0  0  0  0  0  0
    7.4502   -3.1142   -0.9571 H   0  0  0  0  0  0  0  0  0  0  0  0
    7.1060   -3.4353    1.3863 H   0  0  0  0  0  0  0  0  0  0  0  0
    6.7012   -1.8613    0.9262 H   0  0  0  0  0  0  0  0  0  0  0  0
    6.1442   -2.7002    3.2956 H   0  0  0  0  0  0  0  0  0  0  0  0
    5.0616   -1.3793    3.0404 H   0  0  0  0  0  0  0  0  0  0  0  0
    4.6403   -3.2909    4.9028 H   0  0  0  0  0  0  0  0  0  0  0  0
    3.2846   -2.5895    4.0748 H   0  0  0  0  0  0  0  0  0  0  0  0
    5.3118   -5.6820    4.4860 H   0  0  0  0  0  0  0  0  0  0  0  0
    4.0500   -6.6804    3.7634 H   0  0  0  0  0  0  0  0  0  0  0  0
    3.6965   -5.6621    5.1469 H   0  0  0  0  0  0  0  0  0  0  0  0
    2.1236   -3.9317    2.7058 H   0  0  0  0  0  0  0  0  0  0  0  0
    5.4504   -6.1802    2.1673 H   0  0  0  0  0  0  0  0  0  0  0  0
    4.4752   -5.5563   -0.0601 H   0  0  0  0  0  0  0  0  0  0  0  0
    3.3595   -6.1950    1.0997 H   0  0  0  0  0  0  0  0  0  0  0  0
    2.2300   -4.9736   -0.7338 H   0  0  0  0  0  0  0  0  0  0  0  0
    1.8790   -4.2548    0.7841 H   0  0  0  0  0  0  0  0  0  0  0  0
    2.3037   -2.5626   -0.7470 H   0  0  0  0  0  0  0  0  0  0  0  0
    4.2031   -4.2450   -1.9883 H   0  0  0  0  0  0  0  0  0  0  0  0
    1.9104   -1.1631    1.0041 H   0  0  0  0  0  0  0  0  0  0  0  0
    2.9689   -0.9608    2.3560 H   0  0  0  0  0  0  0  0  0  0  0  0
    2.1061   -2.4769    2.1008 H   0  0  0  0  0  0  0  0  0  0  0  0
    3.4876   -0.3307   -0.3148 H   0  0  0  0  0  0  0  0  0  0  0  0
    5.1408    0.8230    0.3906 H   0  0  0  0  0  0  0  0  0  0  0  0
  1  2  2  0
  1 26  1  0
  1 27  1  0
  2 21  1  0
  2  3  1  0
  3  4  2  0
  3  5  1  0
  5  6  1  0
  6 24  1  0
  6  7  1  0
  6 28  1  1
  7 21  1  0
  7  8  1  0
  7 29  1  6
  8  9  1  0
  8 30  1  0
  8 31  1  0
  9 10  1  0
  9 32  1  0
  9 33  1  0
 10 16  1  0
 10 22  1  0
 10 11  1  1
 11 12  1  0
 11 34  1  0
 11 35  1  0
 12 13  1  0
 12 36  1  0
 12 37  1  0
 13 14  1  0
 13 15  1  6
 13 16  1  0
 14 38  1  0
 14 39  1  0
 14 40  1  0
 15 41  1  0
 16 17  1  1
 16 18  1  0
 17 42  1  0
 18 19  1  0
 18 43  1  0
 18 44  1  0
 19 20  1  0
 19 45  1  0
 19 46  1  0
 20 21  1  0
 20 22  1  0
 20 47  1  6
 21 48  1  6
 22 23  1  1
 22 24  1  0
 23 49  1  0
 23 50  1  0
 23 51  1  0
 24 25  1  0
 24 52  1  6
 25 53  1  0
M  END
>  <i_m_ct_stereo_status>  (204) 
1

>  <s_m_source_file>  (204) 
/var/tmp/pbs.5076255.sched01/tmprae_yccg/80g5h6lheg.sdf

>  <i_m_source_file_index>  (204) 
14

>  <i_lp_mmshare_version>  (204) 
48012

>  <i_f3d_flags>  (204) 
0

>  <s_epik_input>  (204) 
W0NIMl09QzFDKD1PKU9bQ0BASF0oW0NASF0oW09IXSlbQ0BdMjNbQ0gzXSlbQ0BASF0oW0NIMl1bQ0gyXTQpW0NASF0xW0NASF0zW0NIMl1bQ0gyXVtDQF0oW0NAXTI0NSkoW09IXSlbQ0BdKFtDSDNdKShbT0hdKVtDSDJdW0NIMl01

>  <s_epik_cmdline>  (204) 
J2VwaWtfcHl0aG9uJywgJy1waHQnLCAnMi4wJywgJy1waCcsICc3LjAnLCAnLXRuJywgJzgnLCAnLW1hJywgJzIwMCcsICctaW1hZScsICc8aW5maWxlLm1hZT4nLCAnLW9tYWUnLCAnPG91dGZpbGUubWFlPic=

>  <r_lp_tautomer_probability>  (204) 
1

>  <r_epik_Ionization_Penalty>  (204) 
1.83531e-06

>  <r_epik_Ionization_Penalty_Charging>  (204) 
0

>  <r_epik_Ionization_Penalty_Neutral>  (204) 
1.83531e-06

>  <r_epik_State_Penalty>  (204) 
-0

>  <r_epik_Charging_Adjusted_Penalty>  (204) 
0

>  <i_epik_Tot_Q>  (204) 
0

>  <i_epik_Tot_abs_Q>  (204) 
0

>  <s_epik_Chemistry_Notes>  (204) 
This compound has an ester and may undergo hydrolysis at high or low pH.

>  <s_lp_Force_Field>  (204) 
OPLS3e

>  <r_lp_Energy>  (204) 
71.6883

>  <b_lp_Chiralities_Consistent>  (204) 
1

>  <s_lp_Variant>  (204) 
68:0-1

>  <s_i_glide_gridfile>  (204) 
pfpi4k_grid

>  <i_i_glide_lignum>  (204) 
14

>  <i_i_glide_rotatable_bonds>  (204) 
3

>  <r_i_docking_score>  (204) 
-3.71805

>  <r_i_glide_ligand_efficiency>  (204) 
-0.148722

>  <r_i_glide_ligand_efficiency_sa>  (204) 
-0.434866

>  <r_i_glide_ligand_efficiency_ln>  (204) 
-0.881289

>  <r_i_glide_gscore>  (204) 
-3.71805

>  <r_i_glide_lipo>  (204) 
-0.51245

>  <r_i_glide_hbond>  (204) 
0

>  <r_i_glide_metal>  (204) 
-0

>  <r_i_glide_rewards>  (204) 
-1.13094

>  <r_i_glide_evdw>  (204) 
-28.1057

>  <r_i_glide_ecoul>  (204) 
-4.46253

>  <r_i_glide_erotb>  (204) 
0

>  <r_i_glide_esite>  (204) 
0

>  <r_i_glide_emodel>  (204) 
-39.6533

>  <r_i_glide_energy>  (204) 
-32.5682

>  <r_i_glide_einternal>  (204) 
0.361747

>  <r_i_glide_intrahb_reward>  (204) 
-0

>  <i_i_glide_confnum>  (204) 
2

>  <i_i_glide_posenum>  (204) 
5

>  <r_i_glide_eff_state_penalty>  (204) 
0

>  <ligand_id>  (204) 
68

>  <original_smiles>  (204) 
C=C1C(=O)OC2C3CCC45CCC(C)(O)C4(O)CCC(C13)C5(C)C2O

>  <smiles>  (204) 
[H]OC1([H])C2([H])OC(=O)C(=C([H])[H])C3([H])C2([H])C([H])([H])C([H])([H])C24C([H])([H])C([H])([H])C(O[H])(C([H])([H])[H])C2(O[H])C([H])([H])C([H])([H])C3([H])C14C([H])([H])[H]

$$$$
68:0:1
     RDKit          3D

 53 57  0  0  1  0  0  0  0  0999 V2000
    2.6117   -3.1915   -3.7182 C   0  0  0  0  0  0  0  0  0  0  0  0
    3.3887   -2.5268   -2.8450 C   0  0  0  0  0  0  0  0  0  0  0  0
    3.6522   -1.0770   -3.0882 C   0  0  0  0  0  0  0  0  0  0  0  0
    3.0941   -0.4292   -3.9736 O   0  0  0  0  0  0  0  0  0  0  0  0
    4.6189   -0.5057   -2.3040 O   0  0  0  0  0  0  0  0  0  0  0  0
    5.2187   -1.1417   -1.1697 C   0  0  2  0  0  0  0  0  0  0  0  0
    5.4667   -2.6120   -1.5064 C   0  0  1  0  0  0  0  0  0  0  0  0
    6.4055   -3.3561   -0.5465 C   0  0  0  0  0  0  0  0  0  0  0  0
    6.2946   -2.9474    0.9253 C   0  0  0  0  0  0  0  0  0  0  0  0
    4.8838   -3.0924    1.5928 C   0  0  2  0  0  0  0  0  0  0  0  0
    5.0516   -2.5613    3.0402 C   0  0  0  0  0  0  0  0  0  0  0  0
    4.0855   -3.3005    3.9687 C   0  0  0  0  0  0  0  0  0  0  0  0
    3.7784   -4.6513    3.3037 C   0  0  1  0  0  0  0  0  0  0  0  0
    4.1589   -5.8304    4.2248 C   0  0  0  0  0  0  0  0  0  0  0  0
    2.3719   -4.7636    3.1989 O   0  0  0  0  0  0  0  0  0  0  0  0
    4.4862   -4.6003    1.8953 C   0  0  2  0  0  0  0  0  0  0  0  0
    5.6711   -5.3653    2.0433 O   0  0  0  0  0  0  0  0  0  0  0  0
    3.7500   -5.3293    0.7429 C   0  0  0  0  0  0  0  0  0  0  0  0
    2.6595   -4.4823    0.0942 C   0  0  0  0  0  0  0  0  0  0  0  0
    3.1854   -3.1211   -0.3898 C   0  0  2  0  0  0  0  0  0  0  0  0
    4.0749   -3.2235   -1.6703 C   0  0  1  0  0  0  0  0  0  0  0  0
    3.7884   -2.2536    0.7696 C   0  0  1  0  0  0  0  0  0  0  0  0
    2.5973   -1.7652    1.6509 C   0  0  0  0  0  0  0  0  0  0  0  0
    4.3235   -0.9426    0.0829 C   0  0  1  0  0  0  0  0  0  0  0  0
    4.9683   -0.0557    0.9688 O   0  0  0  0  0  0  0  0  0  0  0  0
    2.4172   -4.2447   -3.6028 H   0  0  0  0  0  0  0  0  0  0  0  0
    2.1468   -2.6953   -4.5561 H   0  0  0  0  0  0  0  0  0  0  0  0
    6.1834   -0.6636   -1.0035 H   0  0  0  0  0  0  0  0  0  0  0  0
    5.9662   -2.6635   -2.4742 H   0  0  0  0  0  0  0  0  0  0  0  0
    6.2811   -4.4299   -0.6589 H   0  0  0  0  0  0  0  0  0  0  0  0
    7.4334   -3.1540   -0.8553 H   0  0  0  0  0  0  0  0  0  0  0  0
    7.0598   -3.4941    1.4790 H   0  0  0  0  0  0  0  0  0  0  0  0
    6.6515   -1.9232    1.0305 H   0  0  0  0  0  0  0  0  0  0  0  0
    6.0511   -2.8081    3.3885 H   0  0  0  0  0  0  0  0  0  0  0  0
    4.9765   -1.4780    3.1313 H   0  0  0  0  0  0  0  0  0  0  0  0
    4.5300   -3.4229    4.9552 H   0  0  0  0  0  0  0  0  0  0  0  0
    3.1844   -2.7090    4.1205 H   0  0  0  0  0  0  0  0  0  0  0  0
    5.2082   -5.8058    4.5115 H   0  0  0  0  0  0  0  0  0  0  0  0
    3.9634   -6.7905    3.7503 H   0  0  0  0  0  0  0  0  0  0  0  0
    3.5828   -5.7975    5.1464 H   0  0  0  0  0  0  0  0  0  0  0  0
    2.0544   -4.0185    2.7125 H   0  0  0  0  0  0  0  0  0  0  0  0
    6.0676   -5.4572    1.1921 H   0  0  0  0  0  0  0  0  0  0  0  0
    4.4470   -5.6163   -0.0440 H   0  0  0  0  0  0  0  0  0  0  0  0
    3.3220   -6.2662    1.0999 H   0  0  0  0  0  0  0  0  0  0  0  0
    2.2124   -5.0277   -0.7336 H   0  0  0  0  0  0  0  0  0  0  0  0
    1.8372   -4.3255    0.7845 H   0  0  0  0  0  0  0  0  0  0  0  0
    2.2753   -2.6142   -0.7134 H   0  0  0  0  0  0  0  0  0  0  0  0
    4.2061   -4.2636   -1.9553 H   0  0  0  0  0  0  0  0  0  0  0  0
    1.8592   -1.2332    1.0508 H   0  0  0  0  0  0  0  0  0  0  0  0
    2.9030   -1.0542    2.4202 H   0  0  0  0  0  0  0  0  0  0  0  0
    2.0441   -2.5653    2.1284 H   0  0  0  0  0  0  0  0  0  0  0  0
    3.4494   -0.3817   -0.2429 H   0  0  0  0  0  0  0  0  0  0  0  0
    5.0252    0.7830    0.5289 H   0  0  0  0  0  0  0  0  0  0  0  0
  1  2  2  0
  1 26  1  0
  1 27  1  0
  2 21  1  0
  2  3  1  0
  3  4  2  0
  3  5  1  0
  5  6  1  0
  6 24  1  0
  6  7  1  0
  6 28  1  1
  7 21  1  0
  7  8  1  0
  7 29  1  6
  8  9  1  0
  8 30  1  0
  8 31  1  0
  9 10  1  0
  9 32  1  0
  9 33  1  0
 10 16  1  0
 10 22  1  0
 10 11  1  1
 11 12  1  0
 11 34  1  0
 11 35  1  0
 12 13  1  0
 12 36  1  0
 12 37  1  0
 13 14  1  0
 13 15  1  6
 13 16  1  0
 14 38  1  0
 14 39  1  0
 14 40  1  0
 15 41  1  0
 16 17  1  1
 16 18  1  0
 17 42  1  0
 18 19  1  0
 18 43  1  0
 18 44  1  0
 19 20  1  0
 19 45  1  0
 19 46  1  0
 20 21  1  0
 20 22  1  0
 20 47  1  6
 21 48  1  6
 22 23  1  1
 22 24  1  0
 23 49  1  0
 23 50  1  0
 23 51  1  0
 24 25  1  0
 24 52  1  6
 25 53  1  0
M  END
>  <i_m_ct_stereo_status>  (205) 
1

>  <s_m_source_file>  (205) 
/var/tmp/pbs.5076255.sched01/tmprae_yccg/80g5h6lheg.sdf

>  <i_m_source_file_index>  (205) 
14

>  <i_lp_mmshare_version>  (205) 
48012

>  <i_f3d_flags>  (205) 
0

>  <s_epik_input>  (205) 
W0NIMl09QzFDKD1PKU9bQ0BASF0oW0NASF0oW09IXSlbQ0BdMjNbQ0gzXSlbQ0BASF0oW0NIMl1bQ0gyXTQpW0NASF0xW0NASF0zW0NIMl1bQ0gyXVtDQF0oW0NAXTI0NSkoW09IXSlbQ0BdKFtDSDNdKShbT0hdKVtDSDJdW0NIMl01

>  <s_epik_cmdline>  (205) 
J2VwaWtfcHl0aG9uJywgJy1waHQnLCAnMi4wJywgJy1waCcsICc3LjAnLCAnLXRuJywgJzgnLCAnLW1hJywgJzIwMCcsICctaW1hZScsICc8aW5maWxlLm1hZT4nLCAnLW9tYWUnLCAnPG91dGZpbGUubWFlPic=

>  <r_lp_tautomer_probability>  (205) 
1

>  <r_epik_Ionization_Penalty>  (205) 
1.83531e-06

>  <r_epik_Ionization_Penalty_Charging>  (205) 
0

>  <r_epik_Ionization_Penalty_Neutral>  (205) 
1.83531e-06

>  <r_epik_State_Penalty>  (205) 
-0

>  <r_epik_Charging_Adjusted_Penalty>  (205) 
0

>  <i_epik_Tot_Q>  (205) 
0

>  <i_epik_Tot_abs_Q>  (205) 
0

>  <s_epik_Chemistry_Notes>  (205) 
This compound has an ester and may undergo hydrolysis at high or low pH.

>  <s_lp_Force_Field>  (205) 
OPLS3e

>  <r_lp_Energy>  (205) 
71.6883

>  <b_lp_Chiralities_Consistent>  (205) 
1

>  <s_lp_Variant>  (205) 
68:0-1

>  <s_i_glide_gridfile>  (205) 
pfpi4k_grid

>  <i_i_glide_lignum>  (205) 
14

>  <i_i_glide_rotatable_bonds>  (205) 
3

>  <r_i_docking_score>  (205) 
-3.61575

>  <r_i_glide_ligand_efficiency>  (205) 
-0.14463

>  <r_i_glide_ligand_efficiency_sa>  (205) 
-0.422901

>  <r_i_glide_ligand_efficiency_ln>  (205) 
-0.857042

>  <r_i_glide_gscore>  (205) 
-3.61575

>  <r_i_glide_lipo>  (205) 
-0.506498

>  <r_i_glide_hbond>  (205) 
0

>  <r_i_glide_metal>  (205) 
-0

>  <r_i_glide_rewards>  (205) 
-1.09959

>  <r_i_glide_evdw>  (205) 
-28.8737

>  <r_i_glide_ecoul>  (205) 
-3.77325

>  <r_i_glide_erotb>  (205) 
0

>  <r_i_glide_esite>  (205) 
0

>  <r_i_glide_emodel>  (205) 
-39.5029

>  <r_i_glide_energy>  (205) 
-32.6469

>  <r_i_glide_einternal>  (205) 
0.405333

>  <r_i_glide_intrahb_reward>  (205) 
-0

>  <i_i_glide_confnum>  (205) 
1

>  <i_i_glide_posenum>  (205) 
9

>  <r_i_glide_eff_state_penalty>  (205) 
0

>  <ligand_id>  (205) 
68

>  <original_smiles>  (205) 
C=C1C(=O)OC2C3CCC45CCC(C)(O)C4(O)CCC(C13)C5(C)C2O

>  <smiles>  (205) 
[H]OC1([H])C2([H])OC(=O)C(=C([H])[H])C3([H])C2([H])C([H])([H])C([H])([H])C24C([H])([H])C([H])([H])C(O[H])(C([H])([H])[H])C2(O[H])C([H])([H])C([H])([H])C3([H])C14C([H])([H])[H]

$$$$
68:0:2
     RDKit          3D

 53 57  0  0  1  0  0  0  0  0999 V2000
    2.9468   -3.1753   -3.5760 C   0  0  0  0  0  0  0  0  0  0  0  0
    3.6801   -2.6015   -2.6051 C   0  0  0  0  0  0  0  0  0  0  0  0
    4.0314   -1.1578   -2.7415 C   0  0  0  0  0  0  0  0  0  0  0  0
    3.5792   -0.4376   -3.6299 O   0  0  0  0  0  0  0  0  0  0  0  0
    4.9566   -0.6756   -1.8502 O   0  0  0  0  0  0  0  0  0  0  0  0
    5.4316   -1.3955   -0.7039 C   0  0  2  0  0  0  0  0  0  0  0  0
    5.6319   -2.8614   -1.1003 C   0  0  1  0  0  0  0  0  0  0  0  0
    6.4455   -3.7046   -0.1083 C   0  0  0  0  0  0  0  0  0  0  0  0
    6.2263   -3.3667    1.3660 C   0  0  0  0  0  0  0  0  0  0  0  0
    4.7649   -3.4633    1.9096 C   0  0  2  0  0  0  0  0  0  0  0  0
    4.8522   -3.0223    3.3982 C   0  0  0  0  0  0  0  0  0  0  0  0
    3.7669   -3.7476    4.1989 C   0  0  0  0  0  0  0  0  0  0  0  0
    3.4440   -5.0437    3.4349 C   0  0  1  0  0  0  0  0  0  0  0  0
    3.6867   -6.2859    4.3244 C   0  0  0  0  0  0  0  0  0  0  0  0
    2.0470   -5.0682    3.2110 O   0  0  0  0  0  0  0  0  0  0  0  0
    4.2723   -4.9620    2.0930 C   0  0  2  0  0  0  0  0  0  0  0  0
    5.3923   -5.8094    2.2850 O   0  0  0  0  0  0  0  0  0  0  0  0
    3.6125   -5.5957    0.8459 C   0  0  0  0  0  0  0  0  0  0  0  0
    2.6319   -4.6569    0.1539 C   0  0  0  0  0  0  0  0  0  0  0  0
    3.2469   -3.2953   -0.2094 C   0  0  2  0  0  0  0  0  0  0  0  0
    4.2314   -3.3880   -1.4159 C   0  0  1  0  0  0  0  0  0  0  0  0
    3.7852   -2.5225    1.0417 C   0  0  1  0  0  0  0  0  0  0  0  0
    2.5404   -2.0216    1.8387 C   0  0  0  0  0  0  0  0  0  0  0  0
    4.4385   -1.2039    0.4777 C   0  0  1  0  0  0  0  0  0  0  0  0
    5.0367   -0.4071    1.4820 O   0  0  0  0  0  0  0  0  0  0  0  0
    2.6962   -4.2242   -3.5389 H   0  0  0  0  0  0  0  0  0  0  0  0
    2.5803   -2.6159   -4.4271 H   0  0  0  0  0  0  0  0  0  0  0  0
    6.3981   -0.9727   -0.4333 H   0  0  0  0  0  0  0  0  0  0  0  0
    6.2084   -2.8934   -2.0244 H   0  0  0  0  0  0  0  0  0  0  0  0
    6.2908   -4.7662   -0.2857 H   0  0  0  0  0  0  0  0  0  0  0  0
    7.5040   -3.5357   -0.3147 H   0  0  0  0  0  0  0  0  0  0  0  0
    6.9059   -3.9902    1.9468 H   0  0  0  0  0  0  0  0  0  0  0  0
    6.6203   -2.3705    1.5563 H   0  0  0  0  0  0  0  0  0  0  0  0
    5.8087   -3.3380    3.8190 H   0  0  0  0  0  0  0  0  0  0  0  0
    4.8152   -1.9436    3.5416 H   0  0  0  0  0  0  0  0  0  0  0  0
    4.1107   -3.9381    5.2163 H   0  0  0  0  0  0  0  0  0  0  0  0
    2.8882   -3.1113    4.2975 H   0  0  0  0  0  0  0  0  0  0  0  0
    4.7073   -6.3309    4.6999 H   0  0  0  0  0  0  0  0  0  0  0  0
    3.4859   -7.2138    3.7919 H   0  0  0  0  0  0  0  0  0  0  0  0
    3.0427   -6.2733    5.2020 H   0  0  0  0  0  0  0  0  0  0  0  0
    1.6211   -5.1476    4.0497 H   0  0  0  0  0  0  0  0  0  0  0  0
    5.0692   -6.6959    2.3067 H   0  0  0  0  0  0  0  0  0  0  0  0
    4.3634   -5.8819    0.1107 H   0  0  0  0  0  0  0  0  0  0  0  0
    3.0986   -6.5215    1.1114 H   0  0  0  0  0  0  0  0  0  0  0  0
    2.2079   -5.1365   -0.7217 H   0  0  0  0  0  0  0  0  0  0  0  0
    1.7986   -4.4948    0.8194 H   0  0  0  0  0  0  0  0  0  0  0  0
    2.3978   -2.7141   -0.5752 H   0  0  0  0  0  0  0  0  0  0  0  0
    4.3324   -4.4244   -1.7378 H   0  0  0  0  0  0  0  0  0  0  0  0
    1.8765   -1.4278    1.2094 H   0  0  0  0  0  0  0  0  0  0  0  0
    2.8058   -1.3741    2.6746 H   0  0  0  0  0  0  0  0  0  0  0  0
    1.9198   -2.8229    2.2255 H   0  0  0  0  0  0  0  0  0  0  0  0
    3.6288   -0.5784    0.0969 H   0  0  0  0  0  0  0  0  0  0  0  0
    4.3544   -0.1046    2.0624 H   0  0  0  0  0  0  0  0  0  0  0  0
  1  2  2  0
  1 26  1  0
  1 27  1  0
  2 21  1  0
  2  3  1  0
  3  4  2  0
  3  5  1  0
  5  6  1  0
  6 24  1  0
  6  7  1  0
  6 28  1  1
  7 21  1  0
  7  8  1  0
  7 29  1  6
  8  9  1  0
  8 30  1  0
  8 31  1  0
  9 10  1  0
  9 32  1  0
  9 33  1  0
 10 16  1  0
 10 22  1  0
 10 11  1  1
 11 12  1  0
 11 34  1  0
 11 35  1  0
 12 13  1  0
 12 36  1  0
 12 37  1  0
 13 14  1  0
 13 15  1  6
 13 16  1  0
 14 38  1  0
 14 39  1  0
 14 40  1  0
 15 41  1  0
 16 17  1  1
 16 18  1  0
 17 42  1  0
 18 19  1  0
 18 43  1  0
 18 44  1  0
 19 20  1  0
 19 45  1  0
 19 46  1  0
 20 21  1  0
 20 22  1  0
 20 47  1  6
 21 48  1  6
 22 23  1  1
 22 24  1  0
 23 49  1  0
 23 50  1  0
 23 51  1  0
 24 25  1  0
 24 52  1  6
 25 53  1  0
M  END
>  <i_m_ct_stereo_status>  (206) 
1

>  <s_m_source_file>  (206) 
/var/tmp/pbs.5076255.sched01/tmprae_yccg/80g5h6lheg.sdf

>  <i_m_source_file_index>  (206) 
14

>  <i_lp_mmshare_version>  (206) 
48012

>  <i_f3d_flags>  (206) 
0

>  <s_epik_input>  (206) 
W0NIMl09QzFDKD1PKU9bQ0BASF0oW0NASF0oW09IXSlbQ0BdMjNbQ0gzXSlbQ0BASF0oW0NIMl1bQ0gyXTQpW0NASF0xW0NASF0zW0NIMl1bQ0gyXVtDQF0oW0NAXTI0NSkoW09IXSlbQ0BdKFtDSDNdKShbT0hdKVtDSDJdW0NIMl01

>  <s_epik_cmdline>  (206) 
J2VwaWtfcHl0aG9uJywgJy1waHQnLCAnMi4wJywgJy1waCcsICc3LjAnLCAnLXRuJywgJzgnLCAnLW1hJywgJzIwMCcsICctaW1hZScsICc8aW5maWxlLm1hZT4nLCAnLW9tYWUnLCAnPG91dGZpbGUubWFlPic=

>  <r_lp_tautomer_probability>  (206) 
1

>  <r_epik_Ionization_Penalty>  (206) 
1.83531e-06

>  <r_epik_Ionization_Penalty_Charging>  (206) 
0

>  <r_epik_Ionization_Penalty_Neutral>  (206) 
1.83531e-06

>  <r_epik_State_Penalty>  (206) 
-0

>  <r_epik_Charging_Adjusted_Penalty>  (206) 
0

>  <i_epik_Tot_Q>  (206) 
0

>  <i_epik_Tot_abs_Q>  (206) 
0

>  <s_epik_Chemistry_Notes>  (206) 
This compound has an ester and may undergo hydrolysis at high or low pH.

>  <s_lp_Force_Field>  (206) 
OPLS3e

>  <r_lp_Energy>  (206) 
71.6883

>  <b_lp_Chiralities_Consistent>  (206) 
1

>  <s_lp_Variant>  (206) 
68:0-1

>  <s_i_glide_gridfile>  (206) 
pfpi4k_grid

>  <i_i_glide_lignum>  (206) 
14

>  <i_i_glide_rotatable_bonds>  (206) 
3

>  <r_i_docking_score>  (206) 
-3.30195

>  <r_i_glide_ligand_efficiency>  (206) 
-0.132078

>  <r_i_glide_ligand_efficiency_sa>  (206) 
-0.386198

>  <r_i_glide_ligand_efficiency_ln>  (206) 
-0.782661

>  <r_i_glide_gscore>  (206) 
-3.30195

>  <r_i_glide_lipo>  (206) 
-0.512532

>  <r_i_glide_hbond>  (206) 
0

>  <r_i_glide_metal>  (206) 
-0

>  <r_i_glide_rewards>  (206) 
-1.03341

>  <r_i_glide_evdw>  (206) 
-30.1492

>  <r_i_glide_ecoul>  (206) 
-1.57429

>  <r_i_glide_erotb>  (206) 
0

>  <r_i_glide_esite>  (206) 
-0.0124061

>  <r_i_glide_emodel>  (206) 
-37.9586

>  <r_i_glide_energy>  (206) 
-31.7234

>  <r_i_glide_einternal>  (206) 
0.412948

>  <r_i_glide_intrahb_reward>  (206) 
-0

>  <i_i_glide_confnum>  (206) 
1

>  <i_i_glide_posenum>  (206) 
1

>  <r_i_glide_eff_state_penalty>  (206) 
0

>  <ligand_id>  (206) 
68

>  <original_smiles>  (206) 
C=C1C(=O)OC2C3CCC45CCC(C)(O)C4(O)CCC(C13)C5(C)C2O

>  <smiles>  (206) 
[H]OC1([H])C2([H])OC(=O)C(=C([H])[H])C3([H])C2([H])C([H])([H])C([H])([H])C24C([H])([H])C([H])([H])C(O[H])(C([H])([H])[H])C2(O[H])C([H])([H])C([H])([H])C3([H])C14C([H])([H])[H]

$$$$
69:0:0
     RDKit          3D

 87 93  0  0  1  0  0  0  0  0999 V2000
   -0.2520  -10.1209    7.0203 C   0  0  0  0  0  0  0  0  0  0  0  0
    0.9658   -9.2452    6.8970 C   0  0  2  0  0  0  0  0  0  0  0  0
    0.8465   -8.1743    7.7745 O   0  0  0  0  0  0  0  0  0  0  0  0
    1.6677   -7.2110    7.2340 C   0  0  2  0  0  0  0  0  0  0  0  0
    1.2496   -5.9058    7.5072 O   0  0  0  0  0  0  0  0  0  0  0  0
    0.3437   -5.4298    6.5168 C   0  0  1  0  0  0  0  0  0  0  0  0
   -0.9913   -5.2320    7.2582 C   0  0  0  0  0  0  0  0  0  0  0  0
    0.8031   -4.0439    6.0058 C   0  0  0  0  0  0  0  0  0  0  0  0
    2.1224   -4.0091    5.2200 C   0  0  0  0  0  0  0  0  0  0  0  0
    1.8895   -4.2789    3.7191 C   0  0  1  0  0  0  0  0  0  0  0  0
    3.1006   -3.9918    3.0934 O   0  0  0  0  0  0  0  0  0  0  0  0
    3.2465   -4.4173    1.7314 C   0  0  2  0  0  0  0  0  0  0  0  0
    4.0718   -5.7647    1.7241 C   0  0  0  0  0  0  0  0  0  0  0  0
    5.5649   -5.8381    2.2476 C   0  0  0  0  0  0  0  0  0  0  0  0
    6.7532   -5.1276    1.5031 C   0  0  1  0  0  0  0  0  0  0  0  0
    7.8501   -6.0829    1.0054 C   0  0  0  0  0  0  0  0  0  0  0  0
    6.2439   -4.1252    0.4640 C   0  0  2  0  0  0  0  0  0  0  0  0
    5.7071   -5.0327   -0.4354 O   0  0  0  0  0  0  0  0  0  0  0  0
    7.0489   -2.9933   -0.2387 C   0  0  1  0  0  0  0  0  0  0  0  0
    7.3832   -3.0671   -1.6163 O   0  0  0  0  0  0  0  0  0  0  0  0
    5.9480   -2.0123    0.1445 C   0  0  1  0  0  0  0  0  0  0  0  0
    4.9867   -1.1288   -0.6312 C   0  0  2  0  0  0  0  0  0  0  0  0
    3.8384   -0.7435    0.3822 C   0  0  0  0  0  0  0  0  0  0  0  0
    3.1237   -1.9084    1.1115 C   0  0  0  0  0  0  0  0  0  0  0  0
    3.7578   -3.2678    0.7860 C   0  0  2  0  0  0  0  0  0  0  0  0
    3.2743   -3.6301   -0.7019 C   0  0  1  0  0  0  0  0  0  0  0  0
    1.8853   -3.4482   -0.9424 O   0  0  0  0  0  0  0  0  0  0  0  0
    4.0139   -3.0921   -1.9881 C   0  0  1  0  0  0  0  0  0  0  0  0
    3.3196   -3.4532   -3.1829 O   0  0  0  0  0  0  0  0  0  0  0  0
    4.4738   -1.6273   -2.0177 C   0  0  1  0  0  0  0  0  0  0  0  0
    3.5032   -0.6562   -2.7222 C   0  0  0  0  0  0  0  0  0  0  0  0
    5.2724   -3.0630    0.9949 C   0  0  1  0  0  0  0  0  0  0  0  0
    5.5480   -2.6354    2.4542 C   0  0  0  0  0  0  0  0  0  0  0  0
    1.5787   -5.6311    3.5686 O   0  0  0  0  0  0  0  0  0  0  0  0
    0.2820   -6.0595    3.9817 C   0  0  1  0  0  0  0  0  0  0  0  0
   -0.1561   -7.1536    2.9891 C   0  0  0  0  0  0  0  0  0  0  0  0
    0.2945   -6.5344    5.4383 C   0  0  1  0  0  0  0  0  0  0  0  0
    1.4674   -7.4419    5.7490 C   0  0  2  0  0  0  0  0  0  0  0  0
    1.0491   -8.7785    5.5995 O   0  0  0  0  0  0  0  0  0  0  0  0
   -1.1705   -9.5714    6.7884 H   0  0  0  0  0  0  0  0  0  0  0  0
   -0.2164  -10.4602    8.0495 H   0  0  0  0  0  0  0  0  0  0  0  0
   -0.1660  -10.9876    6.3608 H   0  0  0  0  0  0  0  0  0  0  0  0
    1.8594   -9.8122    7.1564 H   0  0  0  0  0  0  0  0  0  0  0  0
    2.6955   -7.3898    7.5623 H   0  0  0  0  0  0  0  0  0  0  0  0
   -1.8001   -4.9284    6.5875 H   0  0  0  0  0  0  0  0  0  0  0  0
   -0.9005   -4.4778    8.0454 H   0  0  0  0  0  0  0  0  0  0  0  0
   -1.2779   -6.1297    7.7789 H   0  0  0  0  0  0  0  0  0  0  0  0
    0.0108   -3.5361    5.4456 H   0  0  0  0  0  0  0  0  0  0  0  0
    0.9571   -3.4329    6.8958 H   0  0  0  0  0  0  0  0  0  0  0  0
    2.5425   -3.0087    5.3190 H   0  0  0  0  0  0  0  0  0  0  0  0
    2.8704   -4.7002    5.6034 H   0  0  0  0  0  0  0  0  0  0  0  0
    1.1158   -3.6375    3.2660 H   0  0  0  0  0  0  0  0  0  0  0  0
    2.2424   -4.6586    1.3731 H   0  0  0  0  0  0  0  0  0  0  0  0
    3.5331   -6.4783    2.3462 H   0  0  0  0  0  0  0  0  0  0  0  0
    4.0095   -6.2292    0.7367 H   0  0  0  0  0  0  0  0  0  0  0  0
    5.5720   -5.5159    3.2835 H   0  0  0  0  0  0  0  0  0  0  0  0
    5.8180   -6.8952    2.2913 H   0  0  0  0  0  0  0  0  0  0  0  0
    7.2864   -4.5620    2.2476 H   0  0  0  0  0  0  0  0  0  0  0  0
    7.4644   -6.8352    0.3326 H   0  0  0  0  0  0  0  0  0  0  0  0
    8.2766   -6.6092    1.8500 H   0  0  0  0  0  0  0  0  0  0  0  0
    8.6548   -5.5540    0.5023 H   0  0  0  0  0  0  0  0  0  0  0  0
    5.4862   -4.5120   -1.1867 H   0  0  0  0  0  0  0  0  0  0  0  0
    7.9454   -2.7762    0.3371 H   0  0  0  0  0  0  0  0  0  0  0  0
    8.2989   -3.2944   -1.6858 H   0  0  0  0  0  0  0  0  0  0  0  0
    6.5090   -1.3249    0.7623 H   0  0  0  0  0  0  0  0  0  0  0  0
    5.5350   -0.2267   -0.8766 H   0  0  0  0  0  0  0  0  0  0  0  0
    4.2911   -0.0867    1.1391 H   0  0  0  0  0  0  0  0  0  0  0  0
    3.0085   -0.2379   -0.0776 H   0  0  0  0  0  0  0  0  0  0  0  0
    3.0814   -1.7005    2.1810 H   0  0  0  0  0  0  0  0  0  0  0  0
    2.0690   -1.8811    0.8714 H   0  0  0  0  0  0  0  0  0  0  0  0
    3.3380   -4.7060   -0.7849 H   0  0  0  0  0  0  0  0  0  0  0  0
    1.7371   -2.5171   -1.0549 H   0  0  0  0  0  0  0  0  0  0  0  0
    4.9290   -3.6531   -2.1584 H   0  0  0  0  0  0  0  0  0  0  0  0
    3.0112   -4.3426   -3.0730 H   0  0  0  0  0  0  0  0  0  0  0  0
    5.3464   -1.6134   -2.6704 H   0  0  0  0  0  0  0  0  0  0  0  0
    2.5213   -0.6770   -2.2705 H   0  0  0  0  0  0  0  0  0  0  0  0
    3.3728   -0.9031   -3.7696 H   0  0  0  0  0  0  0  0  0  0  0  0
    3.8835    0.3606   -2.7112 H   0  0  0  0  0  0  0  0  0  0  0  0
    5.0406   -1.7213    2.7829 H   0  0  0  0  0  0  0  0  0  0  0  0
    6.5954   -2.4035    2.5470 H   0  0  0  0  0  0  0  0  0  0  0  0
    5.3298   -3.3953    3.2090 H   0  0  0  0  0  0  0  0  0  0  0  0
   -0.4302   -5.2394    3.9382 H   0  0  0  0  0  0  0  0  0  0  0  0
   -1.1317   -7.5567    3.2482 H   0  0  0  0  0  0  0  0  0  0  0  0
    0.5503   -7.9797    2.9898 H   0  0  0  0  0  0  0  0  0  0  0  0
   -0.2135   -6.7798    1.9668 H   0  0  0  0  0  0  0  0  0  0  0  0
   -0.6238   -7.0934    5.5999 H   0  0  0  0  0  0  0  0  0  0  0  0
    2.3879   -7.2232    5.2054 H   0  0  0  0  0  0  0  0  0  0  0  0
  1  2  1  0
  1 40  1  0
  1 41  1  0
  1 42  1  0
  2 39  1  0
  2  3  1  0
  2 43  1  1
  3  4  1  0
  4 38  1  0
  4  5  1  0
  4 44  1  6
  5  6  1  0
  6 37  1  0
  6  7  1  1
  6  8  1  0
  7 45  1  0
  7 46  1  0
  7 47  1  0
  8  9  1  0
  8 48  1  0
  8 49  1  0
  9 10  1  0
  9 50  1  0
  9 51  1  0
 10 11  1  0
 10 34  1  0
 10 52  1  6
 11 12  1  0
 12 25  1  0
 12 13  1  0
 12 53  1  6
 13 14  1  0
 13 54  1  0
 13 55  1  0
 14 15  1  0
 14 56  1  0
 14 57  1  0
 15 16  1  0
 15 17  1  0
 15 58  1  1
 16 59  1  0
 16 60  1  0
 16 61  1  0
 17 32  1  0
 17 18  1  6
 17 19  1  0
 18 62  1  0
 19 20  1  0
 19 21  1  0
 19 63  1  1
 20 64  1  0
 21 32  1  0
 21 22  1  0
 21 65  1  1
 22 30  1  0
 22 23  1  0
 22 66  1  6
 23 24  1  0
 23 67  1  0
 23 68  1  0
 25 24  1  1
 24 69  1  0
 24 70  1  0
 25 26  1  0
 25 32  1  0
 26 27  1  0
 26 28  1  0
 26 71  1  1
 27 72  1  0
 28 29  1  0
 28 30  1  0
 28 73  1  6
 29 74  1  0
 30 31  1  0
 30 75  1  6
 31 76  1  0
 31 77  1  0
 31 78  1  0
 32 33  1  1
 33 79  1  0
 33 80  1  0
 33 81  1  0
 34 35  1  0
 35 36  1  0
 35 37  1  0
 35 82  1  1
 36 83  1  0
 36 84  1  0
 36 85  1  0
 37 38  1  0
 37 86  1  1
 38 39  1  0
 38 87  1  6
M  END
>  <i_m_ct_stereo_status>  (207) 
1

>  <s_m_source_file>  (207) 
/var/tmp/pbs.5076255.sched01/tmprae_yccg/80g5h6lheg.sdf

>  <i_m_source_file_index>  (207) 
15

>  <i_lp_mmshare_version>  (207) 
48012

>  <i_f3d_flags>  (207) 
0

>  <s_epik_input>  (207) 
W0NIM11bQ0BASF0oTzEpT1tDQEhdKE8yKVtDQEBIXTFbQ0BASF0oW0NAQF0yM1tDSDNdKVtDQEhdKFtDSDNdKU9bQ0BASF0oW0NIMl1bQ0gyXTMpT1tDQEBIXTRbQ0gyXVtDSDJdW0NAQEhdKFtDSDNdKVtDQEBdKFtPSF0pKFtDQEBdNShbQ0BAXTQ2NylbQ0gzXSlbQ0BASF0oW09IXSlbQ0BIXTVbQ0BIXShbQ0gyXVtDSDJdNilbQ0BIXShbQ0gzXSlbQ0BIXShbT0hdKVtDQEBIXTdbT0hd

>  <s_epik_cmdline>  (207) 
J2VwaWtfcHl0aG9uJywgJy1waHQnLCAnMi4wJywgJy1waCcsICc3LjAnLCAnLXRuJywgJzgnLCAnLW1hJywgJzIwMCcsICctaW1hZScsICc8aW5maWxlLm1hZT4nLCAnLW9tYWUnLCAnPG91dGZpbGUubWFlPic=

>  <r_lp_tautomer_probability>  (207) 
1

>  <r_epik_Ionization_Penalty>  (207) 
2.14123e-06

>  <r_epik_Ionization_Penalty_Charging>  (207) 
0

>  <r_epik_Ionization_Penalty_Neutral>  (207) 
2.14123e-06

>  <r_epik_State_Penalty>  (207) 
-0

>  <r_epik_Charging_Adjusted_Penalty>  (207) 
0

>  <i_epik_Tot_Q>  (207) 
0

>  <i_epik_Tot_abs_Q>  (207) 
0

>  <s_epik_Chemistry_Notes>  (207) 
This compound contains an acetal/aminal-like group ( X-CH(R)-Y where X, Y are N, S, or O) that may be acid/base labile, releasing an aldehyde.

>  <s_lp_Force_Field>  (207) 
OPLS3e

>  <r_lp_Energy>  (207) 
101.34

>  <b_lp_Chiralities_Consistent>  (207) 
1

>  <s_lp_Variant>  (207) 
69:0-1

>  <s_i_glide_gridfile>  (207) 
pfpi4k_grid

>  <i_i_glide_lignum>  (207) 
15

>  <i_i_glide_rotatable_bonds>  (207) 
6

>  <r_i_docking_score>  (207) 
-3.1908

>  <r_i_glide_ligand_efficiency>  (207) 
-0.0818153

>  <r_i_glide_ligand_efficiency_sa>  (207) 
-0.277453

>  <r_i_glide_ligand_efficiency_ln>  (207) 
-0.684197

>  <r_i_glide_gscore>  (207) 
-3.1908

>  <r_i_glide_lipo>  (207) 
-0.524662

>  <r_i_glide_hbond>  (207) 
0

>  <r_i_glide_metal>  (207) 
-0

>  <r_i_glide_rewards>  (207) 
0

>  <r_i_glide_evdw>  (207) 
-22.3092

>  <r_i_glide_ecoul>  (207) 
-10.1393

>  <r_i_glide_erotb>  (207) 
0.0449766

>  <r_i_glide_esite>  (207) 
-0.0747524

>  <r_i_glide_emodel>  (207) 
-37.0835

>  <r_i_glide_energy>  (207) 
-32.4486

>  <r_i_glide_einternal>  (207) 
3.7145

>  <r_i_glide_intrahb_reward>  (207) 
-0

>  <i_i_glide_confnum>  (207) 
1

>  <i_i_glide_posenum>  (207) 
1

>  <r_i_glide_eff_state_penalty>  (207) 
0

>  <ligand_id>  (207) 
69

>  <original_smiles>  (207) 
CC1OC2OC3(C)CCC(OC4CCC(C)C5(O)C(O)C6C7CCC4(C(O)C(O)C7C)C65C)OC(C)C3C2O1

>  <smiles>  (207) 
[H]OC1([H])C([H])(O[H])C23C([H])([H])C([H])([H])C([H])(C1([H])C([H])([H])[H])C1([H])C([H])(O[H])C(O[H])(C([H])(C([H])([H])[H])C([H])([H])C([H])([H])C2([H])OC2([H])OC([H])(C([H])([H])[H])C4([H])C5([H])OC([H])(C([H])([H])[H])OC5([H])OC4(C([H])([H])[H])C([H])([H])C2([H])[H])C13C([H])([H])[H]

$$$$
69:0:1
     RDKit          3D

 87 93  0  0  1  0  0  0  0  0999 V2000
    8.4813   -3.6650   -0.8687 C   0  0  0  0  0  0  0  0  0  0  0  0
    7.9257   -3.7104    0.5542 C   0  0  2  0  0  0  0  0  0  0  0  0
    7.0570   -4.7881    0.6950 O   0  0  0  0  0  0  0  0  0  0  0  0
    6.2382   -4.4261    1.7418 C   0  0  2  0  0  0  0  0  0  0  0  0
    4.9598   -4.9705    1.6727 O   0  0  0  0  0  0  0  0  0  0  0  0
    4.0818   -4.1313    0.9399 C   0  0  1  0  0  0  0  0  0  0  0  0
    3.7765   -4.9066   -0.3413 C   0  0  0  0  0  0  0  0  0  0  0  0
    2.7712   -3.9412    1.7411 C   0  0  0  0  0  0  0  0  0  0  0  0
    2.8992   -3.1471    3.0580 C   0  0  0  0  0  0  0  0  0  0  0  0
    2.7974   -1.6214    2.8138 C   0  0  1  0  0  0  0  0  0  0  0  0
    2.7010   -1.0378    4.0822 O   0  0  0  0  0  0  0  0  0  0  0  0
    2.6435    0.3960    4.1368 C   0  0  2  0  0  0  0  0  0  0  0  0
    3.6900    0.8654    5.2187 C   0  0  0  0  0  0  0  0  0  0  0  0
    3.5688    0.4905    6.7440 C   0  0  0  0  0  0  0  0  0  0  0  0
    2.4216    1.0812    7.6505 C   0  0  1  0  0  0  0  0  0  0  0  0
    2.9450    1.9095    8.8393 C   0  0  0  0  0  0  0  0  0  0  0  0
    1.3227    1.7672    6.8218 C   0  0  2  0  0  0  0  0  0  0  0  0
    2.0208    2.9382    6.4450 O   0  0  0  0  0  0  0  0  0  0  0  0
   -0.1187    2.1274    7.2633 C   0  0  1  0  0  0  0  0  0  0  0  0
   -0.4880    3.4802    7.4093 O   0  0  0  0  0  0  0  0  0  0  0  0
   -0.6815    1.3768    6.0364 C   0  0  1  0  0  0  0  0  0  0  0  0
   -1.5166    1.7807    4.8101 C   0  0  2  0  0  0  0  0  0  0  0  0
   -1.3341    0.6712    3.7356 C   0  0  0  0  0  0  0  0  0  0  0  0
    0.1173    0.2838    3.3866 C   0  0  0  0  0  0  0  0  0  0  0  0
    1.1864    0.9951    4.2618 C   0  0  2  0  0  0  0  0  0  0  0  0
    1.2691    2.4976    3.6905 C   0  0  1  0  0  0  0  0  0  0  0  0
    1.4168    2.4877    2.2732 O   0  0  0  0  0  0  0  0  0  0  0  0
    0.2042    3.5800    4.0817 C   0  0  1  0  0  0  0  0  0  0  0  0
    0.3567    4.7901    3.3827 O   0  0  0  0  0  0  0  0  0  0  0  0
   -1.2789    3.1907    4.2289 C   0  0  1  0  0  0  0  0  0  0  0  0
   -2.1292    3.4666    2.9690 C   0  0  0  0  0  0  0  0  0  0  0  0
    0.7096    0.8328    5.7415 C   0  0  1  0  0  0  0  0  0  0  0  0
    0.6765   -0.6829    6.1336 C   0  0  0  0  0  0  0  0  0  0  0  0
    3.9654   -1.2000    2.1806 O   0  0  0  0  0  0  0  0  0  0  0  0
    4.0765   -1.5149    0.7940 C   0  0  1  0  0  0  0  0  0  0  0  0
    4.8156   -0.3424    0.1542 C   0  0  0  0  0  0  0  0  0  0  0  0
    4.8638   -2.8318    0.6445 C   0  0  1  0  0  0  0  0  0  0  0  0
    6.1017   -2.9314    1.5305 C   0  0  2  0  0  0  0  0  0  0  0  0
    7.2334   -2.5273    0.7849 O   0  0  0  0  0  0  0  0  0  0  0  0
    7.6754   -3.5151   -1.5900 H   0  0  0  0  0  0  0  0  0  0  0  0
    9.0204   -4.5840   -1.1021 H   0  0  0  0  0  0  0  0  0  0  0  0
    9.1657   -2.8190   -0.9434 H   0  0  0  0  0  0  0  0  0  0  0  0
    8.7238   -3.8167    1.2958 H   0  0  0  0  0  0  0  0  0  0  0  0
    6.7096   -4.6851    2.6865 H   0  0  0  0  0  0  0  0  0  0  0  0
    3.1165   -4.3364   -0.9966 H   0  0  0  0  0  0  0  0  0  0  0  0
    3.3031   -5.8640   -0.1247 H   0  0  0  0  0  0  0  0  0  0  0  0
    4.6904   -5.1182   -0.8973 H   0  0  0  0  0  0  0  0  0  0  0  0
    1.9916   -3.5033    1.1143 H   0  0  0  0  0  0  0  0  0  0  0  0
    2.4132   -4.9387    2.0017 H   0  0  0  0  0  0  0  0  0  0  0  0
    2.0673   -3.4352    3.7010 H   0  0  0  0  0  0  0  0  0  0  0  0
    3.8158   -3.3815    3.6029 H   0  0  0  0  0  0  0  0  0  0  0  0
    1.9284   -1.3624    2.2016 H   0  0  0  0  0  0  0  0  0  0  0  0
    3.0641    0.7713    3.2010 H   0  0  0  0  0  0  0  0  0  0  0  0
    4.6460    0.4387    4.9009 H   0  0  0  0  0  0  0  0  0  0  0  0
    3.8573    1.9375    5.1359 H   0  0  0  0  0  0  0  0  0  0  0  0
    3.5637   -0.5968    6.8301 H   0  0  0  0  0  0  0  0  0  0  0  0
    4.5142    0.7735    7.2092 H   0  0  0  0  0  0  0  0  0  0  0  0
    1.9723    0.2281    8.1548 H   0  0  0  0  0  0  0  0  0  0  0  0
    3.5405    2.7654    8.5241 H   0  0  0  0  0  0  0  0  0  0  0  0
    3.5736    1.2899    9.4724 H   0  0  0  0  0  0  0  0  0  0  0  0
    2.1203    2.2759    9.4507 H   0  0  0  0  0  0  0  0  0  0  0  0
    1.4346    3.4223    5.9083 H   0  0  0  0  0  0  0  0  0  0  0  0
   -0.3581    1.5774    8.1774 H   0  0  0  0  0  0  0  0  0  0  0  0
   -0.2006    3.7382    8.2727 H   0  0  0  0  0  0  0  0  0  0  0  0
   -1.2634    0.5898    6.5144 H   0  0  0  0  0  0  0  0  0  0  0  0
   -2.5707    1.7657    5.0963 H   0  0  0  0  0  0  0  0  0  0  0  0
   -1.8291   -0.2198    4.1096 H   0  0  0  0  0  0  0  0  0  0  0  0
   -1.8278    0.9119    2.8012 H   0  0  0  0  0  0  0  0  0  0  0  0
    0.1867   -0.7905    3.4893 H   0  0  0  0  0  0  0  0  0  0  0  0
    0.2806    0.4228    2.3197 H   0  0  0  0  0  0  0  0  0  0  0  0
    2.2197    2.9351    3.9926 H   0  0  0  0  0  0  0  0  0  0  0  0
    1.0550    3.2693    1.8703 H   0  0  0  0  0  0  0  0  0  0  0  0
    0.4423    3.9570    5.0676 H   0  0  0  0  0  0  0  0  0  0  0  0
    0.1862    4.6458    2.4164 H   0  0  0  0  0  0  0  0  0  0  0  0
   -1.6877    3.8806    4.9771 H   0  0  0  0  0  0  0  0  0  0  0  0
   -1.6995    2.9942    2.0858 H   0  0  0  0  0  0  0  0  0  0  0  0
   -2.2000    4.5353    2.7595 H   0  0  0  0  0  0  0  0  0  0  0  0
   -3.1481    3.0946    3.0943 H   0  0  0  0  0  0  0  0  0  0  0  0
    0.0119   -1.2827    5.5221 H   0  0  0  0  0  0  0  0  0  0  0  0
    0.3060   -0.8202    7.1459 H   0  0  0  0  0  0  0  0  0  0  0  0
    1.6367   -1.1789    6.1290 H   0  0  0  0  0  0  0  0  0  0  0  0
    3.0986   -1.5795    0.3003 H   0  0  0  0  0  0  0  0  0  0  0  0
    5.0059   -0.5153   -0.9036 H   0  0  0  0  0  0  0  0  0  0  0  0
    5.7714   -0.1489    0.6441 H   0  0  0  0  0  0  0  0  0  0  0  0
    4.2128    0.5567    0.2409 H   0  0  0  0  0  0  0  0  0  0  0  0
    5.1882   -2.8906   -0.3952 H   0  0  0  0  0  0  0  0  0  0  0  0
    6.0092   -2.4267    2.4913 H   0  0  0  0  0  0  0  0  0  0  0  0
  1  2  1  0
  1 40  1  0
  1 41  1  0
  1 42  1  0
  2 39  1  0
  2  3  1  0
  2 43  1  1
  3  4  1  0
  4 38  1  0
  4  5  1  0
  4 44  1  1
  5  6  1  0
  6 37  1  0
  6  7  1  6
  6  8  1  0
  7 45  1  0
  7 46  1  0
  7 47  1  0
  8  9  1  0
  8 48  1  0
  8 49  1  0
  9 10  1  0
  9 50  1  0
  9 51  1  0
 10 11  1  0
 10 34  1  0
 10 52  1  6
 11 12  1  0
 12 25  1  0
 12 13  1  0
 12 53  1  6
 13 14  1  0
 13 54  1  0
 13 55  1  0
 14 15  1  0
 14 56  1  0
 14 57  1  0
 15 16  1  0
 15 17  1  0
 15 58  1  1
 16 59  1  0
 16 60  1  0
 16 61  1  0
 17 32  1  0
 17 18  1  6
 17 19  1  0
 18 62  1  0
 19 20  1  0
 19 21  1  0
 19 63  1  1
 20 64  1  0
 21 32  1  0
 21 22  1  0
 21 65  1  1
 22 30  1  0
 22 23  1  0
 22 66  1  1
 23 24  1  0
 23 67  1  0
 23 68  1  0
 25 24  1  6
 24 69  1  0
 24 70  1  0
 25 26  1  0
 25 32  1  0
 26 27  1  0
 26 28  1  0
 26 71  1  1
 27 72  1  0
 28 29  1  0
 28 30  1  0
 28 73  1  1
 29 74  1  0
 30 31  1  0
 30 75  1  1
 31 76  1  0
 31 77  1  0
 31 78  1  0
 32 33  1  1
 33 79  1  0
 33 80  1  0
 33 81  1  0
 34 35  1  0
 35 36  1  0
 35 37  1  0
 35 82  1  6
 36 83  1  0
 36 84  1  0
 36 85  1  0
 37 38  1  0
 37 86  1  6
 38 39  1  0
 38 87  1  1
M  END
>  <i_m_ct_stereo_status>  (208) 
1

>  <s_m_source_file>  (208) 
/var/tmp/pbs.5076255.sched01/tmprae_yccg/80g5h6lheg.sdf

>  <i_m_source_file_index>  (208) 
15

>  <i_lp_mmshare_version>  (208) 
48012

>  <i_f3d_flags>  (208) 
0

>  <s_epik_input>  (208) 
W0NIM11bQ0BASF0oTzEpT1tDQEhdKE8yKVtDQEBIXTFbQ0BASF0oW0NAQF0yM1tDSDNdKVtDQEhdKFtDSDNdKU9bQ0BASF0oW0NIMl1bQ0gyXTMpT1tDQEBIXTRbQ0gyXVtDSDJdW0NAQEhdKFtDSDNdKVtDQEBdKFtPSF0pKFtDQEBdNShbQ0BAXTQ2NylbQ0gzXSlbQ0BASF0oW09IXSlbQ0BIXTVbQ0BIXShbQ0gyXVtDSDJdNilbQ0BIXShbQ0gzXSlbQ0BIXShbT0hdKVtDQEBIXTdbT0hd

>  <s_epik_cmdline>  (208) 
J2VwaWtfcHl0aG9uJywgJy1waHQnLCAnMi4wJywgJy1waCcsICc3LjAnLCAnLXRuJywgJzgnLCAnLW1hJywgJzIwMCcsICctaW1hZScsICc8aW5maWxlLm1hZT4nLCAnLW9tYWUnLCAnPG91dGZpbGUubWFlPic=

>  <r_lp_tautomer_probability>  (208) 
1

>  <r_epik_Ionization_Penalty>  (208) 
2.14123e-06

>  <r_epik_Ionization_Penalty_Charging>  (208) 
0

>  <r_epik_Ionization_Penalty_Neutral>  (208) 
2.14123e-06

>  <r_epik_State_Penalty>  (208) 
-0

>  <r_epik_Charging_Adjusted_Penalty>  (208) 
0

>  <i_epik_Tot_Q>  (208) 
0

>  <i_epik_Tot_abs_Q>  (208) 
0

>  <s_epik_Chemistry_Notes>  (208) 
This compound contains an acetal/aminal-like group ( X-CH(R)-Y where X, Y are N, S, or O) that may be acid/base labile, releasing an aldehyde.

>  <s_lp_Force_Field>  (208) 
OPLS3e

>  <r_lp_Energy>  (208) 
101.34

>  <b_lp_Chiralities_Consistent>  (208) 
1

>  <s_lp_Variant>  (208) 
69:0-1

>  <s_i_glide_gridfile>  (208) 
pfpi4k_grid

>  <i_i_glide_lignum>  (208) 
15

>  <i_i_glide_rotatable_bonds>  (208) 
6

>  <r_i_docking_score>  (208) 
-3.0269

>  <r_i_glide_ligand_efficiency>  (208) 
-0.0776129

>  <r_i_glide_ligand_efficiency_sa>  (208) 
-0.263202

>  <r_i_glide_ligand_efficiency_ln>  (208) 
-0.649054

>  <r_i_glide_gscore>  (208) 
-3.0269

>  <r_i_glide_lipo>  (208) 
-0.23378

>  <r_i_glide_hbond>  (208) 
0

>  <r_i_glide_metal>  (208) 
-0

>  <r_i_glide_rewards>  (208) 
-0.333897

>  <r_i_glide_evdw>  (208) 
-23.9904

>  <r_i_glide_ecoul>  (208) 
-8.79445

>  <r_i_glide_erotb>  (208) 
0.0642524

>  <r_i_glide_esite>  (208) 
-0.00478934

>  <r_i_glide_emodel>  (208) 
-37.0408

>  <r_i_glide_energy>  (208) 
-32.7849

>  <r_i_glide_einternal>  (208) 
3.97059

>  <r_i_glide_intrahb_reward>  (208) 
-0

>  <i_i_glide_confnum>  (208) 
3

>  <i_i_glide_posenum>  (208) 
32

>  <r_i_glide_eff_state_penalty>  (208) 
0

>  <ligand_id>  (208) 
69

>  <original_smiles>  (208) 
CC1OC2OC3(C)CCC(OC4CCC(C)C5(O)C(O)C6C7CCC4(C(O)C(O)C7C)C65C)OC(C)C3C2O1

>  <smiles>  (208) 
[H]OC1([H])C([H])(O[H])C23C([H])([H])C([H])([H])C([H])(C1([H])C([H])([H])[H])C1([H])C([H])(O[H])C(O[H])(C([H])(C([H])([H])[H])C([H])([H])C([H])([H])C2([H])OC2([H])OC([H])(C([H])([H])[H])C4([H])C5([H])OC([H])(C([H])([H])[H])OC5([H])OC4(C([H])([H])[H])C([H])([H])C2([H])[H])C13C([H])([H])[H]

$$$$
69:0:2
     RDKit          3D

 87 93  0  0  1  0  0  0  0  0999 V2000
    8.7927   -4.0029   -0.6073 C   0  0  0  0  0  0  0  0  0  0  0  0
    8.1286   -3.9290    0.7614 C   0  0  2  0  0  0  0  0  0  0  0  0
    7.2807   -5.0114    0.9510 O   0  0  0  0  0  0  0  0  0  0  0  0
    6.3791   -4.5641    1.8973 C   0  0  2  0  0  0  0  0  0  0  0  0
    5.1283   -5.1603    1.8218 O   0  0  0  0  0  0  0  0  0  0  0  0
    4.2819   -4.4438    0.9427 C   0  0  1  0  0  0  0  0  0  0  0  0
    4.1041   -5.3584   -0.2650 C   0  0  0  0  0  0  0  0  0  0  0  0
    2.9128   -4.2140    1.6255 C   0  0  0  0  0  0  0  0  0  0  0  0
    2.9122   -3.2660    2.8402 C   0  0  0  0  0  0  0  0  0  0  0  0
    2.7613   -1.7815    2.4163 C   0  0  1  0  0  0  0  0  0  0  0  0
    2.5382   -1.0667    3.5962 O   0  0  0  0  0  0  0  0  0  0  0  0
    2.4238    0.3606    3.4742 C   0  0  2  0  0  0  0  0  0  0  0  0
    3.7965    1.0298    3.8753 C   0  0  0  0  0  0  0  0  0  0  0  0
    4.4275    0.8947    5.3096 C   0  0  0  0  0  0  0  0  0  0  0  0
    3.7724    1.5785    6.5673 C   0  0  1  0  0  0  0  0  0  0  0  0
    4.6987    2.6049    7.2530 C   0  0  0  0  0  0  0  0  0  0  0  0
    2.3558    2.0977    6.2668 C   0  0  2  0  0  0  0  0  0  0  0  0
    2.6815    3.2216    5.4705 O   0  0  0  0  0  0  0  0  0  0  0  0
    1.2537    2.4631    7.2960 C   0  0  1  0  0  0  0  0  0  0  0  0
    0.8540    3.8079    7.4416 O   0  0  0  0  0  0  0  0  0  0  0  0
    0.2667    1.5054    6.5874 C   0  0  1  0  0  0  0  0  0  0  0  0
   -1.0695    1.6875    5.8600 C   0  0  2  0  0  0  0  0  0  0  0  0
   -1.3015    0.4198    4.9842 C   0  0  0  0  0  0  0  0  0  0  0  0
   -0.1390    0.0452    4.0176 C   0  0  0  0  0  0  0  0  0  0  0  0
    1.1362    0.9297    4.1936 C   0  0  2  0  0  0  0  0  0  0  0  0
    0.7856    2.3306    3.4634 C   0  0  1  0  0  0  0  0  0  0  0  0
    0.2485    2.0712    2.1754 O   0  0  0  0  0  0  0  0  0  0  0  0
   -0.0787    3.4312    4.1869 C   0  0  1  0  0  0  0  0  0  0  0  0
   -0.4468    4.5326    3.3774 O   0  0  0  0  0  0  0  0  0  0  0  0
   -1.2686    3.0009    5.0601 C   0  0  1  0  0  0  0  0  0  0  0  0
   -2.6186    3.0542    4.3264 C   0  0  0  0  0  0  0  0  0  0  0  0
    1.4151    0.9767    5.7332 C   0  0  1  0  0  0  0  0  0  0  0  0
    1.7182   -0.4566    6.2835 C   0  0  0  0  0  0  0  0  0  0  0  0
    3.9429   -1.3577    1.8009 O   0  0  0  0  0  0  0  0  0  0  0  0
    4.2044   -1.8549    0.4890 C   0  0  1  0  0  0  0  0  0  0  0  0
    4.9621   -0.7410   -0.2393 C   0  0  0  0  0  0  0  0  0  0  0  0
    5.0352   -3.1547    0.5507 C   0  0  1  0  0  0  0  0  0  0  0  0
    6.2127   -3.1104    1.5135 C   0  0  2  0  0  0  0  0  0  0  0  0
    7.3813   -2.7621    0.7959 O   0  0  0  0  0  0  0  0  0  0  0  0
    8.0465   -3.8889   -1.3901 H   0  0  0  0  0  0  0  0  0  0  0  0
    9.3453   -4.9358   -0.7145 H   0  0  0  0  0  0  0  0  0  0  0  0
    9.4665   -3.1529   -0.6984 H   0  0  0  0  0  0  0  0  0  0  0  0
    8.8630   -3.9079    1.5716 H   0  0  0  0  0  0  0  0  0  0  0  0
    6.7912   -4.7082    2.8918 H   0  0  0  0  0  0  0  0  0  0  0  0
    3.4910   -4.8332   -0.9952 H   0  0  0  0  0  0  0  0  0  0  0  0
    3.6228   -6.2970    0.0121 H   0  0  0  0  0  0  0  0  0  0  0  0
    5.0583   -5.6095   -0.7327 H   0  0  0  0  0  0  0  0  0  0  0  0
    2.1745   -3.8822    0.8954 H   0  0  0  0  0  0  0  0  0  0  0  0
    2.5651   -5.1869    1.9771 H   0  0  0  0  0  0  0  0  0  0  0  0
    2.0534   -3.5127    3.4631 H   0  0  0  0  0  0  0  0  0  0  0  0
    3.7975   -3.3808    3.4586 H   0  0  0  0  0  0  0  0  0  0  0  0
    1.9138   -1.6245    1.7578 H   0  0  0  0  0  0  0  0  0  0  0  0
    2.2964    0.5639    2.4067 H   0  0  0  0  0  0  0  0  0  0  0  0
    4.5486    0.6089    3.2019 H   0  0  0  0  0  0  0  0  0  0  0  0
    3.7859    2.0785    3.6027 H   0  0  0  0  0  0  0  0  0  0  0  0
    4.5748   -0.1656    5.5159 H   0  0  0  0  0  0  0  0  0  0  0  0
    5.4452    1.2795    5.2310 H   0  0  0  0  0  0  0  0  0  0  0  0
    3.6949    0.8007    7.3287 H   0  0  0  0  0  0  0  0  0  0  0  0
    4.9870    3.4209    6.5908 H   0  0  0  0  0  0  0  0  0  0  0  0
    5.6101    2.1147    7.5844 H   0  0  0  0  0  0  0  0  0  0  0  0
    4.2162    3.0363    8.1310 H   0  0  0  0  0  0  0  0  0  0  0  0
    1.8602    3.5565    5.1551 H   0  0  0  0  0  0  0  0  0  0  0  0
    1.5110    2.0662    8.2777 H   0  0  0  0  0  0  0  0  0  0  0  0
    1.4381    4.2011    8.0716 H   0  0  0  0  0  0  0  0  0  0  0  0
    0.0426    0.7827    7.3892 H   0  0  0  0  0  0  0  0  0  0  0  0
   -1.8646    1.6878    6.6103 H   0  0  0  0  0  0  0  0  0  0  0  0
   -1.4455   -0.4168    5.6604 H   0  0  0  0  0  0  0  0  0  0  0  0
   -2.2407    0.4709    4.4275 H   0  0  0  0  0  0  0  0  0  0  0  0
    0.1003   -1.0052    4.1648 H   0  0  0  0  0  0  0  0  0  0  0  0
   -0.5090    0.0273    2.9951 H   0  0  0  0  0  0  0  0  0  0  0  0
    1.7287    2.8248    3.2268 H   0  0  0  0  0  0  0  0  0  0  0  0
    0.2195    2.8812    1.6518 H   0  0  0  0  0  0  0  0  0  0  0  0
    0.5581    3.9482    4.8909 H   0  0  0  0  0  0  0  0  0  0  0  0
   -0.2068    4.3824    2.4472 H   0  0  0  0  0  0  0  0  0  0  0  0
   -1.3598    3.7804    5.8254 H   0  0  0  0  0  0  0  0  0  0  0  0
   -2.6273    2.4397    3.4264 H   0  0  0  0  0  0  0  0  0  0  0  0
   -2.8707    4.0697    4.0302 H   0  0  0  0  0  0  0  0  0  0  0  0
   -3.3922    2.7172    5.0050 H   0  0  0  0  0  0  0  0  0  0  0  0
    0.9081   -1.1647    6.1313 H   0  0  0  0  0  0  0  0  0  0  0  0
    1.8679   -0.4418    7.3639 H   0  0  0  0  0  0  0  0  0  0  0  0
    2.6168   -0.9156    5.8937 H   0  0  0  0  0  0  0  0  0  0  0  0
    3.2733   -2.0137   -0.0614 H   0  0  0  0  0  0  0  0  0  0  0  0
    5.2386   -1.0387   -1.2493 H   0  0  0  0  0  0  0  0  0  0  0  0
    5.8775   -0.4625    0.2929 H   0  0  0  0  0  0  0  0  0  0  0  0
    4.3304    0.1430   -0.3080 H   0  0  0  0  0  0  0  0  0  0  0  0
    5.4328   -3.3177   -0.4514 H   0  0  0  0  0  0  0  0  0  0  0  0
    6.0494   -2.4948    2.3976 H   0  0  0  0  0  0  0  0  0  0  0  0
  1  2  1  0
  1 40  1  0
  1 41  1  0
  1 42  1  0
  2 39  1  0
  2  3  1  0
  2 43  1  1
  3  4  1  0
  4 38  1  0
  4  5  1  0
  4 44  1  1
  5  6  1  0
  6 37  1  0
  6  7  1  6
  6  8  1  0
  7 45  1  0
  7 46  1  0
  7 47  1  0
  8  9  1  0
  8 48  1  0
  8 49  1  0
  9 10  1  0
  9 50  1  0
  9 51  1  0
 10 11  1  0
 10 34  1  0
 10 52  1  6
 11 12  1  0
 12 25  1  0
 12 13  1  0
 12 53  1  6
 13 14  1  0
 13 54  1  0
 13 55  1  0
 14 15  1  0
 14 56  1  0
 14 57  1  0
 15 16  1  0
 15 17  1  0
 15 58  1  1
 16 59  1  0
 16 60  1  0
 16 61  1  0
 17 32  1  0
 17 18  1  6
 17 19  1  0
 18 62  1  0
 19 20  1  0
 19 21  1  0
 19 63  1  1
 20 64  1  0
 21 32  1  0
 21 22  1  0
 21 65  1  1
 22 30  1  0
 22 23  1  0
 22 66  1  1
 23 24  1  0
 23 67  1  0
 23 68  1  0
 25 24  1  1
 24 69  1  0
 24 70  1  0
 25 26  1  0
 25 32  1  0
 26 27  1  0
 26 28  1  0
 26 71  1  6
 27 72  1  0
 28 29  1  0
 28 30  1  0
 28 73  1  1
 29 74  1  0
 30 31  1  0
 30 75  1  1
 31 76  1  0
 31 77  1  0
 31 78  1  0
 32 33  1  1
 33 79  1  0
 33 80  1  0
 33 81  1  0
 34 35  1  0
 35 36  1  0
 35 37  1  0
 35 82  1  6
 36 83  1  0
 36 84  1  0
 36 85  1  0
 37 38  1  0
 37 86  1  6
 38 39  1  0
 38 87  1  1
M  END
>  <i_m_ct_stereo_status>  (209) 
1

>  <s_m_source_file>  (209) 
/var/tmp/pbs.5076255.sched01/tmprae_yccg/80g5h6lheg.sdf

>  <i_m_source_file_index>  (209) 
15

>  <i_lp_mmshare_version>  (209) 
48012

>  <i_f3d_flags>  (209) 
0

>  <s_epik_input>  (209) 
W0NIM11bQ0BASF0oTzEpT1tDQEhdKE8yKVtDQEBIXTFbQ0BASF0oW0NAQF0yM1tDSDNdKVtDQEhdKFtDSDNdKU9bQ0BASF0oW0NIMl1bQ0gyXTMpT1tDQEBIXTRbQ0gyXVtDSDJdW0NAQEhdKFtDSDNdKVtDQEBdKFtPSF0pKFtDQEBdNShbQ0BAXTQ2NylbQ0gzXSlbQ0BASF0oW09IXSlbQ0BIXTVbQ0BIXShbQ0gyXVtDSDJdNilbQ0BIXShbQ0gzXSlbQ0BIXShbT0hdKVtDQEBIXTdbT0hd

>  <s_epik_cmdline>  (209) 
J2VwaWtfcHl0aG9uJywgJy1waHQnLCAnMi4wJywgJy1waCcsICc3LjAnLCAnLXRuJywgJzgnLCAnLW1hJywgJzIwMCcsICctaW1hZScsICc8aW5maWxlLm1hZT4nLCAnLW9tYWUnLCAnPG91dGZpbGUubWFlPic=

>  <r_lp_tautomer_probability>  (209) 
1

>  <r_epik_Ionization_Penalty>  (209) 
2.14123e-06

>  <r_epik_Ionization_Penalty_Charging>  (209) 
0

>  <r_epik_Ionization_Penalty_Neutral>  (209) 
2.14123e-06

>  <r_epik_State_Penalty>  (209) 
-0

>  <r_epik_Charging_Adjusted_Penalty>  (209) 
0

>  <i_epik_Tot_Q>  (209) 
0

>  <i_epik_Tot_abs_Q>  (209) 
0

>  <s_epik_Chemistry_Notes>  (209) 
This compound contains an acetal/aminal-like group ( X-CH(R)-Y where X, Y are N, S, or O) that may be acid/base labile, releasing an aldehyde.

>  <s_lp_Force_Field>  (209) 
OPLS3e

>  <r_lp_Energy>  (209) 
101.34

>  <b_lp_Chiralities_Consistent>  (209) 
1

>  <s_lp_Variant>  (209) 
69:0-1

>  <s_i_glide_gridfile>  (209) 
pfpi4k_grid

>  <i_i_glide_lignum>  (209) 
15

>  <i_i_glide_rotatable_bonds>  (209) 
6

>  <r_i_docking_score>  (209) 
-2.83608

>  <r_i_glide_ligand_efficiency>  (209) 
-0.0727201

>  <r_i_glide_ligand_efficiency_sa>  (209) 
-0.246609

>  <r_i_glide_ligand_efficiency_ln>  (209) 
-0.608137

>  <r_i_glide_gscore>  (209) 
-2.83608

>  <r_i_glide_lipo>  (209) 
-0.152208

>  <r_i_glide_hbond>  (209) 
0

>  <r_i_glide_metal>  (209) 
-0

>  <r_i_glide_rewards>  (209) 
-0.287839

>  <r_i_glide_evdw>  (209) 
-21.5282

>  <r_i_glide_ecoul>  (209) 
-9.17459

>  <r_i_glide_erotb>  (209) 
0.0642524

>  <r_i_glide_esite>  (209) 
-0.00769209

>  <r_i_glide_emodel>  (209) 
-34.7602

>  <r_i_glide_energy>  (209) 
-30.7028

>  <r_i_glide_einternal>  (209) 
3.64526

>  <r_i_glide_intrahb_reward>  (209) 
-0

>  <i_i_glide_confnum>  (209) 
3

>  <i_i_glide_posenum>  (209) 
27

>  <r_i_glide_eff_state_penalty>  (209) 
0

>  <ligand_id>  (209) 
69

>  <original_smiles>  (209) 
CC1OC2OC3(C)CCC(OC4CCC(C)C5(O)C(O)C6C7CCC4(C(O)C(O)C7C)C65C)OC(C)C3C2O1

>  <smiles>  (209) 
[H]OC1([H])C([H])(O[H])C23C([H])([H])C([H])([H])C([H])(C1([H])C([H])([H])[H])C1([H])C([H])(O[H])C(O[H])(C([H])(C([H])([H])[H])C([H])([H])C([H])([H])C2([H])OC2([H])OC([H])(C([H])([H])[H])C4([H])C5([H])OC([H])(C([H])([H])[H])OC5([H])OC4(C([H])([H])[H])C([H])([H])C2([H])[H])C13C([H])([H])[H]

$$$$
70:0:0
     RDKit          3D

 80 86  0  0  1  0  0  0  0  0999 V2000
    2.9470    0.4711    1.5450 C   0  0  0  0  0  0  0  0  0  0  0  0
    3.2820   -0.6579    2.5571 C   0  0  2  0  0  0  0  0  0  0  0  0
    3.8057   -1.9730    1.9147 C   0  0  2  0  0  0  0  0  0  0  0  0
    2.4444   -2.5834    1.5985 C   0  0  0  0  0  0  0  0  0  0  0  0
    1.8962   -2.7380    2.9555 C   0  0  1  0  0  0  0  0  0  0  0  0
    2.5998   -3.9781    3.7011 C   0  0  2  0  0  0  0  0  0  0  0  0
    2.6224   -3.6336    5.2492 C   0  0  1  0  0  0  0  0  0  0  0  0
    3.9181   -3.4817    5.7874 O   0  0  0  0  0  0  0  0  0  0  0  0
    1.8497   -2.3732    5.6787 C   0  0  0  0  0  0  0  0  0  0  0  0
    2.3799   -1.1487    4.9394 C   0  0  0  0  0  0  0  0  0  0  0  0
    2.0796   -1.2346    3.4276 C   0  0  1  0  0  0  0  0  0  0  0  0
    0.7508   -0.4726    3.1776 C   0  0  0  0  0  0  0  0  0  0  0  0
    3.8949   -4.8153    3.0567 C   0  0  1  0  0  0  0  0  0  0  0  0
    4.9516   -3.8824    2.9463 O   0  0  0  0  0  0  0  0  0  0  0  0
    4.5018   -2.4578    3.0603 O   0  0  0  0  0  0  0  0  0  0  0  0
    4.4658   -5.8937    4.1435 C   0  0  1  0  0  0  0  0  0  0  0  0
    3.4771   -6.3429    5.0496 O   0  0  0  0  0  0  0  0  0  0  0  0
    5.3690   -7.1549    3.7575 C   0  0  1  0  0  0  0  0  0  0  0  0
    4.6236   -8.5430    3.9235 C   0  0  1  0  0  0  0  0  0  0  0  0
    3.2959   -8.6110    3.1995 C   0  0  0  0  0  0  0  0  0  0  0  0
    3.7206   -8.9948    1.7907 C   0  0  2  0  0  0  0  0  0  0  0  0
    4.6849  -10.1282    2.1282 C   0  0  0  0  0  0  0  0  0  0  0  0
    5.3570   -9.7316    3.3850 N   0  0  0  0  0  0  0  0  0  0  0  0
    4.3090   -7.9561    0.9577 O   0  0  0  0  0  0  0  0  0  0  0  0
    4.9365   -6.7214    1.3933 C   0  0  2  0  0  0  0  0  0  0  0  0
    6.0875   -6.8876    2.4223 C   0  0  0  0  0  0  0  0  0  0  0  0
    7.0334   -5.6552    2.5642 C   0  0  0  0  0  0  0  0  0  0  0  0
    7.1058   -7.9706    1.9351 C   0  0  0  0  0  0  0  0  0  0  0  0
    3.9444   -5.4510    1.5350 C   0  0  1  0  0  0  0  0  0  0  0  0
    2.5079   -5.9534    1.1443 C   0  0  0  0  0  0  0  0  0  0  0  0
    4.3707   -4.4815    0.2662 C   0  0  0  0  0  0  0  0  0  0  0  0
    5.3434   -3.3437    0.4521 N   0  0  1  0  0  0  0  0  0  0  0  0
    6.3655   -3.2946   -0.6312 C   0  0  0  0  0  0  0  0  0  0  0  0
    4.7438   -1.9921    0.6847 C   0  0  0  0  0  0  0  0  0  0  0  0
    2.1970    0.2011    0.8046 H   0  0  0  0  0  0  0  0  0  0  0  0
    3.8376    0.7873    1.0010 H   0  0  0  0  0  0  0  0  0  0  0  0
    2.5804    1.3547    2.0682 H   0  0  0  0  0  0  0  0  0  0  0  0
    4.0544   -0.2313    3.1906 H   0  0  0  0  0  0  0  0  0  0  0  0
    1.8393   -1.9225    0.9755 H   0  0  0  0  0  0  0  0  0  0  0  0
    2.3489   -3.4931    1.0793 H   0  0  0  0  0  0  0  0  0  0  0  0
    0.8278   -2.9683    2.8779 H   0  0  0  0  0  0  0  0  0  0  0  0
    1.8195   -4.7354    3.6488 H   0  0  0  0  0  0  0  0  0  0  0  0
    2.1330   -4.4362    5.8009 H   0  0  0  0  0  0  0  0  0  0  0  0
    4.3424   -2.7667    5.3299 H   0  0  0  0  0  0  0  0  0  0  0  0
    0.7848   -2.4903    5.5029 H   0  0  0  0  0  0  0  0  0  0  0  0
    1.9498   -2.2194    6.7518 H   0  0  0  0  0  0  0  0  0  0  0  0
    1.9394   -0.2407    5.3611 H   0  0  0  0  0  0  0  0  0  0  0  0
    3.4451   -1.0451    5.1233 H   0  0  0  0  0  0  0  0  0  0  0  0
   -0.0637   -0.8898    3.7774 H   0  0  0  0  0  0  0  0  0  0  0  0
    0.4239   -0.5209    2.1377 H   0  0  0  0  0  0  0  0  0  0  0  0
    0.8269    0.5816    3.4419 H   0  0  0  0  0  0  0  0  0  0  0  0
    5.1250   -5.3283    4.7996 H   0  0  0  0  0  0  0  0  0  0  0  0
    3.1978   -5.5963    5.5667 H   0  0  0  0  0  0  0  0  0  0  0  0
    6.1507   -7.2019    4.5142 H   0  0  0  0  0  0  0  0  0  0  0  0
    4.4749   -8.7307    4.9863 H   0  0  0  0  0  0  0  0  0  0  0  0
    2.7035   -9.4249    3.6261 H   0  0  0  0  0  0  0  0  0  0  0  0
    2.6662   -7.7376    3.2954 H   0  0  0  0  0  0  0  0  0  0  0  0
    2.8744   -9.3971    1.2388 H   0  0  0  0  0  0  0  0  0  0  0  0
    4.1003  -11.0259    2.3610 H   0  0  0  0  0  0  0  0  0  0  0  0
    5.3642  -10.4038    1.3141 H   0  0  0  0  0  0  0  0  0  0  0  0
    6.3212   -9.5054    3.2122 H   0  0  0  0  0  0  0  0  0  0  0  0
    5.5429   -6.5724    0.5025 H   0  0  0  0  0  0  0  0  0  0  0  0
    6.9246   -4.9569    1.7389 H   0  0  0  0  0  0  0  0  0  0  0  0
    8.0941   -5.9101    2.5907 H   0  0  0  0  0  0  0  0  0  0  0  0
    6.8940   -5.1176    3.5024 H   0  0  0  0  0  0  0  0  0  0  0  0
    7.8494   -7.5604    1.2481 H   0  0  0  0  0  0  0  0  0  0  0  0
    6.6625   -8.7599    1.3461 H   0  0  0  0  0  0  0  0  0  0  0  0
    7.6591   -8.4031    2.7702 H   0  0  0  0  0  0  0  0  0  0  0  0
    2.4108   -6.0547    0.0679 H   0  0  0  0  0  0  0  0  0  0  0  0
    1.6985   -5.3247    1.4917 H   0  0  0  0  0  0  0  0  0  0  0  0
    2.2320   -6.9139    1.5355 H   0  0  0  0  0  0  0  0  0  0  0  0
    4.7628   -5.1040   -0.5331 H   0  0  0  0  0  0  0  0  0  0  0  0
    3.5334   -4.1206   -0.3195 H   0  0  0  0  0  0  0  0  0  0  0  0
    5.9032   -3.0900   -1.5977 H   0  0  0  0  0  0  0  0  0  0  0  0
    6.9005   -4.2431   -0.7128 H   0  0  0  0  0  0  0  0  0  0  0  0
    7.1058   -2.5169   -0.4308 H   0  0  0  0  0  0  0  0  0  0  0  0
    4.1869   -1.6793   -0.2035 H   0  0  0  0  0  0  0  0  0  0  0  0
    5.5429   -1.2574    0.8288 H   0  0  0  0  0  0  0  0  0  0  0  0
    5.8324   -3.5431    1.3058 H   0  0  0  0  0  0  0  0  0  0  0  0
    5.2868  -10.5016    4.0299 H   0  0  0  0  0  0  0  0  0  0  0  0
  1  2  1  0
  1 35  1  0
  1 36  1  0
  1 37  1  0
  2 11  1  0
  2  3  1  0
  2 38  1  1
  3 15  1  0
  3 34  1  6
  3  4  1  0
  4  5  1  0
  4 39  1  0
  4 40  1  0
  5 11  1  0
  5  6  1  0
  5 41  1  6
  6  7  1  0
  6 13  1  0
  6 42  1  1
  7  8  1  0
  7  9  1  0
  7 43  1  1
  8 44  1  0
  9 10  1  0
  9 45  1  0
  9 46  1  0
 10 11  1  0
 10 47  1  0
 10 48  1  0
 11 12  1  1
 12 49  1  0
 12 50  1  0
 12 51  1  0
 13 29  1  0
 13 14  1  6
 13 16  1  0
 14 15  1  0
 16 17  1  0
 16 18  1  0
 16 52  1  1
 17 53  1  0
 18 26  1  0
 18 19  1  0
 18 54  1  1
 19 23  1  0
 19 20  1  0
 19 55  1  1
 20 21  1  0
 20 56  1  0
 20 57  1  0
 21 22  1  0
 21 24  1  0
 21 58  1  6
 22 23  1  0
 22 59  1  0
 22 60  1  0
 23 61  1  0
 23 80  1  0
 24 25  1  0
 25 26  1  0
 25 29  1  0
 25 62  1  6
 26 27  1  0
 26 28  1  0
 27 63  1  0
 27 64  1  0
 27 65  1  0
 28 66  1  0
 28 67  1  0
 28 68  1  0
 29 30  1  6
 29 31  1  0
 30 69  1  0
 30 70  1  0
 30 71  1  0
 31 32  1  0
 31 72  1  0
 31 73  1  0
 32 33  1  0
 32 34  1  0
 32 79  1  1
 33 74  1  0
 33 75  1  0
 33 76  1  0
 34 77  1  0
 34 78  1  0
M  CHG  2  23   1  32   1
M  END
>  <i_m_ct_stereo_status>  (210) 
1

>  <s_m_source_file>  (210) 
/var/tmp/pbs.5076255.sched01/tmprae_yccg/80g5h6lheg.sdf

>  <i_m_source_file_index>  (210) 
16

>  <i_lp_mmshare_version>  (210) 
48012

>  <i_f3d_flags>  (210) 
0

>  <s_epik_input>  (210) 
W0NIM11bQ0BIXShbQ0BdMTIzKVtDQEBdNChbQ0gzXSlbQ0BASF0oW0NIMl0xKVtDQEhdKFtDQEBIXShbT0hdKVtDSDJdW0NIMl00KVtDQF01KE9PMilbQ0BAXShbQ0gzXSkoW0NIMl1OKFtDSDNdKVtDSDJdMylbQ0BASF02T1tDQEBIXTdbQ0gyXVtDQEBIXShbTkhdW0NIMl03KVtDQEhdKFtDQEBIXTVbT0hdKUM2KFtDSDNdKVtDSDNd

>  <s_epik_cmdline>  (210) 
J2VwaWtfcHl0aG9uJywgJy1waHQnLCAnMi4wJywgJy1waCcsICc3LjAnLCAnLXRuJywgJzgnLCAnLW1hJywgJzIwMCcsICctaW1hZScsICc8aW5maWxlLm1hZT4nLCAnLW9tYWUnLCAnPG91dGZpbGUubWFlPic=

>  <r_lp_tautomer_probability>  (210) 
1

>  <r_epik_Ionization_Penalty>  (210) 
0.0015106

>  <r_epik_Ionization_Penalty_Charging>  (210) 
0.00150298

>  <r_epik_Ionization_Penalty_Neutral>  (210) 
7.61936e-06

>  <r_epik_State_Penalty>  (210) 
-0

>  <r_epik_Charging_Adjusted_Penalty>  (210) 
0.00150298

>  <i_epik_Tot_Q>  (210) 
2

>  <i_epik_Tot_abs_Q>  (210) 
2

>  <s_lp_Force_Field>  (210) 
OPLS3e

>  <r_lp_Energy>  (210) 
209.399

>  <b_lp_Chiralities_Consistent>  (210) 
1

>  <s_lp_Variant>  (210) 
70:0-1

>  <s_i_glide_gridfile>  (210) 
pfpi4k_grid

>  <i_i_glide_lignum>  (210) 
16

>  <i_i_glide_rotatable_bonds>  (210) 
2

>  <r_i_docking_score>  (210) 
-2.90674

>  <r_i_glide_ligand_efficiency>  (210) 
-0.0854923

>  <r_i_glide_ligand_efficiency_sa>  (210) 
-0.276962

>  <r_i_glide_ligand_efficiency_ln>  (210) 
-0.64218

>  <r_i_glide_gscore>  (210) 
-2.90674

>  <r_i_glide_lipo>  (210) 
-0.477952

>  <r_i_glide_hbond>  (210) 
0

>  <r_i_glide_metal>  (210) 
-0

>  <r_i_glide_rewards>  (210) 
-0.645469

>  <r_i_glide_evdw>  (210) 
-20.3752

>  <r_i_glide_ecoul>  (210) 
-5.05369

>  <r_i_glide_erotb>  (210) 
0

>  <r_i_glide_esite>  (210) 
-0.00650409

>  <r_i_glide_emodel>  (210) 
-35.9165

>  <r_i_glide_energy>  (210) 
-25.4289

>  <r_i_glide_einternal>  (210) 
0.337032

>  <r_i_glide_intrahb_reward>  (210) 
-0.5

>  <i_i_glide_confnum>  (210) 
2

>  <i_i_glide_posenum>  (210) 
7

>  <r_i_glide_eff_state_penalty>  (210) 
0

>  <ligand_id>  (210) 
70

>  <original_smiles>  (210) 
CC1C23CC4C(C(O)CCC41C)C1(OO2)C(O)C2C4CC(CN4)OC(C2(C)C)C1(C)CN(C)C3

>  <smiles>  (210) 
[H]OC1([H])C([H])([H])C([H])([H])C2(C([H])([H])[H])C3([H])C([H])([H])C4(OOC5(C([H])(O[H])C6([H])C(C([H])([H])[H])(C([H])([H])[H])C([H])(OC7([H])C([H])([H])C6([H])[N+]([H])([H])C7([H])[H])C5(C([H])([H])[H])C([H])([H])[N+]([H])(C([H])([H])[H])C4([H])[H])C13[H])C2([H])C([H])([H])[H]

$$$$
70:0:1
     RDKit          3D

 80 86  0  0  1  0  0  0  0  0999 V2000
    3.4655    0.1111    1.4529 C   0  0  0  0  0  0  0  0  0  0  0  0
    3.8719   -1.0205    2.4355 C   0  0  2  0  0  0  0  0  0  0  0  0
    3.7832   -2.4535    1.8508 C   0  0  2  0  0  0  0  0  0  0  0  0
    2.3029   -2.6727    2.1233 C   0  0  0  0  0  0  0  0  0  0  0  0
    2.2814   -2.6117    3.5935 C   0  0  1  0  0  0  0  0  0  0  0  0
    2.8903   -3.9643    4.2182 C   0  0  2  0  0  0  0  0  0  0  0  0
    3.5750   -3.5714    5.5932 C   0  0  1  0  0  0  0  0  0  0  0  0
    4.9764   -3.7324    5.6120 O   0  0  0  0  0  0  0  0  0  0  0  0
    3.3479   -2.1279    6.0810 C   0  0  0  0  0  0  0  0  0  0  0  0
    3.8437   -1.1362    5.0296 C   0  0  0  0  0  0  0  0  0  0  0  0
    2.9880   -1.1992    3.7487 C   0  0  1  0  0  0  0  0  0  0  0  0
    1.8897   -0.1076    3.8741 C   0  0  0  0  0  0  0  0  0  0  0  0
    3.5997   -5.1617    3.2924 C   0  0  1  0  0  0  0  0  0  0  0  0
    4.7236   -4.5676    2.6777 O   0  0  0  0  0  0  0  0  0  0  0  0
    4.7158   -3.0733    2.7346 O   0  0  0  0  0  0  0  0  0  0  0  0
    4.2589   -6.3117    4.2579 C   0  0  1  0  0  0  0  0  0  0  0  0
    3.6225   -6.4048    5.5191 O   0  0  0  0  0  0  0  0  0  0  0  0
    4.6087   -7.7906    3.7651 C   0  0  1  0  0  0  0  0  0  0  0  0
    3.6647   -8.9078    4.3735 C   0  0  1  0  0  0  0  0  0  0  0  0
    2.1893   -8.6248    4.1857 C   0  0  0  0  0  0  0  0  0  0  0  0
    1.9421   -9.1729    2.7896 C   0  0  2  0  0  0  0  0  0  0  0  0
    2.6436  -10.5248    2.9287 C   0  0  0  0  0  0  0  0  0  0  0  0
    3.8198  -10.2797    3.7954 N   0  0  0  0  0  0  0  0  0  0  0  0
    2.4110   -8.3782    1.6675 O   0  0  0  0  0  0  0  0  0  0  0  0
    3.4391   -7.3502    1.6663 C   0  0  2  0  0  0  0  0  0  0  0  0
    4.8165   -7.7887    2.2382 C   0  0  0  0  0  0  0  0  0  0  0  0
    6.0166   -6.8613    1.8583 C   0  0  0  0  0  0  0  0  0  0  0  0
    5.2745   -9.1324    1.5869 C   0  0  0  0  0  0  0  0  0  0  0  0
    2.9150   -5.8497    1.9576 C   0  0  1  0  0  0  0  0  0  0  0  0
    1.3616   -5.9452    2.1699 C   0  0  0  0  0  0  0  0  0  0  0  0
    3.0627   -5.0973    0.4916 C   0  0  0  0  0  0  0  0  0  0  0  0
    4.2768   -4.2645    0.1593 N   0  0  1  0  0  0  0  0  0  0  0  0
    4.7935   -4.5334   -1.2066 C   0  0  0  0  0  0  0  0  0  0  0  0
    4.1481   -2.7881    0.3896 C   0  0  0  0  0  0  0  0  0  0  0  0
    2.4529    0.0279    1.0542 H   0  0  0  0  0  0  0  0  0  0  0  0
    4.1433    0.1480    0.5985 H   0  0  0  0  0  0  0  0  0  0  0  0
    3.5360    1.0818    1.9417 H   0  0  0  0  0  0  0  0  0  0  0  0
    4.9053   -0.7999    2.6931 H   0  0  0  0  0  0  0  0  0  0  0  0
    1.6781   -1.9043    1.6611 H   0  0  0  0  0  0  0  0  0  0  0  0
    1.8287   -3.5534    1.8145 H   0  0  0  0  0  0  0  0  0  0  0  0
    1.2438   -2.5377    3.9389 H   0  0  0  0  0  0  0  0  0  0  0  0
    1.9899   -4.4745    4.5564 H   0  0  0  0  0  0  0  0  0  0  0  0
    3.1689   -4.1960    6.3891 H   0  0  0  0  0  0  0  0  0  0  0  0
    5.1536   -4.6624    5.5544 H   0  0  0  0  0  0  0  0  0  0  0  0
    2.3010   -1.9540    6.3092 H   0  0  0  0  0  0  0  0  0  0  0  0
    3.8823   -1.9626    7.0144 H   0  0  0  0  0  0  0  0  0  0  0  0
    3.8356   -0.1257    5.4440 H   0  0  0  0  0  0  0  0  0  0  0  0
    4.8904   -1.3350    4.8111 H   0  0  0  0  0  0  0  0  0  0  0  0
    1.2914   -0.2496    4.7768 H   0  0  0  0  0  0  0  0  0  0  0  0
    1.1905   -0.1098    3.0366 H   0  0  0  0  0  0  0  0  0  0  0  0
    2.3166    0.8941    3.9357 H   0  0  0  0  0  0  0  0  0  0  0  0
    5.2356   -5.9223    4.5311 H   0  0  0  0  0  0  0  0  0  0  0  0
    4.1158   -6.9741    6.0869 H   0  0  0  0  0  0  0  0  0  0  0  0
    5.5826   -8.0253    4.1917 H   0  0  0  0  0  0  0  0  0  0  0  0
    3.8868   -9.0064    5.4376 H   0  0  0  0  0  0  0  0  0  0  0  0
    1.6202   -9.2211    4.9060 H   0  0  0  0  0  0  0  0  0  0  0  0
    1.8844   -7.6048    4.3693 H   0  0  0  0  0  0  0  0  0  0  0  0
    0.8788   -9.3403    2.6315 H   0  0  0  0  0  0  0  0  0  0  0  0
    1.9884  -11.2173    3.4664 H   0  0  0  0  0  0  0  0  0  0  0  0
    2.8916  -11.0134    1.9885 H   0  0  0  0  0  0  0  0  0  0  0  0
    4.6623  -10.3494    3.2457 H   0  0  0  0  0  0  0  0  0  0  0  0
    3.6851   -7.4157    0.6110 H   0  0  0  0  0  0  0  0  0  0  0  0
    5.7769   -6.2025    1.0288 H   0  0  0  0  0  0  0  0  0  0  0  0
    6.9096   -7.4060    1.5444 H   0  0  0  0  0  0  0  0  0  0  0  0
    6.3850   -6.2611    2.6896 H   0  0  0  0  0  0  0  0  0  0  0  0
    5.7741   -8.9796    0.6306 H   0  0  0  0  0  0  0  0  0  0  0  0
    4.4616   -9.7942    1.3153 H   0  0  0  0  0  0  0  0  0  0  0  0
    5.9779   -9.6670    2.2275 H   0  0  0  0  0  0  0  0  0  0  0  0
    0.8481   -6.0776    1.2233 H   0  0  0  0  0  0  0  0  0  0  0  0
    0.9195   -5.0950    2.6800 H   0  0  0  0  0  0  0  0  0  0  0  0
    1.0290   -6.7653    2.7764 H   0  0  0  0  0  0  0  0  0  0  0  0
    2.9618   -5.8365   -0.2951 H   0  0  0  0  0  0  0  0  0  0  0  0
    2.1853   -4.5371    0.1873 H   0  0  0  0  0  0  0  0  0  0  0  0
    4.0804   -4.1807   -1.9583 H   0  0  0  0  0  0  0  0  0  0  0  0
    4.9924   -5.5993   -1.3428 H   0  0  0  0  0  0  0  0  0  0  0  0
    5.7316   -4.0054   -1.3867 H   0  0  0  0  0  0  0  0  0  0  0  0
    3.3941   -2.3786   -0.2888 H   0  0  0  0  0  0  0  0  0  0  0  0
    5.0980   -2.3046    0.1315 H   0  0  0  0  0  0  0  0  0  0  0  0
    4.9889   -4.5555    0.8060 H   0  0  0  0  0  0  0  0  0  0  0  0
    3.8206  -10.9733    4.5250 H   0  0  0  0  0  0  0  0  0  0  0  0
  1  2  1  0
  1 35  1  0
  1 36  1  0
  1 37  1  0
  2 11  1  0
  2  3  1  0
  2 38  1  1
  3 15  1  0
  3 34  1  6
  3  4  1  0
  4  5  1  0
  4 39  1  0
  4 40  1  0
  5 11  1  0
  5  6  1  0
  5 41  1  1
  6  7  1  0
  6 13  1  0
  6 42  1  1
  7  8  1  0
  7  9  1  0
  7 43  1  1
  8 44  1  0
  9 10  1  0
  9 45  1  0
  9 46  1  0
 10 11  1  0
 10 47  1  0
 10 48  1  0
 11 12  1  1
 12 49  1  0
 12 50  1  0
 12 51  1  0
 13 29  1  0
 13 14  1  6
 13 16  1  0
 14 15  1  0
 16 17  1  0
 16 18  1  0
 16 52  1  1
 17 53  1  0
 18 26  1  0
 18 19  1  0
 18 54  1  1
 19 23  1  0
 19 20  1  0
 19 55  1  1
 20 21  1  0
 20 56  1  0
 20 57  1  0
 21 22  1  0
 21 24  1  0
 21 58  1  6
 22 23  1  0
 22 59  1  0
 22 60  1  0
 23 61  1  0
 23 80  1  0
 24 25  1  0
 25 26  1  0
 25 29  1  0
 25 62  1  6
 26 27  1  0
 26 28  1  0
 27 63  1  0
 27 64  1  0
 27 65  1  0
 28 66  1  0
 28 67  1  0
 28 68  1  0
 29 30  1  1
 29 31  1  0
 30 69  1  0
 30 70  1  0
 30 71  1  0
 31 32  1  0
 31 72  1  0
 31 73  1  0
 32 33  1  0
 32 34  1  0
 32 79  1  1
 33 74  1  0
 33 75  1  0
 33 76  1  0
 34 77  1  0
 34 78  1  0
M  CHG  2  23   1  32   1
M  END
>  <i_m_ct_stereo_status>  (211) 
1

>  <s_m_source_file>  (211) 
/var/tmp/pbs.5076255.sched01/tmprae_yccg/80g5h6lheg.sdf

>  <i_m_source_file_index>  (211) 
16

>  <i_lp_mmshare_version>  (211) 
48012

>  <i_f3d_flags>  (211) 
0

>  <s_epik_input>  (211) 
W0NIM11bQ0BIXShbQ0BdMTIzKVtDQEBdNChbQ0gzXSlbQ0BASF0oW0NIMl0xKVtDQEhdKFtDQEBIXShbT0hdKVtDSDJdW0NIMl00KVtDQF01KE9PMilbQ0BAXShbQ0gzXSkoW0NIMl1OKFtDSDNdKVtDSDJdMylbQ0BASF02T1tDQEBIXTdbQ0gyXVtDQEBIXShbTkhdW0NIMl03KVtDQEhdKFtDQEBIXTVbT0hdKUM2KFtDSDNdKVtDSDNd

>  <s_epik_cmdline>  (211) 
J2VwaWtfcHl0aG9uJywgJy1waHQnLCAnMi4wJywgJy1waCcsICc3LjAnLCAnLXRuJywgJzgnLCAnLW1hJywgJzIwMCcsICctaW1hZScsICc8aW5maWxlLm1hZT4nLCAnLW9tYWUnLCAnPG91dGZpbGUubWFlPic=

>  <r_lp_tautomer_probability>  (211) 
1

>  <r_epik_Ionization_Penalty>  (211) 
0.0015106

>  <r_epik_Ionization_Penalty_Charging>  (211) 
0.00150298

>  <r_epik_Ionization_Penalty_Neutral>  (211) 
7.61936e-06

>  <r_epik_State_Penalty>  (211) 
-0

>  <r_epik_Charging_Adjusted_Penalty>  (211) 
0.00150298

>  <i_epik_Tot_Q>  (211) 
2

>  <i_epik_Tot_abs_Q>  (211) 
2

>  <s_lp_Force_Field>  (211) 
OPLS3e

>  <r_lp_Energy>  (211) 
209.399

>  <b_lp_Chiralities_Consistent>  (211) 
1

>  <s_lp_Variant>  (211) 
70:0-1

>  <s_i_glide_gridfile>  (211) 
pfpi4k_grid

>  <i_i_glide_lignum>  (211) 
16

>  <i_i_glide_rotatable_bonds>  (211) 
2

>  <r_i_docking_score>  (211) 
-2.76037

>  <r_i_glide_ligand_efficiency>  (211) 
-0.0811873

>  <r_i_glide_ligand_efficiency_sa>  (211) 
-0.263015

>  <r_i_glide_ligand_efficiency_ln>  (211) 
-0.609843

>  <r_i_glide_gscore>  (211) 
-2.76037

>  <r_i_glide_lipo>  (211) 
-0.188051

>  <r_i_glide_hbond>  (211) 
0

>  <r_i_glide_metal>  (211) 
-0

>  <r_i_glide_rewards>  (211) 
-0.645469

>  <r_i_glide_evdw>  (211) 
-19.4682

>  <r_i_glide_ecoul>  (211) 
-6.2585

>  <r_i_glide_erotb>  (211) 
0

>  <r_i_glide_esite>  (211) 
-0.0146619

>  <r_i_glide_emodel>  (211) 
-35.6527

>  <r_i_glide_energy>  (211) 
-25.7267

>  <r_i_glide_einternal>  (211) 
0.687621

>  <r_i_glide_intrahb_reward>  (211) 
-0.5

>  <i_i_glide_confnum>  (211) 
1

>  <i_i_glide_posenum>  (211) 
12

>  <r_i_glide_eff_state_penalty>  (211) 
0

>  <ligand_id>  (211) 
70

>  <original_smiles>  (211) 
CC1C23CC4C(C(O)CCC41C)C1(OO2)C(O)C2C4CC(CN4)OC(C2(C)C)C1(C)CN(C)C3

>  <smiles>  (211) 
[H]OC1([H])C([H])([H])C([H])([H])C2(C([H])([H])[H])C3([H])C([H])([H])C4(OOC5(C([H])(O[H])C6([H])C(C([H])([H])[H])(C([H])([H])[H])C([H])(OC7([H])C([H])([H])C6([H])[N+]([H])([H])C7([H])[H])C5(C([H])([H])[H])C([H])([H])[N+]([H])(C([H])([H])[H])C4([H])[H])C13[H])C2([H])C([H])([H])[H]

$$$$
70:0:2
     RDKit          3D

 80 86  0  0  1  0  0  0  0  0999 V2000
    5.1861  -13.3879    5.3895 C   0  0  0  0  0  0  0  0  0  0  0  0
    5.5423  -11.8774    5.4265 C   0  0  2  0  0  0  0  0  0  0  0  0
    4.5695  -10.9614    4.6454 C   0  0  2  0  0  0  0  0  0  0  0  0
    5.2160  -11.1313    3.2706 C   0  0  0  0  0  0  0  0  0  0  0  0
    6.5449  -10.5463    3.5236 C   0  0  1  0  0  0  0  0  0  0  0  0
    6.4460   -8.9416    3.5950 C   0  0  2  0  0  0  0  0  0  0  0  0
    7.5785   -8.4495    4.5952 C   0  0  1  0  0  0  0  0  0  0  0  0
    7.1014   -7.8503    5.7846 O   0  0  0  0  0  0  0  0  0  0  0  0
    8.5651   -9.5247    5.0839 C   0  0  0  0  0  0  0  0  0  0  0  0
    7.8101  -10.6572    5.7754 C   0  0  0  0  0  0  0  0  0  0  0  0
    6.9299  -11.4382    4.7762 C   0  0  1  0  0  0  0  0  0  0  0  0
    7.7636  -12.6529    4.2832 C   0  0  0  0  0  0  0  0  0  0  0  0
    4.9914   -8.1130    3.5687 C   0  0  1  0  0  0  0  0  0  0  0  0
    4.2872   -8.5290    4.7205 O   0  0  0  0  0  0  0  0  0  0  0  0
    4.8466   -9.7512    5.3517 O   0  0  0  0  0  0  0  0  0  0  0  0
    5.2495   -6.5179    3.8265 C   0  0  1  0  0  0  0  0  0  0  0  0
    6.5248   -6.0582    3.4123 O   0  0  0  0  0  0  0  0  0  0  0  0
    4.2017   -5.3790    3.4371 C   0  0  1  0  0  0  0  0  0  0  0  0
    4.6707   -4.4714    2.2286 C   0  0  1  0  0  0  0  0  0  0  0  0
    5.0725   -5.2608    1.0034 C   0  0  0  0  0  0  0  0  0  0  0  0
    3.7362   -5.4907    0.3176 C   0  0  2  0  0  0  0  0  0  0  0  0
    3.1722   -4.0736    0.3922 C   0  0  0  0  0  0  0  0  0  0  0  0
    3.6407   -3.5202    1.6874 N   0  0  0  0  0  0  0  0  0  0  0  0
    2.8433   -6.4885    0.8942 O   0  0  0  0  0  0  0  0  0  0  0  0
    2.8649   -7.0386    2.2377 C   0  0  2  0  0  0  0  0  0  0  0  0
    2.7835   -5.9787    3.3740 C   0  0  0  0  0  0  0  0  0  0  0  0
    2.3738   -6.5366    4.7737 C   0  0  0  0  0  0  0  0  0  0  0  0
    1.6074   -4.9829    3.1079 C   0  0  0  0  0  0  0  0  0  0  0  0
    3.8006   -8.3403    2.4497 C   0  0  1  0  0  0  0  0  0  0  0  0
    4.4576   -8.6608    1.0599 C   0  0  0  0  0  0  0  0  0  0  0  0
    2.7171   -9.5693    2.6561 C   0  0  0  0  0  0  0  0  0  0  0  0
    2.2989  -10.0264    4.0396 N   0  0  1  0  0  0  0  0  0  0  0  0
    0.8203  -10.2195    4.1583 C   0  0  0  0  0  0  0  0  0  0  0  0
    3.0424  -11.2075    4.5986 C   0  0  0  0  0  0  0  0  0  0  0  0
    5.1389  -13.8195    4.3898 H   0  0  0  0  0  0  0  0  0  0  0  0
    4.2198  -13.5708    5.8636 H   0  0  0  0  0  0  0  0  0  0  0  0
    5.9159  -13.9653    5.9573 H   0  0  0  0  0  0  0  0  0  0  0  0
    5.5121  -11.6203    6.4818 H   0  0  0  0  0  0  0  0  0  0  0  0
    5.2649  -12.1796    2.9740 H   0  0  0  0  0  0  0  0  0  0  0  0
    4.8081  -10.6988    2.4010 H   0  0  0  0  0  0  0  0  0  0  0  0
    7.2072  -10.7917    2.6895 H   0  0  0  0  0  0  0  0  0  0  0  0
    6.8612   -8.6607    2.6295 H   0  0  0  0  0  0  0  0  0  0  0  0
    8.2146   -7.7246    4.0880 H   0  0  0  0  0  0  0  0  0  0  0  0
    6.5524   -7.1082    5.5731 H   0  0  0  0  0  0  0  0  0  0  0  0
    9.1650   -9.9077    4.2635 H   0  0  0  0  0  0  0  0  0  0  0  0
    9.2746   -9.0869    5.7821 H   0  0  0  0  0  0  0  0  0  0  0  0
    8.5180  -11.3288    6.2648 H   0  0  0  0  0  0  0  0  0  0  0  0
    7.2121  -10.2503    6.5894 H   0  0  0  0  0  0  0  0  0  0  0  0
    8.7057  -12.3288    3.8350 H   0  0  0  0  0  0  0  0  0  0  0  0
    7.2474  -13.2406    3.5232 H   0  0  0  0  0  0  0  0  0  0  0  0
    8.0204  -13.3301    5.0976 H   0  0  0  0  0  0  0  0  0  0  0  0
    5.3091   -6.4144    4.9068 H   0  0  0  0  0  0  0  0  0  0  0  0
    7.2066   -6.6136    3.7682 H   0  0  0  0  0  0  0  0  0  0  0  0
    4.1909   -4.6858    4.2753 H   0  0  0  0  0  0  0  0  0  0  0  0
    5.5075   -3.8565    2.5594 H   0  0  0  0  0  0  0  0  0  0  0  0
    5.6905   -4.6302    0.3576 H   0  0  0  0  0  0  0  0  0  0  0  0
    5.6750   -6.1393    1.1873 H   0  0  0  0  0  0  0  0  0  0  0  0
    3.9036   -5.7613   -0.7100 H   0  0  0  0  0  0  0  0  0  0  0  0
    3.6259   -3.4688   -0.3971 H   0  0  0  0  0  0  0  0  0  0  0  0
    2.0953   -4.0063    0.2309 H   0  0  0  0  0  0  0  0  0  0  0  0
    2.8741   -3.4288    2.3338 H   0  0  0  0  0  0  0  0  0  0  0  0
    1.8313   -7.3686    2.2522 H   0  0  0  0  0  0  0  0  0  0  0  0
    1.9435   -7.5324    4.7045 H   0  0  0  0  0  0  0  0  0  0  0  0
    1.6235   -5.9326    5.2870 H   0  0  0  0  0  0  0  0  0  0  0  0
    3.1939   -6.5583    5.4913 H   0  0  0  0  0  0  0  0  0  0  0  0
    0.6523   -5.3699    3.4653 H   0  0  0  0  0  0  0  0  0  0  0  0
    1.4138   -4.8081    2.0623 H   0  0  0  0  0  0  0  0  0  0  0  0
    1.7701   -4.0293    3.6100 H   0  0  0  0  0  0  0  0  0  0  0  0
    3.7524   -9.1519    0.3946 H   0  0  0  0  0  0  0  0  0  0  0  0
    5.3396   -9.2914    1.1047 H   0  0  0  0  0  0  0  0  0  0  0  0
    4.8159   -7.8121    0.5094 H   0  0  0  0  0  0  0  0  0  0  0  0
    1.8025   -9.3262    2.1278 H   0  0  0  0  0  0  0  0  0  0  0  0
    2.9188  -10.4536    2.0626 H   0  0  0  0  0  0  0  0  0  0  0  0
    0.4830  -11.0242    3.5105 H   0  0  0  0  0  0  0  0  0  0  0  0
    0.2910   -9.3083    3.8853 H   0  0  0  0  0  0  0  0  0  0  0  0
    0.5456  -10.4657    5.1829 H   0  0  0  0  0  0  0  0  0  0  0  0
    2.8217  -12.0865    3.9923 H   0  0  0  0  0  0  0  0  0  0  0  0
    2.6697  -11.4205    5.6039 H   0  0  0  0  0  0  0  0  0  0  0  0
    2.5458   -9.2759    4.6639 H   0  0  0  0  0  0  0  0  0  0  0  0
    4.0565   -2.6182    1.5160 H   0  0  0  0  0  0  0  0  0  0  0  0
  1  2  1  0
  1 35  1  0
  1 36  1  0
  1 37  1  0
  2 11  1  0
  2  3  1  0
  2 38  1  1
  3 15  1  0
  3 34  1  6
  3  4  1  0
  4  5  1  0
  4 39  1  0
  4 40  1  0
  5 11  1  0
  5  6  1  0
  5 41  1  6
  6  7  1  0
  6 13  1  0
  6 42  1  6
  7  8  1  0
  7  9  1  0
  7 43  1  6
  8 44  1  0
  9 10  1  0
  9 45  1  0
  9 46  1  0
 10 11  1  0
 10 47  1  0
 10 48  1  0
 11 12  1  6
 12 49  1  0
 12 50  1  0
 12 51  1  0
 13 29  1  0
 13 14  1  1
 13 16  1  0
 14 15  1  0
 16 17  1  0
 16 18  1  0
 16 52  1  1
 17 53  1  0
 18 26  1  0
 18 19  1  0
 18 54  1  1
 19 23  1  0
 19 20  1  0
 19 55  1  1
 20 21  1  0
 20 56  1  0
 20 57  1  0
 21 22  1  0
 21 24  1  0
 21 58  1  6
 22 23  1  0
 22 59  1  0
 22 60  1  0
 23 61  1  0
 23 80  1  0
 24 25  1  0
 25 26  1  0
 25 29  1  0
 25 62  1  6
 26 27  1  0
 26 28  1  0
 27 63  1  0
 27 64  1  0
 27 65  1  0
 28 66  1  0
 28 67  1  0
 28 68  1  0
 29 30  1  6
 29 31  1  0
 30 69  1  0
 30 70  1  0
 30 71  1  0
 31 32  1  0
 31 72  1  0
 31 73  1  0
 32 33  1  0
 32 34  1  0
 32 79  1  1
 33 74  1  0
 33 75  1  0
 33 76  1  0
 34 77  1  0
 34 78  1  0
M  CHG  2  23   1  32   1
M  END
>  <i_m_ct_stereo_status>  (212) 
1

>  <s_m_source_file>  (212) 
/var/tmp/pbs.5076255.sched01/tmprae_yccg/80g5h6lheg.sdf

>  <i_m_source_file_index>  (212) 
16

>  <i_lp_mmshare_version>  (212) 
48012

>  <i_f3d_flags>  (212) 
0

>  <s_epik_input>  (212) 
W0NIM11bQ0BIXShbQ0BdMTIzKVtDQEBdNChbQ0gzXSlbQ0BASF0oW0NIMl0xKVtDQEhdKFtDQEBIXShbT0hdKVtDSDJdW0NIMl00KVtDQF01KE9PMilbQ0BAXShbQ0gzXSkoW0NIMl1OKFtDSDNdKVtDSDJdMylbQ0BASF02T1tDQEBIXTdbQ0gyXVtDQEBIXShbTkhdW0NIMl03KVtDQEhdKFtDQEBIXTVbT0hdKUM2KFtDSDNdKVtDSDNd

>  <s_epik_cmdline>  (212) 
J2VwaWtfcHl0aG9uJywgJy1waHQnLCAnMi4wJywgJy1waCcsICc3LjAnLCAnLXRuJywgJzgnLCAnLW1hJywgJzIwMCcsICctaW1hZScsICc8aW5maWxlLm1hZT4nLCAnLW9tYWUnLCAnPG91dGZpbGUubWFlPic=

>  <r_lp_tautomer_probability>  (212) 
1

>  <r_epik_Ionization_Penalty>  (212) 
0.0015106

>  <r_epik_Ionization_Penalty_Charging>  (212) 
0.00150298

>  <r_epik_Ionization_Penalty_Neutral>  (212) 
7.61936e-06

>  <r_epik_State_Penalty>  (212) 
-0

>  <r_epik_Charging_Adjusted_Penalty>  (212) 
0.00150298

>  <i_epik_Tot_Q>  (212) 
2

>  <i_epik_Tot_abs_Q>  (212) 
2

>  <s_lp_Force_Field>  (212) 
OPLS3e

>  <r_lp_Energy>  (212) 
209.399

>  <b_lp_Chiralities_Consistent>  (212) 
1

>  <s_lp_Variant>  (212) 
70:0-1

>  <s_i_glide_gridfile>  (212) 
pfpi4k_grid

>  <i_i_glide_lignum>  (212) 
16

>  <i_i_glide_rotatable_bonds>  (212) 
2

>  <r_i_docking_score>  (212) 
-2.66616

>  <r_i_glide_ligand_efficiency>  (212) 
-0.0784163

>  <r_i_glide_ligand_efficiency_sa>  (212) 
-0.254038

>  <r_i_glide_ligand_efficiency_ln>  (212) 
-0.589028

>  <r_i_glide_gscore>  (212) 
-2.66616

>  <r_i_glide_lipo>  (212) 
-0.0984196

>  <r_i_glide_hbond>  (212) 
0

>  <r_i_glide_metal>  (212) 
-0

>  <r_i_glide_rewards>  (212) 
-0.645469

>  <r_i_glide_evdw>  (212) 
-18.3339

>  <r_i_glide_ecoul>  (212) 
-6.63554

>  <r_i_glide_erotb>  (212) 
0

>  <r_i_glide_esite>  (212) 
-0.0102397

>  <r_i_glide_emodel>  (212) 
-34.7765

>  <r_i_glide_energy>  (212) 
-24.9694

>  <r_i_glide_einternal>  (212) 
0.663723

>  <r_i_glide_intrahb_reward>  (212) 
-0.5

>  <i_i_glide_confnum>  (212) 
2

>  <i_i_glide_posenum>  (212) 
16

>  <r_i_glide_eff_state_penalty>  (212) 
0

>  <ligand_id>  (212) 
70

>  <original_smiles>  (212) 
CC1C23CC4C(C(O)CCC41C)C1(OO2)C(O)C2C4CC(CN4)OC(C2(C)C)C1(C)CN(C)C3

>  <smiles>  (212) 
[H]OC1([H])C([H])([H])C([H])([H])C2(C([H])([H])[H])C3([H])C([H])([H])C4(OOC5(C([H])(O[H])C6([H])C(C([H])([H])[H])(C([H])([H])[H])C([H])(OC7([H])C([H])([H])C6([H])[N+]([H])([H])C7([H])[H])C5(C([H])([H])[H])C([H])([H])[N+]([H])(C([H])([H])[H])C4([H])[H])C13[H])C2([H])C([H])([H])[H]

$$$$
71:0:0
     RDKit          3D

 13 14  0  0  1  0  0  0  0  0999 V2000
    0.8874   -6.4180    6.1613 C   0  0  0  0  0  0  0  0  0  0  0  0
    1.2363   -5.3573    5.3508 N   0  0  0  0  0  0  0  0  0  0  0  0
    0.9207   -5.4049    4.0899 C   0  0  0  0  0  0  0  0  0  0  0  0
    0.2331   -6.4638    3.5850 N   0  0  0  0  0  0  0  0  0  0  0  0
   -0.1963   -6.6577    2.2940 N   0  0  0  0  0  0  0  0  0  0  0  0
   -0.7832   -7.8343    2.3457 C   0  0  0  0  0  0  0  0  0  0  0  0
   -0.7913   -8.4103    3.6416 C   0  0  0  0  0  0  0  0  0  0  0  0
   -0.1199   -7.5245    4.4357 C   0  0  0  0  0  0  0  0  0  0  0  0
    0.2149   -7.4869    5.7335 N   0  0  0  0  0  0  0  0  0  0  0  0
    1.1747   -6.3484    7.2062 H   0  0  0  0  0  0  0  0  0  0  0  0
    1.1663   -4.6031    3.3995 H   0  0  0  0  0  0  0  0  0  0  0  0
   -1.2135   -8.2561    1.4465 H   0  0  0  0  0  0  0  0  0  0  0  0
   -1.2128   -9.3592    3.9460 H   0  0  0  0  0  0  0  0  0  0  0  0
  1  9  2  0
  1  2  1  0
  1 10  1  0
  2  3  2  0
  3  4  1  0
  3 11  1  0
  4  8  1  0
  4  5  1  0
  5  6  2  0
  6  7  1  0
  6 12  1  0
  7  8  2  0
  7 13  1  0
  8  9  1  0
M  END
>  <i_m_ct_stereo_status>  (213) 
1

>  <s_m_source_file>  (213) 
/var/tmp/pbs.5076255.sched01/tmprae_yccg/80g5h6lheg.sdf

>  <i_m_source_file_index>  (213) 
17

>  <i_lp_mmshare_version>  (213) 
48012

>  <i_f3d_flags>  (213) 
0

>  <s_epik_input>  (213) 
W2NIXTFuW2NIXW5jKG4xMilbY0hdW2NIXW4y

>  <s_epik_cmdline>  (213) 
J2VwaWtfcHl0aG9uJywgJy1waHQnLCAnMi4wJywgJy1waCcsICc3LjAnLCAnLXRuJywgJzgnLCAnLW1hJywgJzIwMCcsICctaW1hZScsICc8aW5maWxlLm1hZT4nLCAnLW9tYWUnLCAnPG91dGZpbGUubWFlPic=

>  <r_lp_tautomer_probability>  (213) 
1

>  <r_epik_Ionization_Penalty>  (213) 
3.8562e-08

>  <r_epik_Ionization_Penalty_Charging>  (213) 
0

>  <r_epik_Ionization_Penalty_Neutral>  (213) 
3.8562e-08

>  <r_epik_State_Penalty>  (213) 
-0

>  <r_epik_Charging_Adjusted_Penalty>  (213) 
0

>  <i_epik_Tot_Q>  (213) 
0

>  <i_epik_Tot_abs_Q>  (213) 
0

>  <s_lp_Force_Field>  (213) 
OPLS3e

>  <r_lp_Energy>  (213) 
11.5832

>  <b_lp_Chiralities_Consistent>  (213) 
1

>  <s_lp_Variant>  (213) 
71:0-1

>  <s_i_glide_gridfile>  (213) 
pfpi4k_grid

>  <i_i_glide_lignum>  (213) 
17

>  <i_i_glide_rotatable_bonds>  (213) 
0

>  <r_i_docking_score>  (213) 
-3.7765

>  <r_i_glide_ligand_efficiency>  (213) 
-0.419611

>  <r_i_glide_ligand_efficiency_sa>  (213) 
-0.872827

>  <r_i_glide_ligand_efficiency_ln>  (213) 
-1.18118

>  <r_i_glide_gscore>  (213) 
-3.7765

>  <r_i_glide_lipo>  (213) 
0

>  <r_i_glide_hbond>  (213) 
-0.16

>  <r_i_glide_metal>  (213) 
-0

>  <r_i_glide_rewards>  (213) 
-2.25

>  <r_i_glide_evdw>  (213) 
-10.3282

>  <r_i_glide_ecoul>  (213) 
-4.98217

>  <r_i_glide_erotb>  (213) 
0

>  <r_i_glide_esite>  (213) 
-0.102764

>  <r_i_glide_emodel>  (213) 
-19.4945

>  <r_i_glide_energy>  (213) 
-15.3104

>  <r_i_glide_einternal>  (213) 
0

>  <r_i_glide_intrahb_reward>  (213) 
-0

>  <i_i_glide_confnum>  (213) 
1

>  <i_i_glide_posenum>  (213) 
2

>  <r_i_glide_eff_state_penalty>  (213) 
0

>  <ligand_id>  (213) 
71

>  <original_smiles>  (213) 
c1ncn2nccc2n1

>  <smiles>  (213) 
[H]c1nc([H])n2nc([H])c([H])c2n1

$$$$
71:0:1
     RDKit          3D

 13 14  0  0  1  0  0  0  0  0999 V2000
    3.4645   -2.9023    0.6353 C   0  0  0  0  0  0  0  0  0  0  0  0
    4.2448   -1.7642    0.5834 N   0  0  0  0  0  0  0  0  0  0  0  0
    4.3937   -1.1610   -0.5610 C   0  0  0  0  0  0  0  0  0  0  0  0
    3.8165   -1.6567   -1.6844 N   0  0  0  0  0  0  0  0  0  0  0  0
    3.8975   -1.1634   -2.9612 N   0  0  0  0  0  0  0  0  0  0  0  0
    3.1465   -1.9940   -3.6488 C   0  0  0  0  0  0  0  0  0  0  0  0
    2.6044   -3.0514   -2.8811 C   0  0  0  0  0  0  0  0  0  0  0  0
    3.0323   -2.8207   -1.6034 C   0  0  0  0  0  0  0  0  0  0  0  0
    2.8642   -3.4460   -0.4263 N   0  0  0  0  0  0  0  0  0  0  0  0
    3.3610   -3.3727    1.6062 H   0  0  0  0  0  0  0  0  0  0  0  0
    4.9874   -0.2587   -0.6705 H   0  0  0  0  0  0  0  0  0  0  0  0
    3.0126   -1.8328   -4.7093 H   0  0  0  0  0  0  0  0  0  0  0  0
    1.9702   -3.8601   -3.2137 H   0  0  0  0  0  0  0  0  0  0  0  0
  1  9  2  0
  1  2  1  0
  1 10  1  0
  2  3  2  0
  3  4  1  0
  3 11  1  0
  4  8  1  0
  4  5  1  0
  5  6  2  0
  6  7  1  0
  6 12  1  0
  7  8  2  0
  7 13  1  0
  8  9  1  0
M  END
>  <i_m_ct_stereo_status>  (214) 
1

>  <s_m_source_file>  (214) 
/var/tmp/pbs.5076255.sched01/tmprae_yccg/80g5h6lheg.sdf

>  <i_m_source_file_index>  (214) 
17

>  <i_lp_mmshare_version>  (214) 
48012

>  <i_f3d_flags>  (214) 
0

>  <s_epik_input>  (214) 
W2NIXTFuW2NIXW5jKG4xMilbY0hdW2NIXW4y

>  <s_epik_cmdline>  (214) 
J2VwaWtfcHl0aG9uJywgJy1waHQnLCAnMi4wJywgJy1waCcsICc3LjAnLCAnLXRuJywgJzgnLCAnLW1hJywgJzIwMCcsICctaW1hZScsICc8aW5maWxlLm1hZT4nLCAnLW9tYWUnLCAnPG91dGZpbGUubWFlPic=

>  <r_lp_tautomer_probability>  (214) 
1

>  <r_epik_Ionization_Penalty>  (214) 
3.8562e-08

>  <r_epik_Ionization_Penalty_Charging>  (214) 
0

>  <r_epik_Ionization_Penalty_Neutral>  (214) 
3.8562e-08

>  <r_epik_State_Penalty>  (214) 
-0

>  <r_epik_Charging_Adjusted_Penalty>  (214) 
0

>  <i_epik_Tot_Q>  (214) 
0

>  <i_epik_Tot_abs_Q>  (214) 
0

>  <s_lp_Force_Field>  (214) 
OPLS3e

>  <r_lp_Energy>  (214) 
11.5832

>  <b_lp_Chiralities_Consistent>  (214) 
1

>  <s_lp_Variant>  (214) 
71:0-1

>  <s_i_glide_gridfile>  (214) 
pfpi4k_grid

>  <i_i_glide_lignum>  (214) 
17

>  <i_i_glide_rotatable_bonds>  (214) 
0

>  <r_i_docking_score>  (214) 
-3.75761

>  <r_i_glide_ligand_efficiency>  (214) 
-0.417512

>  <r_i_glide_ligand_efficiency_sa>  (214) 
-0.868461

>  <r_i_glide_ligand_efficiency_ln>  (214) 
-1.17527

>  <r_i_glide_gscore>  (214) 
-3.75761

>  <r_i_glide_lipo>  (214) 
-0.302393

>  <r_i_glide_hbond>  (214) 
0

>  <r_i_glide_metal>  (214) 
-0

>  <r_i_glide_rewards>  (214) 
-2.25

>  <r_i_glide_evdw>  (214) 
-16.0827

>  <r_i_glide_ecoul>  (214) 
-1.78943

>  <r_i_glide_erotb>  (214) 
0

>  <r_i_glide_esite>  (214) 
-0.13267

>  <r_i_glide_emodel>  (214) 
-22.035

>  <r_i_glide_energy>  (214) 
-17.8721

>  <r_i_glide_einternal>  (214) 
0

>  <r_i_glide_intrahb_reward>  (214) 
-0

>  <i_i_glide_confnum>  (214) 
2

>  <i_i_glide_posenum>  (214) 
16

>  <r_i_glide_eff_state_penalty>  (214) 
0

>  <ligand_id>  (214) 
71

>  <original_smiles>  (214) 
c1ncn2nccc2n1

>  <smiles>  (214) 
[H]c1nc([H])n2nc([H])c([H])c2n1

$$$$
71:0:2
     RDKit          3D

 13 14  0  0  1  0  0  0  0  0999 V2000
   -1.4273    3.0517    3.2545 C   0  0  0  0  0  0  0  0  0  0  0  0
   -2.0532    3.4297    4.4300 N   0  0  0  0  0  0  0  0  0  0  0  0
   -2.1746    2.5440    5.3775 C   0  0  0  0  0  0  0  0  0  0  0  0
   -1.7068    1.2791    5.2134 N   0  0  0  0  0  0  0  0  0  0  0  0
   -1.7717    0.2246    6.0953 N   0  0  0  0  0  0  0  0  0  0  0  0
   -1.1518   -0.7427    5.4539 C   0  0  0  0  0  0  0  0  0  0  0  0
   -0.7035   -0.3782    4.1629 C   0  0  0  0  0  0  0  0  0  0  0  0
   -1.0701    0.9308    4.0128 C   0  0  0  0  0  0  0  0  0  0  0  0
   -0.9390    1.8311    3.0335 N   0  0  0  0  0  0  0  0  0  0  0  0
   -1.3486    3.8071    2.4805 H   0  0  0  0  0  0  0  0  0  0  0  0
   -2.6583    2.7663    6.3228 H   0  0  0  0  0  0  0  0  0  0  0  0
   -1.0334   -1.7088    5.9277 H   0  0  0  0  0  0  0  0  0  0  0  0
   -0.1798   -0.9895    3.4441 H   0  0  0  0  0  0  0  0  0  0  0  0
  1  9  2  0
  1  2  1  0
  1 10  1  0
  2  3  2  0
  3  4  1  0
  3 11  1  0
  4  8  1  0
  4  5  1  0
  5  6  2  0
  6  7  1  0
  6 12  1  0
  7  8  2  0
  7 13  1  0
  8  9  1  0
M  END
>  <i_m_ct_stereo_status>  (215) 
1

>  <s_m_source_file>  (215) 
/var/tmp/pbs.5076255.sched01/tmprae_yccg/80g5h6lheg.sdf

>  <i_m_source_file_index>  (215) 
17

>  <i_lp_mmshare_version>  (215) 
48012

>  <i_f3d_flags>  (215) 
0

>  <s_epik_input>  (215) 
W2NIXTFuW2NIXW5jKG4xMilbY0hdW2NIXW4y

>  <s_epik_cmdline>  (215) 
J2VwaWtfcHl0aG9uJywgJy1waHQnLCAnMi4wJywgJy1waCcsICc3LjAnLCAnLXRuJywgJzgnLCAnLW1hJywgJzIwMCcsICctaW1hZScsICc8aW5maWxlLm1hZT4nLCAnLW9tYWUnLCAnPG91dGZpbGUubWFlPic=

>  <r_lp_tautomer_probability>  (215) 
1

>  <r_epik_Ionization_Penalty>  (215) 
3.8562e-08

>  <r_epik_Ionization_Penalty_Charging>  (215) 
0

>  <r_epik_Ionization_Penalty_Neutral>  (215) 
3.8562e-08

>  <r_epik_State_Penalty>  (215) 
-0

>  <r_epik_Charging_Adjusted_Penalty>  (215) 
0

>  <i_epik_Tot_Q>  (215) 
0

>  <i_epik_Tot_abs_Q>  (215) 
0

>  <s_lp_Force_Field>  (215) 
OPLS3e

>  <r_lp_Energy>  (215) 
11.5832

>  <b_lp_Chiralities_Consistent>  (215) 
1

>  <s_lp_Variant>  (215) 
71:0-1

>  <s_i_glide_gridfile>  (215) 
pfpi4k_grid

>  <i_i_glide_lignum>  (215) 
17

>  <i_i_glide_rotatable_bonds>  (215) 
0

>  <r_i_docking_score>  (215) 
-3.71638

>  <r_i_glide_ligand_efficiency>  (215) 
-0.412931

>  <r_i_glide_ligand_efficiency_sa>  (215) 
-0.858931

>  <r_i_glide_ligand_efficiency_ln>  (215) 
-1.16238

>  <r_i_glide_gscore>  (215) 
-3.71638

>  <r_i_glide_lipo>  (215) 
0

>  <r_i_glide_hbond>  (215) 
-0.139797

>  <r_i_glide_metal>  (215) 
-0

>  <r_i_glide_rewards>  (215) 
-2.28672

>  <r_i_glide_evdw>  (215) 
-12.4066

>  <r_i_glide_ecoul>  (215) 
-3.65415

>  <r_i_glide_erotb>  (215) 
0

>  <r_i_glide_esite>  (215) 
-0.12141

>  <r_i_glide_emodel>  (215) 
-20.1759

>  <r_i_glide_energy>  (215) 
-16.0607

>  <r_i_glide_einternal>  (215) 
0

>  <r_i_glide_intrahb_reward>  (215) 
-0

>  <i_i_glide_confnum>  (215) 
1

>  <i_i_glide_posenum>  (215) 
32

>  <r_i_glide_eff_state_penalty>  (215) 
0

>  <ligand_id>  (215) 
71

>  <original_smiles>  (215) 
c1ncn2nccc2n1

>  <smiles>  (215) 
[H]c1nc([H])n2nc([H])c([H])c2n1

$$$$
72:0:0
     RDKit          3D

 70 75  0  0  1  0  0  0  0  0999 V2000
    4.6369   -0.3779    3.3903 C   0  0  0  0  0  0  0  0  0  0  0  0
    3.1058   -0.2891    3.3371 C   0  0  2  0  0  0  0  0  0  0  0  0
    2.5753   -0.0187    1.9084 C   0  0  1  0  0  0  0  0  0  0  0  0
    2.2191   -1.2405    1.2902 O   0  0  0  0  0  0  0  0  0  0  0  0
    1.3631    0.9359    2.0379 C   0  0  0  0  0  0  0  0  0  0  0  0
    1.0532    1.0212    3.5372 C   0  0  2  0  0  0  0  0  0  0  0  0
    0.0634    2.1993    3.9903 C   0  0  1  0  0  0  0  0  0  0  0  0
   -1.3469    1.9479    3.4135 C   0  0  0  0  0  0  0  0  0  0  0  0
   -0.0254    2.7977    5.4854 C   0  0  1  0  0  0  0  0  0  0  0  0
   -0.5708    4.0964    5.3213 O   0  0  0  0  0  0  0  0  0  0  0  0
   -0.5850    2.0548    6.8367 C   0  0  2  0  0  0  0  0  0  0  0  0
   -1.2765    0.8747    6.4424 O   0  0  0  0  0  0  0  0  0  0  0  0
   -1.7319    2.9052    7.4684 C   0  0  1  0  0  0  0  0  0  0  0  0
   -2.9632    2.8716    6.7596 O   0  0  0  0  0  0  0  0  0  0  0  0
   -1.9379    2.3549    8.8515 C   0  0  0  0  0  0  0  0  0  0  0  0
   -0.5186    2.1733    9.3522 C   0  0  1  0  0  0  0  0  0  0  0  0
   -0.5990    1.2901   10.4577 O   0  0  0  0  0  0  0  0  0  0  0  0
    0.4275    1.7579    8.1327 C   0  0  2  0  0  0  0  0  0  0  0  0
    1.5731    2.8293    8.1412 C   0  0  0  0  0  0  0  0  0  0  0  0
    2.8718    2.4931    7.6383 O   0  0  0  0  0  0  0  0  0  0  0  0
    3.1046    2.1614    6.2746 C   0  0  0  0  0  0  0  0  0  0  0  0
    2.6100    0.7714    5.7465 C   0  0  2  0  0  0  0  0  0  0  0  0
    1.3114    0.4297    5.8811 O   0  0  0  0  0  0  0  0  0  0  0  0
    3.0702   -0.3876    6.6966 C   0  0  2  0  0  0  0  0  0  0  0  0
    2.4337   -1.7999    6.5841 C   0  0  0  0  0  0  0  0  0  0  0  0
    1.7304   -1.9884    7.9525 C   0  0  2  0  0  0  0  0  0  0  0  0
    1.5034   -3.4555    8.3439 C   0  0  0  0  0  0  0  0  0  0  0  0
    0.5118   -1.0559    8.2171 C   0  0  0  0  0  0  0  0  0  0  0  0
    1.1655    0.3160    8.5053 C   0  0  1  0  0  0  0  0  0  0  0  0
    2.6728   -0.0758    8.1863 C   0  0  1  0  0  0  0  0  0  0  0  0
    2.7044   -1.3745    8.7544 O   0  0  0  0  0  0  0  0  0  0  0  0
    2.5092    0.8499    4.1704 C   0  0  1  0  0  0  0  0  0  0  0  0
    5.1021    0.5380    3.0382 H   0  0  0  0  0  0  0  0  0  0  0  0
    4.9964   -1.1946    2.7637 H   0  0  0  0  0  0  0  0  0  0  0  0
    4.9965   -0.5622    4.4036 H   0  0  0  0  0  0  0  0  0  0  0  0
    2.6809   -1.2259    3.7017 H   0  0  0  0  0  0  0  0  0  0  0  0
    3.3331    0.4623    1.2863 H   0  0  0  0  0  0  0  0  0  0  0  0
    1.6838   -1.0432    0.5161 H   0  0  0  0  0  0  0  0  0  0  0  0
    1.6463    1.9223    1.6685 H   0  0  0  0  0  0  0  0  0  0  0  0
    0.5050    0.6007    1.4510 H   0  0  0  0  0  0  0  0  0  0  0  0
    0.5008    0.0929    3.7079 H   0  0  0  0  0  0  0  0  0  0  0  0
    0.4456    3.0450    3.4102 H   0  0  0  0  0  0  0  0  0  0  0  0
   -1.7941    1.0402    3.8149 H   0  0  0  0  0  0  0  0  0  0  0  0
   -1.3120    1.8390    2.3291 H   0  0  0  0  0  0  0  0  0  0  0  0
   -2.0280    2.7769    3.6192 H   0  0  0  0  0  0  0  0  0  0  0  0
    0.9625    3.1277    5.7013 H   0  0  0  0  0  0  0  0  0  0  0  0
   -0.1218    4.5196    4.6066 H   0  0  0  0  0  0  0  0  0  0  0  0
   -1.7880    1.1156    5.6861 H   0  0  0  0  0  0  0  0  0  0  0  0
   -1.4174    3.9424    7.6008 H   0  0  0  0  0  0  0  0  0  0  0  0
   -3.5949    3.3736    7.2455 H   0  0  0  0  0  0  0  0  0  0  0  0
   -2.5301    3.0151    9.4841 H   0  0  0  0  0  0  0  0  0  0  0  0
   -2.4512    1.3996    8.7919 H   0  0  0  0  0  0  0  0  0  0  0  0
   -0.2364    3.1532    9.7450 H   0  0  0  0  0  0  0  0  0  0  0  0
   -1.1539    1.6662   11.1270 H   0  0  0  0  0  0  0  0  0  0  0  0
    1.2381    3.7817    7.7279 H   0  0  0  0  0  0  0  0  0  0  0  0
    1.8076    3.0490    9.1841 H   0  0  0  0  0  0  0  0  0  0  0  0
    2.9233    3.0137    5.6309 H   0  0  0  0  0  0  0  0  0  0  0  0
    4.1906    2.1008    6.2292 H   0  0  0  0  0  0  0  0  0  0  0  0
    0.7759    1.0229    5.3685 H   0  0  0  0  0  0  0  0  0  0  0  0
    4.1541   -0.4905    6.6487 H   0  0  0  0  0  0  0  0  0  0  0  0
    1.7589   -1.9543    5.7430 H   0  0  0  0  0  0  0  0  0  0  0  0
    3.2383   -2.5328    6.4761 H   0  0  0  0  0  0  0  0  0  0  0  0
    0.7508   -3.9121    7.7062 H   0  0  0  0  0  0  0  0  0  0  0  0
    1.1648   -3.5386    9.3798 H   0  0  0  0  0  0  0  0  0  0  0  0
    2.4206   -4.0373    8.2522 H   0  0  0  0  0  0  0  0  0  0  0  0
   -0.1581   -1.0878    7.3631 H   0  0  0  0  0  0  0  0  0  0  0  0
   -0.0449   -1.3765    9.0982 H   0  0  0  0  0  0  0  0  0  0  0  0
    1.2909    0.3442    9.5867 H   0  0  0  0  0  0  0  0  0  0  0  0
    3.4056    0.5309    8.7222 H   0  0  0  0  0  0  0  0  0  0  0  0
    3.0696    1.7346    3.8581 H   0  0  0  0  0  0  0  0  0  0  0  0
  1  2  1  0
  1 33  1  0
  1 34  1  0
  1 35  1  0
  2 32  1  0
  2  3  1  0
  2 36  1  1
  3  4  1  0
  3  5  1  0
  3 37  1  6
  4 38  1  0
  5  6  1  0
  5 39  1  0
  5 40  1  0
  6 32  1  0
  6  7  1  0
  6 41  1  1
  7  8  1  0
  7  9  1  0
  7 42  1  6
  8 43  1  0
  8 44  1  0
  8 45  1  0
  9 10  1  0
  9 11  1  0
  9 46  1  1
 10 47  1  0
 11 18  1  0
 11 12  1  6
 11 13  1  0
 12 48  1  0
 13 14  1  0
 13 15  1  0
 13 49  1  1
 14 50  1  0
 15 16  1  0
 15 51  1  0
 15 52  1  0
 16 17  1  0
 16 18  1  0
 16 53  1  1
 17 54  1  0
 18 29  1  0
 18 19  1  6
 19 20  1  0
 19 55  1  0
 19 56  1  0
 20 21  1  0
 21 22  1  0
 21 57  1  0
 21 58  1  0
 22 23  1  1
 22 24  1  0
 22 32  1  0
 23 59  1  0
 24 30  1  0
 24 25  1  0
 24 60  1  1
 25 26  1  0
 25 61  1  0
 25 62  1  0
 26 31  1  0
 26 27  1  1
 26 28  1  0
 27 63  1  0
 27 64  1  0
 27 65  1  0
 28 29  1  0
 28 66  1  0
 28 67  1  0
 29 30  1  0
 29 68  1  1
 30 31  1  0
 30 69  1  1
 32 70  1  6
M  END
>  <i_m_ct_stereo_status>  (216) 
1

>  <s_m_source_file>  (216) 
/var/tmp/pbs.5076255.sched01/tmprae_yccg/80g5h6lheg.sdf

>  <i_m_source_file_index>  (216) 
18

>  <i_lp_mmshare_version>  (216) 
48012

>  <i_f3d_flags>  (216) 
0

>  <s_epik_input>  (216) 
W0NIMl0xW0NAXShPMikoW0NIM10pW0NIMl1bQ0BIXTNbQ0BASF0yW0NAQEhdMVtDQEBdKFtPSF0pKFtDSDJdT1tDSDJdNClbQ0BASF0oW0NASF0oW0NIM10pW0NAQEhdKFtPSF0pW0NIMl01KVtDQEhdNVtDQEBIXShbQ0gzXSlbQ0BASF0oW09IXSlbQ0BdKFtDQEBdMzQ2KShbT0hdKVtDQEBIXShbT0hdKVtDSDJdW0NASF02W09IXQ==

>  <s_epik_cmdline>  (216) 
J2VwaWtfcHl0aG9uJywgJy1waHQnLCAnMi4wJywgJy1waCcsICc3LjAnLCAnLXRuJywgJzgnLCAnLW1hJywgJzIwMCcsICctaW1hZScsICc8aW5maWxlLm1hZT4nLCAnLW9tYWUnLCAnPG91dGZpbGUubWFlPic=

>  <r_lp_tautomer_probability>  (216) 
1

>  <r_epik_Ionization_Penalty>  (216) 
2.03771e-06

>  <r_epik_Ionization_Penalty_Charging>  (216) 
0

>  <r_epik_Ionization_Penalty_Neutral>  (216) 
2.03771e-06

>  <r_epik_State_Penalty>  (216) 
-0

>  <r_epik_Charging_Adjusted_Penalty>  (216) 
0

>  <i_epik_Tot_Q>  (216) 
0

>  <i_epik_Tot_abs_Q>  (216) 
0

>  <s_lp_Force_Field>  (216) 
OPLS3e

>  <r_lp_Energy>  (216) 
173.559

>  <b_lp_Chiralities_Consistent>  (216) 
1

>  <s_lp_Variant>  (216) 
72:0-1

>  <s_i_glide_gridfile>  (216) 
pfpi4k_grid

>  <i_i_glide_lignum>  (216) 
18

>  <i_i_glide_rotatable_bonds>  (216) 
6

>  <r_i_docking_score>  (216) 
-2.93173

>  <r_i_glide_ligand_efficiency>  (216) 
-0.0916166

>  <r_i_glide_ligand_efficiency_sa>  (216) 
-0.290865

>  <r_i_glide_ligand_efficiency_ln>  (216) 
-0.656495

>  <r_i_glide_gscore>  (216) 
-2.93173

>  <r_i_glide_lipo>  (216) 
-0.118616

>  <r_i_glide_hbond>  (216) 
-0.16

>  <r_i_glide_metal>  (216) 
-0

>  <r_i_glide_rewards>  (216) 
-0.309861

>  <r_i_glide_evdw>  (216) 
-22.3875

>  <r_i_glide_ecoul>  (216) 
-8.15921

>  <r_i_glide_erotb>  (216) 
0

>  <r_i_glide_esite>  (216) 
0

>  <r_i_glide_emodel>  (216) 
-36.4762

>  <r_i_glide_energy>  (216) 
-30.5467

>  <r_i_glide_einternal>  (216) 
1.82367

>  <r_i_glide_intrahb_reward>  (216) 
-0

>  <i_i_glide_confnum>  (216) 
2

>  <i_i_glide_posenum>  (216) 
39

>  <r_i_glide_eff_state_penalty>  (216) 
0

>  <ligand_id>  (216) 
72

>  <original_smiles>  (216) 
CC1C(O)CC2C(C)C(O)C3(O)C(O)CC(O)C34COCC(O)(C3CC5(C)CC4C3O5)C12

>  <smiles>  (216) 
[H]OC1([H])C([H])([H])C2([H])C([H])(C([H])([H])[H])C([H])(O[H])C3(O[H])C([H])(O[H])C([H])([H])C([H])(O[H])C34C([H])([H])OC([H])([H])C(O[H])(C3([H])C([H])([H])C5(C([H])([H])[H])OC3([H])C4([H])C5([H])[H])C2([H])C1([H])C([H])([H])[H]

$$$$
72:0:1
     RDKit          3D

 70 75  0  0  1  0  0  0  0  0999 V2000
   -2.3250    3.0073    6.6451 C   0  0  0  0  0  0  0  0  0  0  0  0
   -1.3996    3.0008    5.4178 C   0  0  2  0  0  0  0  0  0  0  0  0
   -2.1637    3.1674    4.0738 C   0  0  1  0  0  0  0  0  0  0  0  0
   -2.0803    4.5060    3.6025 O   0  0  0  0  0  0  0  0  0  0  0  0
   -1.4925    2.2289    3.0503 C   0  0  0  0  0  0  0  0  0  0  0  0
   -0.2141    1.7303    3.7127 C   0  0  2  0  0  0  0  0  0  0  0  0
    0.5084    0.4959    3.0039 C   0  0  1  0  0  0  0  0  0  0  0  0
    1.0560    0.9588    1.6459 C   0  0  0  0  0  0  0  0  0  0  0  0
    1.5439   -0.4999    3.7075 C   0  0  1  0  0  0  0  0  0  0  0  0
    1.5123   -1.6812    2.9089 O   0  0  0  0  0  0  0  0  0  0  0  0
    3.0333   -0.1333    4.2512 C   0  0  2  0  0  0  0  0  0  0  0  0
    3.4270    1.1250    3.7486 O   0  0  0  0  0  0  0  0  0  0  0  0
    4.0438   -1.0607    3.5572 C   0  0  1  0  0  0  0  0  0  0  0  0
    4.3335   -0.7548    2.2055 O   0  0  0  0  0  0  0  0  0  0  0  0
    5.2895   -0.9221    4.3440 C   0  0  0  0  0  0  0  0  0  0  0  0
    4.8377   -0.9520    5.7776 C   0  0  1  0  0  0  0  0  0  0  0  0
    5.9114   -0.4862    6.5701 O   0  0  0  0  0  0  0  0  0  0  0  0
    3.4166   -0.2561    5.8643 C   0  0  2  0  0  0  0  0  0  0  0  0
    2.4978   -1.3239    6.5381 C   0  0  0  0  0  0  0  0  0  0  0  0
    1.3610   -0.8964    7.2895 O   0  0  0  0  0  0  0  0  0  0  0  0
    0.2838   -0.1969    6.6965 C   0  0  0  0  0  0  0  0  0  0  0  0
    0.4744    1.3028    6.2909 C   0  0  2  0  0  0  0  0  0  0  0  0
    1.4719    1.6432    5.4342 O   0  0  0  0  0  0  0  0  0  0  0  0
    1.1254    2.1286    7.4490 C   0  0  2  0  0  0  0  0  0  0  0  0
    1.7428    3.5285    7.1775 C   0  0  0  0  0  0  0  0  0  0  0  0
    3.2450    3.3358    7.5015 C   0  0  2  0  0  0  0  0  0  0  0  0
    3.9733    4.6296    7.8645 C   0  0  0  0  0  0  0  0  0  0  0  0
    4.0275    2.4055    6.5344 C   0  0  0  0  0  0  0  0  0  0  0  0
    3.5358    1.0014    6.9435 C   0  0  1  0  0  0  0  0  0  0  0  0
    2.4192    1.4154    7.9890 C   0  0  1  0  0  0  0  0  0  0  0  0
    3.0898    2.4905    8.6212 O   0  0  0  0  0  0  0  0  0  0  0  0
   -0.6399    1.6804    5.2435 C   0  0  1  0  0  0  0  0  0  0  0  0
   -3.0644    2.1996    6.5948 H   0  0  0  0  0  0  0  0  0  0  0  0
   -2.8768    3.9432    6.7100 H   0  0  0  0  0  0  0  0  0  0  0  0
   -1.7717    2.8818    7.5713 H   0  0  0  0  0  0  0  0  0  0  0  0
   -0.6673    3.8080    5.5053 H   0  0  0  0  0  0  0  0  0  0  0  0
   -3.2127    2.8707    4.1992 H   0  0  0  0  0  0  0  0  0  0  0  0
   -1.3064    4.5241    3.0509 H   0  0  0  0  0  0  0  0  0  0  0  0
   -2.1785    1.4058    2.8351 H   0  0  0  0  0  0  0  0  0  0  0  0
   -1.2830    2.7388    2.0979 H   0  0  0  0  0  0  0  0  0  0  0  0
    0.4570    2.5877    3.5808 H   0  0  0  0  0  0  0  0  0  0  0  0
   -0.3241   -0.1648    2.7701 H   0  0  0  0  0  0  0  0  0  0  0  0
    1.8041    1.7513    1.7428 H   0  0  0  0  0  0  0  0  0  0  0  0
    0.2472    1.3699    1.0426 H   0  0  0  0  0  0  0  0  0  0  0  0
    1.4950    0.1531    1.0659 H   0  0  0  0  0  0  0  0  0  0  0  0
    1.0186   -0.9373    4.5191 H   0  0  0  0  0  0  0  0  0  0  0  0
    1.6315   -1.4417    1.9894 H   0  0  0  0  0  0  0  0  0  0  0  0
    3.4362    1.0663    2.7918 H   0  0  0  0  0  0  0  0  0  0  0  0
    3.7746   -2.1226    3.6646 H   0  0  0  0  0  0  0  0  0  0  0  0
    3.6128   -1.0693    1.6600 H   0  0  0  0  0  0  0  0  0  0  0  0
    5.8266   -1.8155    4.0790 H   0  0  0  0  0  0  0  0  0  0  0  0
    5.8335   -0.0066    4.0943 H   0  0  0  0  0  0  0  0  0  0  0  0
    4.7584   -2.0192    6.0144 H   0  0  0  0  0  0  0  0  0  0  0  0
    6.0680    0.4281    6.3336 H   0  0  0  0  0  0  0  0  0  0  0  0
    2.2198   -2.1023    5.8314 H   0  0  0  0  0  0  0  0  0  0  0  0
    3.0900   -1.8334    7.2999 H   0  0  0  0  0  0  0  0  0  0  0  0
   -0.2534   -0.8262    5.9891 H   0  0  0  0  0  0  0  0  0  0  0  0
   -0.4332   -0.1531    7.5062 H   0  0  0  0  0  0  0  0  0  0  0  0
    1.3214    1.2897    4.5869 H   0  0  0  0  0  0  0  0  0  0  0  0
    0.4242    2.2146    8.2790 H   0  0  0  0  0  0  0  0  0  0  0  0
    1.5891    3.9315    6.1682 H   0  0  0  0  0  0  0  0  0  0  0  0
    1.3000    4.2296    7.8675 H   0  0  0  0  0  0  0  0  0  0  0  0
    4.0637    5.2688    6.9812 H   0  0  0  0  0  0  0  0  0  0  0  0
    4.9727    4.4339    8.2435 H   0  0  0  0  0  0  0  0  0  0  0  0
    3.4304    5.1918    8.6271 H   0  0  0  0  0  0  0  0  0  0  0  0
    3.8199    2.7074    5.5126 H   0  0  0  0  0  0  0  0  0  0  0  0
    5.1037    2.4788    6.6901 H   0  0  0  0  0  0  0  0  0  0  0  0
    4.2428    0.6503    7.6844 H   0  0  0  0  0  0  0  0  0  0  0  0
    2.2279    0.6575    8.7446 H   0  0  0  0  0  0  0  0  0  0  0  0
   -1.4076    0.9093    5.3048 H   0  0  0  0  0  0  0  0  0  0  0  0
  1  2  1  0
  1 33  1  0
  1 34  1  0
  1 35  1  0
  2 32  1  0
  2  3  1  0
  2 36  1  1
  3  4  1  0
  3  5  1  0
  3 37  1  1
  4 38  1  0
  5  6  1  0
  5 39  1  0
  5 40  1  0
  6 32  1  0
  6  7  1  0
  6 41  1  1
  7  8  1  0
  7  9  1  0
  7 42  1  6
  8 43  1  0
  8 44  1  0
  8 45  1  0
  9 10  1  0
  9 11  1  0
  9 46  1  1
 10 47  1  0
 11 18  1  0
 11 12  1  6
 11 13  1  0
 12 48  1  0
 13 14  1  0
 13 15  1  0
 13 49  1  6
 14 50  1  0
 15 16  1  0
 15 51  1  0
 15 52  1  0
 16 17  1  0
 16 18  1  0
 16 53  1  1
 17 54  1  0
 18 29  1  0
 18 19  1  1
 19 20  1  0
 19 55  1  0
 19 56  1  0
 20 21  1  0
 21 22  1  0
 21 57  1  0
 21 58  1  0
 22 23  1  6
 22 24  1  0
 22 32  1  0
 23 59  1  0
 24 30  1  0
 24 25  1  0
 24 60  1  1
 25 26  1  0
 25 61  1  0
 25 62  1  0
 26 31  1  0
 26 27  1  1
 26 28  1  0
 27 63  1  0
 27 64  1  0
 27 65  1  0
 28 29  1  0
 28 66  1  0
 28 67  1  0
 29 30  1  0
 29 68  1  1
 30 31  1  0
 30 69  1  1
 32 70  1  6
M  END
>  <i_m_ct_stereo_status>  (217) 
1

>  <s_m_source_file>  (217) 
/var/tmp/pbs.5076255.sched01/tmprae_yccg/80g5h6lheg.sdf

>  <i_m_source_file_index>  (217) 
18

>  <i_lp_mmshare_version>  (217) 
48012

>  <i_f3d_flags>  (217) 
0

>  <s_epik_input>  (217) 
W0NIMl0xW0NAXShPMikoW0NIM10pW0NIMl1bQ0BIXTNbQ0BASF0yW0NAQEhdMVtDQEBdKFtPSF0pKFtDSDJdT1tDSDJdNClbQ0BASF0oW0NASF0oW0NIM10pW0NAQEhdKFtPSF0pW0NIMl01KVtDQEhdNVtDQEBIXShbQ0gzXSlbQ0BASF0oW09IXSlbQ0BdKFtDQEBdMzQ2KShbT0hdKVtDQEBIXShbT0hdKVtDSDJdW0NASF02W09IXQ==

>  <s_epik_cmdline>  (217) 
J2VwaWtfcHl0aG9uJywgJy1waHQnLCAnMi4wJywgJy1waCcsICc3LjAnLCAnLXRuJywgJzgnLCAnLW1hJywgJzIwMCcsICctaW1hZScsICc8aW5maWxlLm1hZT4nLCAnLW9tYWUnLCAnPG91dGZpbGUubWFlPic=

>  <r_lp_tautomer_probability>  (217) 
1

>  <r_epik_Ionization_Penalty>  (217) 
2.03771e-06

>  <r_epik_Ionization_Penalty_Charging>  (217) 
0

>  <r_epik_Ionization_Penalty_Neutral>  (217) 
2.03771e-06

>  <r_epik_State_Penalty>  (217) 
-0

>  <r_epik_Charging_Adjusted_Penalty>  (217) 
0

>  <i_epik_Tot_Q>  (217) 
0

>  <i_epik_Tot_abs_Q>  (217) 
0

>  <s_lp_Force_Field>  (217) 
OPLS3e

>  <r_lp_Energy>  (217) 
173.559

>  <b_lp_Chiralities_Consistent>  (217) 
1

>  <s_lp_Variant>  (217) 
72:0-1

>  <s_i_glide_gridfile>  (217) 
pfpi4k_grid

>  <i_i_glide_lignum>  (217) 
18

>  <i_i_glide_rotatable_bonds>  (217) 
6

>  <r_i_docking_score>  (217) 
-2.60003

>  <r_i_glide_ligand_efficiency>  (217) 
-0.081251

>  <r_i_glide_ligand_efficiency_sa>  (217) 
-0.257956

>  <r_i_glide_ligand_efficiency_ln>  (217) 
-0.582218

>  <r_i_glide_gscore>  (217) 
-2.60003

>  <r_i_glide_lipo>  (217) 
-0.193317

>  <r_i_glide_hbond>  (217) 
-0.16

>  <r_i_glide_metal>  (217) 
-0

>  <r_i_glide_rewards>  (217) 
-0.309861

>  <r_i_glide_evdw>  (217) 
-22.0171

>  <r_i_glide_ecoul>  (217) 
-5.57334

>  <r_i_glide_erotb>  (217) 
0

>  <r_i_glide_esite>  (217) 
0

>  <r_i_glide_emodel>  (217) 
-32.3475

>  <r_i_glide_energy>  (217) 
-27.5904

>  <r_i_glide_einternal>  (217) 
1.32878

>  <r_i_glide_intrahb_reward>  (217) 
-0

>  <i_i_glide_confnum>  (217) 
2

>  <i_i_glide_posenum>  (217) 
2

>  <r_i_glide_eff_state_penalty>  (217) 
0

>  <ligand_id>  (217) 
72

>  <original_smiles>  (217) 
CC1C(O)CC2C(C)C(O)C3(O)C(O)CC(O)C34COCC(O)(C3CC5(C)CC4C3O5)C12

>  <smiles>  (217) 
[H]OC1([H])C([H])([H])C2([H])C([H])(C([H])([H])[H])C([H])(O[H])C3(O[H])C([H])(O[H])C([H])([H])C([H])(O[H])C34C([H])([H])OC([H])([H])C(O[H])(C3([H])C([H])([H])C5(C([H])([H])[H])OC3([H])C4([H])C5([H])[H])C2([H])C1([H])C([H])([H])[H]

$$$$
72:0:2
     RDKit          3D

 70 75  0  0  1  0  0  0  0  0999 V2000
    5.3926   -2.8316    5.6496 C   0  0  0  0  0  0  0  0  0  0  0  0
    4.4071   -2.4898    4.5208 C   0  0  2  0  0  0  0  0  0  0  0  0
    5.0688   -2.4718    3.1145 C   0  0  1  0  0  0  0  0  0  0  0  0
    4.8785   -3.7037    2.4465 O   0  0  0  0  0  0  0  0  0  0  0  0
    4.4666   -1.2949    2.3197 C   0  0  0  0  0  0  0  0  0  0  0  0
    3.2914   -0.7968    3.1597 C   0  0  2  0  0  0  0  0  0  0  0  0
    2.6743    0.6191    2.7471 C   0  0  1  0  0  0  0  0  0  0  0  0
    2.0203    0.4877    1.3644 C   0  0  0  0  0  0  0  0  0  0  0  0
    1.7958    1.5659    3.7051 C   0  0  1  0  0  0  0  0  0  0  0  0
    1.9183    2.8677    3.1584 O   0  0  0  0  0  0  0  0  0  0  0  0
    0.2993    1.2812    4.2839 C   0  0  2  0  0  0  0  0  0  0  0  0
   -0.2536    0.1981    3.5641 O   0  0  0  0  0  0  0  0  0  0  0  0
   -0.6498    2.4510    3.8687 C   0  0  1  0  0  0  0  0  0  0  0  0
   -0.9922    2.4648    2.4937 O   0  0  0  0  0  0  0  0  0  0  0  0
   -1.8881    2.2795    4.7156 C   0  0  0  0  0  0  0  0  0  0  0  0
   -1.3176    1.9577    6.0856 C   0  0  1  0  0  0  0  0  0  0  0  0
   -2.3618    1.4183    6.8822 O   0  0  0  0  0  0  0  0  0  0  0  0
    0.0264    1.1152    5.9189 C   0  0  2  0  0  0  0  0  0  0  0  0
    1.1145    1.9263    6.7011 C   0  0  0  0  0  0  0  0  0  0  0  0
    2.2320    1.2449    7.2801 O   0  0  0  0  0  0  0  0  0  0  0  0
    3.1987    0.5600    6.4962 C   0  0  0  0  0  0  0  0  0  0  0  0
    2.7999   -0.8032    5.8290 C   0  0  2  0  0  0  0  0  0  0  0  0
    1.7259   -0.8657    5.0125 O   0  0  0  0  0  0  0  0  0  0  0  0
    2.1284   -1.7682    6.8689 C   0  0  2  0  0  0  0  0  0  0  0  0
    1.3495   -3.0263    6.3966 C   0  0  0  0  0  0  0  0  0  0  0  0
   -0.1050   -2.7444    6.8465 C   0  0  2  0  0  0  0  0  0  0  0  0
   -0.9555   -4.0051    7.0425 C   0  0  0  0  0  0  0  0  0  0  0  0
   -0.8159   -1.5694    6.1064 C   0  0  0  0  0  0  0  0  0  0  0  0
   -0.1630   -0.3112    6.7426 C   0  0  1  0  0  0  0  0  0  0  0  0
    0.9516   -1.0366    7.6152 C   0  0  1  0  0  0  0  0  0  0  0  0
    0.1830   -2.1352    8.0823 O   0  0  0  0  0  0  0  0  0  0  0  0
    3.8027   -1.0871    4.6423 C   0  0  1  0  0  0  0  0  0  0  0  0
    6.2042   -2.1067    5.6963 H   0  0  0  0  0  0  0  0  0  0  0  0
    5.8347   -3.8162    5.4916 H   0  0  0  0  0  0  0  0  0  0  0  0
    4.9044   -2.8431    6.6224 H   0  0  0  0  0  0  0  0  0  0  0  0
    3.5898   -3.2170    4.5235 H   0  0  0  0  0  0  0  0  0  0  0  0
    6.1442   -2.3040    3.1938 H   0  0  0  0  0  0  0  0  0  0  0  0
    3.9474   -3.8575    2.3750 H   0  0  0  0  0  0  0  0  0  0  0  0
    5.2198   -0.5121    2.2253 H   0  0  0  0  0  0  0  0  0  0  0  0
    4.1691   -1.5928    1.3127 H   0  0  0  0  0  0  0  0  0  0  0  0
    2.5199   -1.5347    2.9238 H   0  0  0  0  0  0  0  0  0  0  0  0
    3.5685    1.2233    2.5791 H   0  0  0  0  0  0  0  0  0  0  0  0
    1.1778   -0.2025    1.3693 H   0  0  0  0  0  0  0  0  0  0  0  0
    2.7327    0.1182    0.6261 H   0  0  0  0  0  0  0  0  0  0  0  0
    1.6516    1.4437    1.0052 H   0  0  0  0  0  0  0  0  0  0  0  0
    2.4223    1.7519    4.5411 H   0  0  0  0  0  0  0  0  0  0  0  0
    1.4421    2.9092    2.3381 H   0  0  0  0  0  0  0  0  0  0  0  0
   -0.2701    0.4633    2.6484 H   0  0  0  0  0  0  0  0  0  0  0  0
   -0.2324    3.4202    4.1680 H   0  0  0  0  0  0  0  0  0  0  0  0
   -0.5392    3.1690    2.0053 H   0  0  0  0  0  0  0  0  0  0  0  0
   -2.5152    3.1680    4.7172 H   0  0  0  0  0  0  0  0  0  0  0  0
   -2.4887    1.4541    4.3405 H   0  0  0  0  0  0  0  0  0  0  0  0
   -1.0942    2.9291    6.5272 H   0  0  0  0  0  0  0  0  0  0  0  0
   -3.0270    2.0909    6.9824 H   0  0  0  0  0  0  0  0  0  0  0  0
    1.4495    2.7945    6.1351 H   0  0  0  0  0  0  0  0  0  0  0  0
    0.6425    2.3426    7.5912 H   0  0  0  0  0  0  0  0  0  0  0  0
    3.7613    1.2525    5.8769 H   0  0  0  0  0  0  0  0  0  0  0  0
    3.9532    0.2914    7.2325 H   0  0  0  0  0  0  0  0  0  0  0  0
    1.8550   -0.3047    4.2589 H   0  0  0  0  0  0  0  0  0  0  0  0
    2.8682   -2.0755    7.6097 H   0  0  0  0  0  0  0  0  0  0  0  0
    1.4064   -3.2468    5.3299 H   0  0  0  0  0  0  0  0  0  0  0  0
    1.7464   -3.8965    6.9178 H   0  0  0  0  0  0  0  0  0  0  0  0
   -1.1620   -4.4731    6.0773 H   0  0  0  0  0  0  0  0  0  0  0  0
   -1.9099   -3.7912    7.5212 H   0  0  0  0  0  0  0  0  0  0  0  0
   -0.4412   -4.7429    7.6547 H   0  0  0  0  0  0  0  0  0  0  0  0
   -0.6922   -1.6838    5.0340 H   0  0  0  0  0  0  0  0  0  0  0  0
   -1.8857   -1.5665    6.3031 H   0  0  0  0  0  0  0  0  0  0  0  0
   -0.7755   -0.0456    7.5995 H   0  0  0  0  0  0  0  0  0  0  0  0
    1.2736   -0.4682    8.4911 H   0  0  0  0  0  0  0  0  0  0  0  0
    4.6611   -0.4267    4.7853 H   0  0  0  0  0  0  0  0  0  0  0  0
  1  2  1  0
  1 33  1  0
  1 34  1  0
  1 35  1  0
  2 32  1  0
  2  3  1  0
  2 36  1  6
  3  4  1  0
  3  5  1  0
  3 37  1  1
  4 38  1  0
  5  6  1  0
  5 39  1  0
  5 40  1  0
  6 32  1  0
  6  7  1  0
  6 41  1  6
  7  8  1  0
  7  9  1  0
  7 42  1  6
  8 43  1  0
  8 44  1  0
  8 45  1  0
  9 10  1  0
  9 11  1  0
  9 46  1  1
 10 47  1  0
 11 18  1  0
 11 12  1  6
 11 13  1  0
 12 48  1  0
 13 14  1  0
 13 15  1  0
 13 49  1  1
 14 50  1  0
 15 16  1  0
 15 51  1  0
 15 52  1  0
 16 17  1  0
 16 18  1  0
 16 53  1  1
 17 54  1  0
 18 29  1  0
 18 19  1  1
 19 20  1  0
 19 55  1  0
 19 56  1  0
 20 21  1  0
 21 22  1  0
 21 57  1  0
 21 58  1  0
 22 23  1  6
 22 24  1  0
 22 32  1  0
 23 59  1  0
 24 30  1  0
 24 25  1  0
 24 60  1  1
 25 26  1  0
 25 61  1  0
 25 62  1  0
 26 31  1  0
 26 27  1  1
 26 28  1  0
 27 63  1  0
 27 64  1  0
 27 65  1  0
 28 29  1  0
 28 66  1  0
 28 67  1  0
 29 30  1  0
 29 68  1  1
 30 31  1  0
 30 69  1  1
 32 70  1  1
M  END
>  <i_m_ct_stereo_status>  (218) 
1

>  <s_m_source_file>  (218) 
/var/tmp/pbs.5076255.sched01/tmprae_yccg/80g5h6lheg.sdf

>  <i_m_source_file_index>  (218) 
18

>  <i_lp_mmshare_version>  (218) 
48012

>  <i_f3d_flags>  (218) 
0

>  <s_epik_input>  (218) 
W0NIMl0xW0NAXShPMikoW0NIM10pW0NIMl1bQ0BIXTNbQ0BASF0yW0NAQEhdMVtDQEBdKFtPSF0pKFtDSDJdT1tDSDJdNClbQ0BASF0oW0NASF0oW0NIM10pW0NAQEhdKFtPSF0pW0NIMl01KVtDQEhdNVtDQEBIXShbQ0gzXSlbQ0BASF0oW09IXSlbQ0BdKFtDQEBdMzQ2KShbT0hdKVtDQEBIXShbT0hdKVtDSDJdW0NASF02W09IXQ==

>  <s_epik_cmdline>  (218) 
J2VwaWtfcHl0aG9uJywgJy1waHQnLCAnMi4wJywgJy1waCcsICc3LjAnLCAnLXRuJywgJzgnLCAnLW1hJywgJzIwMCcsICctaW1hZScsICc8aW5maWxlLm1hZT4nLCAnLW9tYWUnLCAnPG91dGZpbGUubWFlPic=

>  <r_lp_tautomer_probability>  (218) 
1

>  <r_epik_Ionization_Penalty>  (218) 
2.03771e-06

>  <r_epik_Ionization_Penalty_Charging>  (218) 
0

>  <r_epik_Ionization_Penalty_Neutral>  (218) 
2.03771e-06

>  <r_epik_State_Penalty>  (218) 
-0

>  <r_epik_Charging_Adjusted_Penalty>  (218) 
0

>  <i_epik_Tot_Q>  (218) 
0

>  <i_epik_Tot_abs_Q>  (218) 
0

>  <s_lp_Force_Field>  (218) 
OPLS3e

>  <r_lp_Energy>  (218) 
173.559

>  <b_lp_Chiralities_Consistent>  (218) 
1

>  <s_lp_Variant>  (218) 
72:0-1

>  <s_i_glide_gridfile>  (218) 
pfpi4k_grid

>  <i_i_glide_lignum>  (218) 
18

>  <i_i_glide_rotatable_bonds>  (218) 
6

>  <r_i_docking_score>  (218) 
-2.56235

>  <r_i_glide_ligand_efficiency>  (218) 
-0.0800736

>  <r_i_glide_ligand_efficiency_sa>  (218) 
-0.254218

>  <r_i_glide_ligand_efficiency_ln>  (218) 
-0.573781

>  <r_i_glide_gscore>  (218) 
-2.56235

>  <r_i_glide_lipo>  (218) 
-0.142488

>  <r_i_glide_hbond>  (218) 
-0.137782

>  <r_i_glide_metal>  (218) 
-0

>  <r_i_glide_rewards>  (218) 
-0.309861

>  <r_i_glide_evdw>  (218) 
-21.4611

>  <r_i_glide_ecoul>  (218) 
-5.99447

>  <r_i_glide_erotb>  (218) 
0

>  <r_i_glide_esite>  (218) 
0

>  <r_i_glide_emodel>  (218) 
-32.4763

>  <r_i_glide_energy>  (218) 
-27.4555

>  <r_i_glide_einternal>  (218) 
1.27959

>  <r_i_glide_intrahb_reward>  (218) 
-0

>  <i_i_glide_confnum>  (218) 
2

>  <i_i_glide_posenum>  (218) 
10

>  <r_i_glide_eff_state_penalty>  (218) 
0

>  <ligand_id>  (218) 
72

>  <original_smiles>  (218) 
CC1C(O)CC2C(C)C(O)C3(O)C(O)CC(O)C34COCC(O)(C3CC5(C)CC4C3O5)C12

>  <smiles>  (218) 
[H]OC1([H])C([H])([H])C2([H])C([H])(C([H])([H])[H])C([H])(O[H])C3(O[H])C([H])(O[H])C([H])([H])C([H])(O[H])C34C([H])([H])OC([H])([H])C(O[H])(C3([H])C([H])([H])C5(C([H])([H])[H])OC3([H])C4([H])C5([H])[H])C2([H])C1([H])C([H])([H])[H]

$$$$
73:0:0
     RDKit          3D

 59 65  0  0  1  0  0  0  0  0999 V2000
    3.2216   -1.2348    5.2810 C   0  0  0  0  0  0  0  0  0  0  0  0
    4.0216   -2.4094    5.2234 O   0  0  0  0  0  0  0  0  0  0  0  0
    4.0628   -3.1796    4.0074 C   0  0  2  0  0  0  0  0  0  0  0  0
    5.3162   -2.6999    3.2329 C   0  0  2  0  0  0  0  0  0  0  0  0
    5.1753   -1.3556    2.4684 C   0  0  0  0  0  0  0  0  0  0  0  0
    5.2184   -1.3814    0.9304 C   0  0  0  0  0  0  0  0  0  0  0  0
    4.1365   -2.2427    0.4148 N   0  0  2  0  0  0  0  0  0  0  0  0
    4.4795   -3.6648    0.3528 C   0  0  2  0  0  0  0  0  0  0  0  0
    3.3788   -4.3080   -0.4789 C   0  0  0  0  0  0  0  0  0  0  0  0
    2.6992   -3.1506   -1.2226 C   0  0  2  0  0  0  0  0  0  0  0  0
    2.4723   -3.4149   -2.7023 C   0  0  0  0  0  0  0  0  0  0  0  0
    2.9978   -2.6880   -3.6908 C   0  0  0  0  0  0  0  0  0  0  0  0
    3.9739   -1.5681   -3.4543 C   0  0  1  0  0  0  0  0  0  0  0  0
    3.3669   -0.3081   -3.6827 O   0  0  0  0  0  0  0  0  0  0  0  0
    4.6202   -1.7278   -2.0555 C   0  0  1  0  0  0  0  0  0  0  0  0
    5.4156   -0.6371   -1.8375 O   0  0  0  0  0  0  0  0  0  0  0  0
    3.5675   -1.8947   -0.9239 C   0  0  2  0  0  0  0  0  0  0  0  0
    4.7820   -4.3733    1.6914 C   0  0  1  0  0  0  0  0  0  0  0  0
    5.8214   -3.7024    2.3628 O   0  0  0  0  0  0  0  0  0  0  0  0
    3.6037   -4.6202    2.6801 C   0  0  2  0  0  0  0  0  0  0  0  0
    2.7285   -3.4391    3.2401 C   0  0  1  0  0  0  0  0  0  0  0  0
    1.4538   -3.8738    4.0796 C   0  0  1  0  0  0  0  0  0  0  0  0
    0.8963   -5.2460    3.6298 C   0  0  0  0  0  0  0  0  0  0  0  0
    1.8212   -6.2748    4.3407 C   0  0  0  0  0  0  0  0  0  0  0  0
    2.8165   -5.3793    5.1174 C   0  0  2  0  0  0  0  0  0  0  0  0
    1.8257   -4.2976    5.5179 C   0  0  0  0  0  0  0  0  0  0  0  0
    3.9516   -4.7472    4.2021 C   0  0  2  0  0  0  0  0  0  0  0  0
    3.2344   -0.9184    6.3317 H   0  0  0  0  0  0  0  0  0  0  0  0
    2.1818   -1.4953    5.0955 H   0  0  0  0  0  0  0  0  0  0  0  0
    3.5415   -0.4406    4.5961 H   0  0  0  0  0  0  0  0  0  0  0  0
    6.0821   -2.6243    3.9944 H   0  0  0  0  0  0  0  0  0  0  0  0
    4.2147   -0.8844    2.7224 H   0  0  0  0  0  0  0  0  0  0  0  0
    6.0026   -0.7011    2.7703 H   0  0  0  0  0  0  0  0  0  0  0  0
    4.9930   -0.3633    0.6343 H   0  0  0  0  0  0  0  0  0  0  0  0
    6.2100   -1.6217    0.4940 H   0  0  0  0  0  0  0  0  0  0  0  0
    5.3919   -3.7529   -0.2392 H   0  0  0  0  0  0  0  0  0  0  0  0
    3.8883   -5.0245   -1.1186 H   0  0  0  0  0  0  0  0  0  0  0  0
    2.6288   -4.8378    0.1048 H   0  0  0  0  0  0  0  0  0  0  0  0
    1.6870   -3.0553   -0.8128 H   0  0  0  0  0  0  0  0  0  0  0  0
    1.8076   -4.2475   -2.9231 H   0  0  0  0  0  0  0  0  0  0  0  0
    2.7966   -2.9431   -4.7176 H   0  0  0  0  0  0  0  0  0  0  0  0
    4.7560   -1.6800   -4.1991 H   0  0  0  0  0  0  0  0  0  0  0  0
    2.6019   -0.2032   -3.1329 H   0  0  0  0  0  0  0  0  0  0  0  0
    5.2732   -2.6029   -2.0853 H   0  0  0  0  0  0  0  0  0  0  0  0
    4.8762    0.1315   -1.7822 H   0  0  0  0  0  0  0  0  0  0  0  0
    2.9862   -0.9847   -0.8364 H   0  0  0  0  0  0  0  0  0  0  0  0
    5.2114   -5.3357    1.4097 H   0  0  0  0  0  0  0  0  0  0  0  0
    3.0309   -5.4656    2.2924 H   0  0  0  0  0  0  0  0  0  0  0  0
    2.5144   -2.6927    2.4729 H   0  0  0  0  0  0  0  0  0  0  0  0
    0.6752   -3.1164    4.0551 H   0  0  0  0  0  0  0  0  0  0  0  0
   -0.1275   -5.3729    4.0011 H   0  0  0  0  0  0  0  0  0  0  0  0
    0.8828   -5.3571    2.5437 H   0  0  0  0  0  0  0  0  0  0  0  0
    1.2225   -6.8728    5.0358 H   0  0  0  0  0  0  0  0  0  0  0  0
    2.3175   -6.9761    3.6663 H   0  0  0  0  0  0  0  0  0  0  0  0
    3.2267   -5.9025    5.9819 H   0  0  0  0  0  0  0  0  0  0  0  0
    2.2749   -3.5550    6.1679 H   0  0  0  0  0  0  0  0  0  0  0  0
    0.9665   -4.6989    6.0749 H   0  0  0  0  0  0  0  0  0  0  0  0
    4.9269   -5.2317    4.3160 H   0  0  0  0  0  0  0  0  0  0  0  0
    3.3441   -2.1922    1.0466 H   0  0  0  0  0  0  0  0  0  0  0  0
  1  2  1  0
  1 28  1  0
  1 29  1  0
  1 30  1  0
  3  2  1  1
  3 21  1  0
  3 27  1  0
  3  4  1  0
  4 19  1  0
  4  5  1  0
  4 31  1  1
  5  6  1  0
  5 32  1  0
  5 33  1  0
  6  7  1  0
  6 34  1  0
  6 35  1  0
  7 17  1  0
  7  8  1  0
  7 59  1  1
  8  9  1  0
  8 18  1  0
  8 36  1  6
  9 10  1  0
  9 37  1  0
  9 38  1  0
 10 17  1  0
 10 11  1  0
 10 39  1  1
 11 12  2  0
 11 40  1  0
 12 13  1  0
 12 41  1  0
 13 14  1  0
 13 15  1  0
 13 42  1  6
 14 43  1  0
 15 16  1  0
 15 17  1  0
 15 44  1  6
 16 45  1  0
 17 46  1  1
 18 19  1  0
 18 20  1  0
 18 47  1  6
 20 27  1  0
 20 21  1  0
 20 48  1  6
 21 22  1  0
 21 49  1  6
 22 26  1  0
 22 23  1  0
 22 50  1  1
 23 24  1  0
 23 51  1  0
 23 52  1  0
 24 25  1  0
 24 53  1  0
 24 54  1  0
 25 26  1  0
 25 27  1  0
 25 55  1  1
 26 56  1  0
 26 57  1  0
 27 58  1  6
M  CHG  1   7   1
M  END
>  <i_m_ct_stereo_status>  (219) 
1

>  <s_m_source_file>  (219) 
/var/tmp/pbs.5076255.sched01/tmprae_yccg/80g5h6lheg.sdf

>  <i_m_source_file_index>  (219) 
19

>  <i_lp_mmshare_version>  (219) 
48012

>  <i_f3d_flags>  (219) 
0

>  <s_epik_input>  (219) 
W0NIM11PW0NAXTEyW0NIXTNbQ0gyXVtDSDJdTjRbQ0BIXShbQ0gyXVtDQEhdNVtDQEBIXTRbQ0BIXShbT0hdKVtDQEhdKFtPSF0pW0NIXT1bQ0hdNSlbQ0BASF0oTzMpW0NAQEhdNltDQEhdMVtDQEhdN1tDSDJdW0NIMl1bQ0BIXShbQ0gyXTcpW0NASF0yNg==

>  <s_epik_cmdline>  (219) 
J2VwaWtfcHl0aG9uJywgJy1waHQnLCAnMi4wJywgJy1waCcsICc3LjAnLCAnLXRuJywgJzgnLCAnLW1hJywgJzIwMCcsICctaW1hZScsICc8aW5maWxlLm1hZT4nLCAnLW9tYWUnLCAnPG91dGZpbGUubWFlPic=

>  <r_epik_Ionization_Penalty>  (219) 
0.0203575

>  <r_epik_Ionization_Penalty_Charging>  (219) 
0.0203554

>  <r_epik_Ionization_Penalty_Neutral>  (219) 
2.10677e-06

>  <r_epik_State_Penalty>  (219) 
0.0163105

>  <r_epik_Charging_Adjusted_Penalty>  (219) 
0.0366659

>  <i_epik_Tot_Q>  (219) 
1

>  <i_epik_Tot_abs_Q>  (219) 
1

>  <s_lp_Force_Field>  (219) 
OPLS3e

>  <r_lp_Energy>  (219) 
102.495

>  <b_lp_Chiralities_Consistent>  (219) 
1

>  <s_lp_Variant>  (219) 
73:0-1

>  <s_i_glide_gridfile>  (219) 
pfpi4k_grid

>  <i_i_glide_lignum>  (219) 
19

>  <i_i_glide_rotatable_bonds>  (219) 
3

>  <r_i_docking_score>  (219) 
-3.46807

>  <r_i_glide_ligand_efficiency>  (219) 
-0.128447

>  <r_i_glide_ligand_efficiency_sa>  (219) 
-0.385341

>  <r_i_glide_ligand_efficiency_ln>  (219) 
-0.807308

>  <r_i_glide_gscore>  (219) 
-3.46807

>  <r_i_glide_lipo>  (219) 
-0.841811

>  <r_i_glide_hbond>  (219) 
0

>  <r_i_glide_metal>  (219) 
-0

>  <r_i_glide_rewards>  (219) 
-0.855724

>  <r_i_glide_evdw>  (219) 
-15.0581

>  <r_i_glide_ecoul>  (219) 
-6.7162

>  <r_i_glide_erotb>  (219) 
0

>  <r_i_glide_esite>  (219) 
-0.0101974

>  <r_i_glide_emodel>  (219) 
-25.1084

>  <r_i_glide_energy>  (219) 
-21.7743

>  <r_i_glide_einternal>  (219) 
2.44371

>  <r_i_glide_intrahb_reward>  (219) 
-0

>  <i_i_glide_confnum>  (219) 
1

>  <i_i_glide_posenum>  (219) 
15

>  <r_i_glide_eff_state_penalty>  (219) 
0

>  <ligand_id>  (219) 
73

>  <original_smiles>  (219) 
COC12C3CCN4C(CC5C=CC(O)C(O)C54)C(O3)C3C1C1CCC(C1)C32

>  <smiles>  (219) 
[H]OC1([H])C([H])=C([H])C2([H])C([H])([H])C3([H])C4([H])OC([H])(C([H])([H])C([H])([H])[N+]3([H])C2([H])C1([H])O[H])C1(OC([H])([H])[H])C2([H])C3([H])C([H])([H])C([H])([H])C([H])(C3([H])[H])C1([H])C42[H]

$$$$
73:0:1
     RDKit          3D

 59 65  0  0  1  0  0  0  0  0999 V2000
    2.9042    0.6129    6.1156 C   0  0  0  0  0  0  0  0  0  0  0  0
    3.5474   -0.6134    6.4657 O   0  0  0  0  0  0  0  0  0  0  0  0
    3.6063   -1.6570    5.5005 C   0  0  2  0  0  0  0  0  0  0  0  0
    5.0087   -1.5101    4.7938 C   0  0  2  0  0  0  0  0  0  0  0  0
    5.0975   -0.3980    3.7089 C   0  0  0  0  0  0  0  0  0  0  0  0
    5.2717   -0.8161    2.2484 C   0  0  0  0  0  0  0  0  0  0  0  0
    4.1315   -1.6622    1.7981 N   0  0  2  0  0  0  0  0  0  0  0  0
    4.2894   -3.1020    2.1300 C   0  0  2  0  0  0  0  0  0  0  0  0
    3.1876   -3.8082    1.3321 C   0  0  0  0  0  0  0  0  0  0  0  0
    2.7938   -2.8068    0.2449 C   0  0  2  0  0  0  0  0  0  0  0  0
    2.6630   -3.4383   -1.1368 C   0  0  0  0  0  0  0  0  0  0  0  0
    3.3777   -3.0377   -2.2125 C   0  0  0  0  0  0  0  0  0  0  0  0
    4.4394   -1.9763   -2.1157 C   0  0  1  0  0  0  0  0  0  0  0  0
    3.9847   -0.7753   -2.7045 O   0  0  0  0  0  0  0  0  0  0  0  0
    4.9201   -1.7705   -0.6514 C   0  0  1  0  0  0  0  0  0  0  0  0
    5.7994   -0.6552   -0.6138 O   0  0  0  0  0  0  0  0  0  0  0  0
    3.7450   -1.6103    0.3473 C   0  0  2  0  0  0  0  0  0  0  0  0
    4.3756   -3.4488    3.6245 C   0  0  1  0  0  0  0  0  0  0  0  0
    5.4233   -2.7528    4.2669 O   0  0  0  0  0  0  0  0  0  0  0  0
    3.0810   -3.3165    4.4998 C   0  0  2  0  0  0  0  0  0  0  0  0
    2.3451   -1.9586    4.6476 C   0  0  1  0  0  0  0  0  0  0  0  0
    0.9306   -2.0175    5.3894 C   0  0  1  0  0  0  0  0  0  0  0  0
    0.2427   -3.3853    5.2018 C   0  0  0  0  0  0  0  0  0  0  0  0
    0.9411   -4.2960    6.2525 C   0  0  0  0  0  0  0  0  0  0  0  0
    1.9665   -3.3512    6.9236 C   0  0  2  0  0  0  0  0  0  0  0  0
    1.1114   -2.1005    6.9174 C   0  0  0  0  0  0  0  0  0  0  0  0
    3.2723   -3.1044    6.0296 C   0  0  2  0  0  0  0  0  0  0  0  0
    2.8767    1.2548    7.0014 H   0  0  0  0  0  0  0  0  0  0  0  0
    1.8603    0.4462    5.8661 H   0  0  0  0  0  0  0  0  0  0  0  0
    3.3815    1.1507    5.2914 H   0  0  0  0  0  0  0  0  0  0  0  0
    5.7398   -1.2985    5.5799 H   0  0  0  0  0  0  0  0  0  0  0  0
    4.2052    0.2327    3.7373 H   0  0  0  0  0  0  0  0  0  0  0  0
    5.9528    0.2341    3.9637 H   0  0  0  0  0  0  0  0  0  0  0  0
    5.2046    0.1114    1.6911 H   0  0  0  0  0  0  0  0  0  0  0  0
    6.2469   -1.2386    2.0146 H   0  0  0  0  0  0  0  0  0  0  0  0
    5.2404   -3.4079    1.6938 H   0  0  0  0  0  0  0  0  0  0  0  0
    3.5412   -4.7556    0.9331 H   0  0  0  0  0  0  0  0  0  0  0  0
    2.3077   -4.0291    1.9418 H   0  0  0  0  0  0  0  0  0  0  0  0
    1.8162   -2.4277    0.5206 H   0  0  0  0  0  0  0  0  0  0  0  0
    1.9211   -4.2128   -1.2484 H   0  0  0  0  0  0  0  0  0  0  0  0
    3.2199   -3.4948   -3.1738 H   0  0  0  0  0  0  0  0  0  0  0  0
    5.2803   -2.3280   -2.7183 H   0  0  0  0  0  0  0  0  0  0  0  0
    3.0902   -0.6130   -2.4165 H   0  0  0  0  0  0  0  0  0  0  0  0
    5.4923   -2.6635   -0.3992 H   0  0  0  0  0  0  0  0  0  0  0  0
    5.3269    0.1220   -0.8310 H   0  0  0  0  0  0  0  0  0  0  0  0
    3.2102   -0.6877    0.1329 H   0  0  0  0  0  0  0  0  0  0  0  0
    4.6841   -4.4883    3.6480 H   0  0  0  0  0  0  0  0  0  0  0  0
    2.4515   -4.1474    4.2493 H   0  0  0  0  0  0  0  0  0  0  0  0
    2.3173   -1.4083    3.7277 H   0  0  0  0  0  0  0  0  0  0  0  0
    0.2883   -1.2001    5.0797 H   0  0  0  0  0  0  0  0  0  0  0  0
   -0.8174   -3.2845    5.4466 H   0  0  0  0  0  0  0  0  0  0  0  0
    0.3131   -3.7584    4.1794 H   0  0  0  0  0  0  0  0  0  0  0  0
    0.2053   -4.6322    6.9851 H   0  0  0  0  0  0  0  0  0  0  0  0
    1.3953   -5.1943    5.8340 H   0  0  0  0  0  0  0  0  0  0  0  0
    2.2208   -3.6811    7.9360 H   0  0  0  0  0  0  0  0  0  0  0  0
    1.5796   -1.2641    7.4212 H   0  0  0  0  0  0  0  0  0  0  0  0
    0.1568   -2.2477    7.4314 H   0  0  0  0  0  0  0  0  0  0  0  0
    4.1292   -3.6438    6.3843 H   0  0  0  0  0  0  0  0  0  0  0  0
    3.3073   -1.3587    2.2864 H   0  0  0  0  0  0  0  0  0  0  0  0
  1  2  1  0
  1 28  1  0
  1 29  1  0
  1 30  1  0
  3  2  1  1
  3 21  1  0
  3 27  1  0
  3  4  1  0
  4 19  1  0
  4  5  1  0
  4 31  1  1
  5  6  1  0
  5 32  1  0
  5 33  1  0
  6  7  1  0
  6 34  1  0
  6 35  1  0
  7 17  1  0
  7  8  1  0
  7 59  1  1
  8  9  1  0
  8 18  1  0
  8 36  1  6
  9 10  1  0
  9 37  1  0
  9 38  1  0
 10 17  1  0
 10 11  1  0
 10 39  1  1
 11 12  2  0
 11 40  1  0
 12 13  1  0
 12 41  1  0
 13 14  1  0
 13 15  1  0
 13 42  1  6
 14 43  1  0
 15 16  1  0
 15 17  1  0
 15 44  1  1
 16 45  1  0
 17 46  1  6
 18 19  1  0
 18 20  1  0
 18 47  1  6
 20 27  1  0
 20 21  1  0
 20 48  1  1
 21 22  1  0
 21 49  1  6
 22 26  1  0
 22 23  1  0
 22 50  1  1
 23 24  1  0
 23 51  1  0
 23 52  1  0
 24 25  1  0
 24 53  1  0
 24 54  1  0
 25 26  1  0
 25 27  1  0
 25 55  1  1
 26 56  1  0
 26 57  1  0
 27 58  1  1
M  CHG  1   7   1
M  END
>  <i_m_ct_stereo_status>  (220) 
1

>  <s_m_source_file>  (220) 
/var/tmp/pbs.5076255.sched01/tmprae_yccg/80g5h6lheg.sdf

>  <i_m_source_file_index>  (220) 
19

>  <i_lp_mmshare_version>  (220) 
48012

>  <i_f3d_flags>  (220) 
0

>  <s_epik_input>  (220) 
W0NIM11PW0NAXTEyW0NIXTNbQ0gyXVtDSDJdTjRbQ0BIXShbQ0gyXVtDQEhdNVtDQEBIXTRbQ0BIXShbT0hdKVtDQEhdKFtPSF0pW0NIXT1bQ0hdNSlbQ0BASF0oTzMpW0NAQEhdNltDQEhdMVtDQEhdN1tDSDJdW0NIMl1bQ0BIXShbQ0gyXTcpW0NASF0yNg==

>  <s_epik_cmdline>  (220) 
J2VwaWtfcHl0aG9uJywgJy1waHQnLCAnMi4wJywgJy1waCcsICc3LjAnLCAnLXRuJywgJzgnLCAnLW1hJywgJzIwMCcsICctaW1hZScsICc8aW5maWxlLm1hZT4nLCAnLW9tYWUnLCAnPG91dGZpbGUubWFlPic=

>  <r_epik_Ionization_Penalty>  (220) 
0.0203575

>  <r_epik_Ionization_Penalty_Charging>  (220) 
0.0203554

>  <r_epik_Ionization_Penalty_Neutral>  (220) 
2.10677e-06

>  <r_epik_State_Penalty>  (220) 
0.0163105

>  <r_epik_Charging_Adjusted_Penalty>  (220) 
0.0366659

>  <i_epik_Tot_Q>  (220) 
1

>  <i_epik_Tot_abs_Q>  (220) 
1

>  <s_lp_Force_Field>  (220) 
OPLS3e

>  <r_lp_Energy>  (220) 
102.495

>  <b_lp_Chiralities_Consistent>  (220) 
1

>  <s_lp_Variant>  (220) 
73:0-1

>  <s_i_glide_gridfile>  (220) 
pfpi4k_grid

>  <i_i_glide_lignum>  (220) 
19

>  <i_i_glide_rotatable_bonds>  (220) 
3

>  <r_i_docking_score>  (220) 
-3.07838

>  <r_i_glide_ligand_efficiency>  (220) 
-0.114014

>  <r_i_glide_ligand_efficiency_sa>  (220) 
-0.342042

>  <r_i_glide_ligand_efficiency_ln>  (220) 
-0.716595

>  <r_i_glide_gscore>  (220) 
-3.07838

>  <r_i_glide_lipo>  (220) 
-0.334674

>  <r_i_glide_hbond>  (220) 
0

>  <r_i_glide_metal>  (220) 
-0

>  <r_i_glide_rewards>  (220) 
-0.855724

>  <r_i_glide_evdw>  (220) 
-16.2366

>  <r_i_glide_ecoul>  (220) 
-7.1609

>  <r_i_glide_erotb>  (220) 
0

>  <r_i_glide_esite>  (220) 
-0.00201089

>  <r_i_glide_emodel>  (220) 
-26.0695

>  <r_i_glide_energy>  (220) 
-23.3975

>  <r_i_glide_einternal>  (220) 
2.44419

>  <r_i_glide_intrahb_reward>  (220) 
-0

>  <i_i_glide_confnum>  (220) 
2

>  <i_i_glide_posenum>  (220) 
3

>  <r_i_glide_eff_state_penalty>  (220) 
0

>  <ligand_id>  (220) 
73

>  <original_smiles>  (220) 
COC12C3CCN4C(CC5C=CC(O)C(O)C54)C(O3)C3C1C1CCC(C1)C32

>  <smiles>  (220) 
[H]OC1([H])C([H])=C([H])C2([H])C([H])([H])C3([H])C4([H])OC([H])(C([H])([H])C([H])([H])[N+]3([H])C2([H])C1([H])O[H])C1(OC([H])([H])[H])C2([H])C3([H])C([H])([H])C([H])([H])C([H])(C3([H])[H])C1([H])C42[H]

$$$$
73:0:2
     RDKit          3D

 59 65  0  0  1  0  0  0  0  0999 V2000
    4.3834   -3.3824    6.8807 C   0  0  0  0  0  0  0  0  0  0  0  0
    3.5993   -2.9608    5.7665 O   0  0  0  0  0  0  0  0  0  0  0  0
    3.7492   -3.7049    4.5600 C   0  0  2  0  0  0  0  0  0  0  0  0
    5.0496   -3.1755    3.8703 C   0  0  2  0  0  0  0  0  0  0  0  0
    4.9146   -1.7724    3.2254 C   0  0  0  0  0  0  0  0  0  0  0  0
    5.0039   -1.6719    1.6817 C   0  0  0  0  0  0  0  0  0  0  0  0
    3.9658   -2.4793    0.9887 N   0  0  2  0  0  0  0  0  0  0  0  0
    4.2685   -3.9198    0.8652 C   0  0  2  0  0  0  0  0  0  0  0  0
    3.1782   -4.4582   -0.0636 C   0  0  0  0  0  0  0  0  0  0  0  0
    2.6388   -3.2264   -0.8111 C   0  0  2  0  0  0  0  0  0  0  0  0
    2.4800   -3.4149   -2.3132 C   0  0  0  0  0  0  0  0  0  0  0  0
    3.0946   -2.6658   -3.2385 C   0  0  0  0  0  0  0  0  0  0  0  0
    4.0926   -1.5951   -2.8714 C   0  0  1  0  0  0  0  0  0  0  0  0
    3.5171   -0.3270   -3.0993 O   0  0  0  0  0  0  0  0  0  0  0  0
    4.6357   -1.7927   -1.4248 C   0  0  1  0  0  0  0  0  0  0  0  0
    5.4251   -0.6758   -1.0962 O   0  0  0  0  0  0  0  0  0  0  0  0
    3.5212   -2.0370   -0.3680 C   0  0  2  0  0  0  0  0  0  0  0  0
    4.4870   -4.7037    2.1812 C   0  0  1  0  0  0  0  0  0  0  0  0
    5.5343   -4.1179    2.9282 O   0  0  0  0  0  0  0  0  0  0  0  0
    3.2592   -4.9650    3.0979 C   0  0  2  0  0  0  0  0  0  0  0  0
    2.4386   -3.7912    3.7087 C   0  0  1  0  0  0  0  0  0  0  0  0
    1.0724   -4.1746    4.4104 C   0  0  1  0  0  0  0  0  0  0  0  0
    0.4722   -5.4849    3.8432 C   0  0  0  0  0  0  0  0  0  0  0  0
    1.2860   -6.6092    4.5443 C   0  0  0  0  0  0  0  0  0  0  0  0
    2.2765   -5.8289    5.4377 C   0  0  2  0  0  0  0  0  0  0  0  0
    1.3325   -4.6897    5.8276 C   0  0  0  0  0  0  0  0  0  0  0  0
    3.5022   -5.2534    4.6163 C   0  0  2  0  0  0  0  0  0  0  0  0
    4.1024   -2.7830    7.7441 H   0  0  0  0  0  0  0  0  0  0  0  0
    5.4517   -3.2349    6.7347 H   0  0  0  0  0  0  0  0  0  0  0  0
    4.2066   -4.4246    7.1475 H   0  0  0  0  0  0  0  0  0  0  0  0
    5.8398   -3.1136    4.6141 H   0  0  0  0  0  0  0  0  0  0  0  0
    4.0183   -1.2744    3.6030 H   0  0  0  0  0  0  0  0  0  0  0  0
    5.7371   -1.1702    3.6140 H   0  0  0  0  0  0  0  0  0  0  0  0
    4.8699   -0.6214    1.4327 H   0  0  0  0  0  0  0  0  0  0  0  0
    6.0042   -1.9318    1.3368 H   0  0  0  0  0  0  0  0  0  0  0  0
    5.2116   -3.9979    0.3252 H   0  0  0  0  0  0  0  0  0  0  0  0
    3.6085   -5.2171   -0.7189 H   0  0  0  0  0  0  0  0  0  0  0  0
    2.3621   -4.9446    0.4703 H   0  0  0  0  0  0  0  0  0  0  0  0
    1.6296   -3.0563   -0.4474 H   0  0  0  0  0  0  0  0  0  0  0  0
    1.8108   -4.2033   -2.6305 H   0  0  0  0  0  0  0  0  0  0  0  0
    2.9152   -2.8415   -4.2922 H   0  0  0  0  0  0  0  0  0  0  0  0
    4.9160   -1.6844   -3.5790 H   0  0  0  0  0  0  0  0  0  0  0  0
    2.7079   -0.2614   -2.6041 H   0  0  0  0  0  0  0  0  0  0  0  0
    5.2934   -2.6623   -1.4661 H   0  0  0  0  0  0  0  0  0  0  0  0
    4.8915    0.1094   -1.1504 H   0  0  0  0  0  0  0  0  0  0  0  0
    2.9322   -1.1298   -0.2772 H   0  0  0  0  0  0  0  0  0  0  0  0
    4.8712   -5.6752    1.8768 H   0  0  0  0  0  0  0  0  0  0  0  0
    2.6520   -5.7210    2.6170 H   0  0  0  0  0  0  0  0  0  0  0  0
    2.3285   -2.9754    3.0025 H   0  0  0  0  0  0  0  0  0  0  0  0
    0.3595   -3.3512    4.3876 H   0  0  0  0  0  0  0  0  0  0  0  0
   -0.5764   -5.5738    4.1353 H   0  0  0  0  0  0  0  0  0  0  0  0
    0.5116   -5.5381    2.7546 H   0  0  0  0  0  0  0  0  0  0  0  0
    0.6168   -7.2131    5.1610 H   0  0  0  0  0  0  0  0  0  0  0  0
    1.7755   -7.2989    3.8549 H   0  0  0  0  0  0  0  0  0  0  0  0
    2.6018   -6.4183    6.2941 H   0  0  0  0  0  0  0  0  0  0  0  0
    1.7357   -3.9650    6.5237 H   0  0  0  0  0  0  0  0  0  0  0  0
    0.4211   -5.0613    6.3046 H   0  0  0  0  0  0  0  0  0  0  0  0
    4.4229   -5.8146    4.7615 H   0  0  0  0  0  0  0  0  0  0  0  0
    3.1360   -2.4029    1.5573 H   0  0  0  0  0  0  0  0  0  0  0  0
  1  2  1  0
  1 28  1  0
  1 29  1  0
  1 30  1  0
  3  2  1  1
  3 21  1  0
  3 27  1  0
  3  4  1  0
  4 19  1  0
  4  5  1  0
  4 31  1  1
  5  6  1  0
  5 32  1  0
  5 33  1  0
  6  7  1  0
  6 34  1  0
  6 35  1  0
  7 17  1  0
  7  8  1  0
  7 59  1  1
  8  9  1  0
  8 18  1  0
  8 36  1  6
  9 10  1  0
  9 37  1  0
  9 38  1  0
 10 17  1  0
 10 11  1  0
 10 39  1  1
 11 12  2  0
 11 40  1  0
 12 13  1  0
 12 41  1  0
 13 14  1  0
 13 15  1  0
 13 42  1  6
 14 43  1  0
 15 16  1  0
 15 17  1  0
 15 44  1  6
 16 45  1  0
 17 46  1  1
 18 19  1  0
 18 20  1  0
 18 47  1  6
 20 27  1  0
 20 21  1  0
 20 48  1  6
 21 22  1  0
 21 49  1  6
 22 26  1  0
 22 23  1  0
 22 50  1  1
 23 24  1  0
 23 51  1  0
 23 52  1  0
 24 25  1  0
 24 53  1  0
 24 54  1  0
 25 26  1  0
 25 27  1  0
 25 55  1  1
 26 56  1  0
 26 57  1  0
 27 58  1  6
M  CHG  1   7   1
M  END
>  <i_m_ct_stereo_status>  (221) 
1

>  <s_m_source_file>  (221) 
/var/tmp/pbs.5076255.sched01/tmprae_yccg/80g5h6lheg.sdf

>  <i_m_source_file_index>  (221) 
19

>  <i_lp_mmshare_version>  (221) 
48012

>  <i_f3d_flags>  (221) 
0

>  <s_epik_input>  (221) 
W0NIM11PW0NAXTEyW0NIXTNbQ0gyXVtDSDJdTjRbQ0BIXShbQ0gyXVtDQEhdNVtDQEBIXTRbQ0BIXShbT0hdKVtDQEhdKFtPSF0pW0NIXT1bQ0hdNSlbQ0BASF0oTzMpW0NAQEhdNltDQEhdMVtDQEhdN1tDSDJdW0NIMl1bQ0BIXShbQ0gyXTcpW0NASF0yNg==

>  <s_epik_cmdline>  (221) 
J2VwaWtfcHl0aG9uJywgJy1waHQnLCAnMi4wJywgJy1waCcsICc3LjAnLCAnLXRuJywgJzgnLCAnLW1hJywgJzIwMCcsICctaW1hZScsICc8aW5maWxlLm1hZT4nLCAnLW9tYWUnLCAnPG91dGZpbGUubWFlPic=

>  <r_epik_Ionization_Penalty>  (221) 
0.0203575

>  <r_epik_Ionization_Penalty_Charging>  (221) 
0.0203554

>  <r_epik_Ionization_Penalty_Neutral>  (221) 
2.10677e-06

>  <r_epik_State_Penalty>  (221) 
0.0163105

>  <r_epik_Charging_Adjusted_Penalty>  (221) 
0.0366659

>  <i_epik_Tot_Q>  (221) 
1

>  <i_epik_Tot_abs_Q>  (221) 
1

>  <s_lp_Force_Field>  (221) 
OPLS3e

>  <r_lp_Energy>  (221) 
102.495

>  <b_lp_Chiralities_Consistent>  (221) 
1

>  <s_lp_Variant>  (221) 
73:0-1

>  <s_i_glide_gridfile>  (221) 
pfpi4k_grid

>  <i_i_glide_lignum>  (221) 
19

>  <i_i_glide_rotatable_bonds>  (221) 
3

>  <r_i_docking_score>  (221) 
-3.05451

>  <r_i_glide_ligand_efficiency>  (221) 
-0.11313

>  <r_i_glide_ligand_efficiency_sa>  (221) 
-0.33939

>  <r_i_glide_ligand_efficiency_ln>  (221) 
-0.711039

>  <r_i_glide_gscore>  (221) 
-3.05451

>  <r_i_glide_lipo>  (221) 
-0.460611

>  <r_i_glide_hbond>  (221) 
0

>  <r_i_glide_metal>  (221) 
-0

>  <r_i_glide_rewards>  (221) 
-0.855724

>  <r_i_glide_evdw>  (221) 
-16.1242

>  <r_i_glide_ecoul>  (221) 
-6.17277

>  <r_i_glide_erotb>  (221) 
0

>  <r_i_glide_esite>  (221) 
-0.00604752

>  <r_i_glide_emodel>  (221) 
-26.9344

>  <r_i_glide_energy>  (221) 
-22.297

>  <r_i_glide_einternal>  (221) 
0.0159319

>  <r_i_glide_intrahb_reward>  (221) 
-0

>  <i_i_glide_confnum>  (221) 
2

>  <i_i_glide_posenum>  (221) 
4

>  <r_i_glide_eff_state_penalty>  (221) 
0

>  <ligand_id>  (221) 
73

>  <original_smiles>  (221) 
COC12C3CCN4C(CC5C=CC(O)C(O)C54)C(O3)C3C1C1CCC(C1)C32

>  <smiles>  (221) 
[H]OC1([H])C([H])=C([H])C2([H])C([H])([H])C3([H])C4([H])OC([H])(C([H])([H])C([H])([H])[N+]3([H])C2([H])C1([H])O[H])C1(OC([H])([H])[H])C2([H])C3([H])C([H])([H])C([H])([H])C([H])(C3([H])[H])C1([H])C42[H]

$$$$
73:1:0
     RDKit          3D

 58 64  0  0  1  0  0  0  0  0999 V2000
    4.3662    0.8246    6.4472 C   0  0  0  0  0  0  0  0  0  0  0  0
    4.0279    0.7693    5.0625 O   0  0  0  0  0  0  0  0  0  0  0  0
    3.8176   -0.5236    4.4924 C   0  0  2  0  0  0  0  0  0  0  0  0
    5.2387   -1.1003    4.1789 C   0  0  2  0  0  0  0  0  0  0  0  0
    5.9523   -0.4613    2.9595 C   0  0  0  0  0  0  0  0  0  0  0  0
    5.9516   -1.2088    1.5992 C   0  0  0  0  0  0  0  0  0  0  0  0
    4.6827   -1.8331    1.2347 N   0  0  0  0  0  0  0  0  0  0  0  0
    4.3744   -3.1074    1.8888 C   0  0  2  0  0  0  0  0  0  0  0  0
    3.2700   -3.7598    1.0328 C   0  0  0  0  0  0  0  0  0  0  0  0
    3.0287   -2.7438   -0.0847 C   0  0  2  0  0  0  0  0  0  0  0  0
    2.5462   -3.3842   -1.3764 C   0  0  0  0  0  0  0  0  0  0  0  0
    3.2490   -3.3833   -2.5088 C   0  0  0  0  0  0  0  0  0  0  0  0
    4.6595   -2.8499   -2.6056 C   0  0  1  0  0  0  0  0  0  0  0  0
    4.6180   -1.6889   -3.4072 O   0  0  0  0  0  0  0  0  0  0  0  0
    5.3016   -2.6301   -1.1947 C   0  0  1  0  0  0  0  0  0  0  0  0
    6.5200   -1.9339   -1.3815 O   0  0  0  0  0  0  0  0  0  0  0  0
    4.3359   -1.9348   -0.1896 C   0  0  2  0  0  0  0  0  0  0  0  0
    4.0347   -2.9728    3.3940 C   0  0  1  0  0  0  0  0  0  0  0  0
    5.1805   -2.5223    4.1043 O   0  0  0  0  0  0  0  0  0  0  0  0
    2.8137   -2.0637    3.7438 C   0  0  2  0  0  0  0  0  0  0  0  0
    2.7311   -0.5449    3.3717 C   0  0  1  0  0  0  0  0  0  0  0  0
    1.3485    0.1873    3.5981 C   0  0  1  0  0  0  0  0  0  0  0  0
    0.1649   -0.7983    3.5213 C   0  0  0  0  0  0  0  0  0  0  0  0
    0.1622   -1.5043    4.9047 C   0  0  0  0  0  0  0  0  0  0  0  0
    1.3554   -0.8508    5.6381 C   0  0  2  0  0  0  0  0  0  0  0  0
    1.1759    0.5633    5.0747 C   0  0  0  0  0  0  0  0  0  0  0  0
    2.7445   -1.4482    5.1724 C   0  0  2  0  0  0  0  0  0  0  0  0
    4.4219    1.8718    6.7496 H   0  0  0  0  0  0  0  0  0  0  0  0
    5.3375    0.3830    6.6686 H   0  0  0  0  0  0  0  0  0  0  0  0
    3.6147    0.3498    7.0804 H   0  0  0  0  0  0  0  0  0  0  0  0
    5.8769   -0.9240    5.0454 H   0  0  0  0  0  0  0  0  0  0  0  0
    5.5231    0.5313    2.8253 H   0  0  0  0  0  0  0  0  0  0  0  0
    6.9856   -0.2468    3.2420 H   0  0  0  0  0  0  0  0  0  0  0  0
    6.2795   -0.5047    0.8198 H   0  0  0  0  0  0  0  0  0  0  0  0
    6.7208   -1.9857    1.6143 H   0  0  0  0  0  0  0  0  0  0  0  0
    5.2423   -3.7621    1.8189 H   0  0  0  0  0  0  0  0  0  0  0  0
    3.6390   -4.7044    0.6273 H   0  0  0  0  0  0  0  0  0  0  0  0
    2.3662   -3.9870    1.5906 H   0  0  0  0  0  0  0  0  0  0  0  0
    2.2476   -2.0787    0.2664 H   0  0  0  0  0  0  0  0  0  0  0  0
    1.5445   -3.7957   -1.3714 H   0  0  0  0  0  0  0  0  0  0  0  0
    2.8354   -3.8059   -3.4144 H   0  0  0  0  0  0  0  0  0  0  0  0
    5.2372   -3.5996   -3.1449 H   0  0  0  0  0  0  0  0  0  0  0  0
    3.9884   -1.0931   -3.0387 H   0  0  0  0  0  0  0  0  0  0  0  0
    5.5608   -3.6157   -0.7959 H   0  0  0  0  0  0  0  0  0  0  0  0
    7.1193   -2.5314   -1.8052 H   0  0  0  0  0  0  0  0  0  0  0  0
    4.1232   -0.9354   -0.5736 H   0  0  0  0  0  0  0  0  0  0  0  0
    3.8431   -3.9797    3.7695 H   0  0  0  0  0  0  0  0  0  0  0  0
    1.9253   -2.5981    3.4540 H   0  0  0  0  0  0  0  0  0  0  0  0
    3.1387   -0.3220    2.3987 H   0  0  0  0  0  0  0  0  0  0  0  0
    1.2171    1.0375    2.9312 H   0  0  0  0  0  0  0  0  0  0  0  0
   -0.7683   -0.2562    3.3836 H   0  0  0  0  0  0  0  0  0  0  0  0
    0.2605   -1.4857    2.6838 H   0  0  0  0  0  0  0  0  0  0  0  0
   -0.7712   -1.2876    5.4229 H   0  0  0  0  0  0  0  0  0  0  0  0
    0.2405   -2.5917    4.8457 H   0  0  0  0  0  0  0  0  0  0  0  0
    1.2364   -0.8827    6.7231 H   0  0  0  0  0  0  0  0  0  0  0  0
    1.8673    1.3094    5.4459 H   0  0  0  0  0  0  0  0  0  0  0  0
    0.1860    0.9648    5.2785 H   0  0  0  0  0  0  0  0  0  0  0  0
    3.1892   -2.1193    5.8981 H   0  0  0  0  0  0  0  0  0  0  0  0
  1  2  1  0
  1 28  1  0
  1 29  1  0
  1 30  1  0
  3  2  1  1
  3 21  1  0
  3 27  1  0
  3  4  1  0
  4 19  1  0
  4  5  1  0
  4 31  1  1
  5  6  1  0
  5 32  1  0
  5 33  1  0
  6  7  1  0
  6 34  1  0
  6 35  1  0
  7 17  1  0
  7  8  1  0
  8  9  1  0
  8 18  1  0
  8 36  1  1
  9 10  1  0
  9 37  1  0
  9 38  1  0
 10 17  1  0
 10 11  1  0
 10 39  1  1
 11 12  2  0
 11 40  1  0
 12 13  1  0
 12 41  1  0
 13 14  1  0
 13 15  1  0
 13 42  1  6
 14 43  1  0
 15 16  1  0
 15 17  1  0
 15 44  1  1
 16 45  1  0
 17 46  1  6
 18 19  1  0
 18 20  1  0
 18 47  1  1
 20 27  1  0
 20 21  1  0
 20 48  1  6
 21 22  1  0
 21 49  1  6
 22 26  1  0
 22 23  1  0
 22 50  1  6
 23 24  1  0
 23 51  1  0
 23 52  1  0
 24 25  1  0
 24 53  1  0
 24 54  1  0
 25 26  1  0
 25 27  1  0
 25 55  1  1
 26 56  1  0
 26 57  1  0
 27 58  1  1
M  END
>  <i_m_ct_stereo_status>  (222) 
1

>  <s_m_source_file>  (222) 
/var/tmp/pbs.5076255.sched01/tmprae_yccg/80g5h6lheg.sdf

>  <i_m_source_file_index>  (222) 
20

>  <i_lp_mmshare_version>  (222) 
48012

>  <i_f3d_flags>  (222) 
0

>  <s_epik_input>  (222) 
W0NIM11PW0NAXTEyW0NIXTNbQ0gyXVtDSDJdTjRbQ0BIXShbQ0gyXVtDQEhdNVtDQEBIXTRbQ0BIXShbT0hdKVtDQEhdKFtPSF0pW0NIXT1bQ0hdNSlbQ0BASF0oTzMpW0NAQEhdNltDQEhdMVtDQEhdN1tDSDJdW0NIMl1bQ0BIXShbQ0gyXTcpW0NASF0yNg==

>  <s_epik_cmdline>  (222) 
J2VwaWtfcHl0aG9uJywgJy1waHQnLCAnMi4wJywgJy1waCcsICc3LjAnLCAnLXRuJywgJzgnLCAnLW1hJywgJzIwMCcsICctaW1hZScsICc8aW5maWxlLm1hZT4nLCAnLW9tYWUnLCAnPG91dGZpbGUubWFlPic=

>  <r_epik_Ionization_Penalty>  (222) 
2.00741

>  <r_epik_Ionization_Penalty_Charging>  (222) 
0

>  <r_epik_Ionization_Penalty_Neutral>  (222) 
2.00741

>  <r_epik_State_Penalty>  (222) 
2.13665

>  <r_epik_Charging_Adjusted_Penalty>  (222) 
2.13665

>  <i_epik_Tot_Q>  (222) 
0

>  <i_epik_Tot_abs_Q>  (222) 
0

>  <s_lp_Force_Field>  (222) 
OPLS3e

>  <r_lp_Energy>  (222) 
92.3397

>  <b_lp_Chiralities_Consistent>  (222) 
1

>  <s_lp_Variant>  (222) 
73:0-2

>  <s_i_glide_gridfile>  (222) 
pfpi4k_grid

>  <i_i_glide_lignum>  (222) 
20

>  <i_i_glide_rotatable_bonds>  (222) 
3

>  <r_i_docking_score>  (222) 
-2.99079

>  <r_i_glide_ligand_efficiency>  (222) 
-0.11077

>  <r_i_glide_ligand_efficiency_sa>  (222) 
-0.33231

>  <r_i_glide_ligand_efficiency_ln>  (222) 
-0.696207

>  <r_i_glide_gscore>  (222) 
-2.99079

>  <r_i_glide_lipo>  (222) 
-0.518483

>  <r_i_glide_hbond>  (222) 
0

>  <r_i_glide_metal>  (222) 
-0

>  <r_i_glide_rewards>  (222) 
-0.862597

>  <r_i_glide_evdw>  (222) 
-16.1914

>  <r_i_glide_ecoul>  (222) 
-5.33429

>  <r_i_glide_erotb>  (222) 
0

>  <r_i_glide_esite>  (222) 
0

>  <r_i_glide_emodel>  (222) 
-24.7549

>  <r_i_glide_energy>  (222) 
-21.5257

>  <r_i_glide_einternal>  (222) 
0.54216

>  <r_i_glide_intrahb_reward>  (222) 
-0

>  <i_i_glide_confnum>  (222) 
1

>  <i_i_glide_posenum>  (222) 
10

>  <r_i_glide_eff_state_penalty>  (222) 
0

>  <ligand_id>  (222) 
73

>  <original_smiles>  (222) 
COC12C3CCN4C(CC5C=CC(O)C(O)C54)C(O3)C3C1C1CCC(C1)C32

>  <smiles>  (222) 
[H]OC1([H])C([H])=C([H])C2([H])C([H])([H])C3([H])N(C([H])([H])C([H])([H])C4([H])OC3([H])C3([H])C5([H])C6([H])C([H])([H])C([H])([H])C([H])(C6([H])[H])C3([H])C45OC([H])([H])[H])C2([H])C1([H])O[H]

$$$$
73:1:1
     RDKit          3D

 58 64  0  0  1  0  0  0  0  0999 V2000
    6.3241   -4.0939    6.1150 C   0  0  0  0  0  0  0  0  0  0  0  0
    5.7104   -3.3876    5.0419 O   0  0  0  0  0  0  0  0  0  0  0  0
    4.9300   -4.1640    4.1253 C   0  0  2  0  0  0  0  0  0  0  0  0
    5.9266   -4.8636    3.1258 C   0  0  2  0  0  0  0  0  0  0  0  0
    6.5509   -3.9315    2.0422 C   0  0  0  0  0  0  0  0  0  0  0  0
    5.9834   -3.9004    0.6207 C   0  0  0  0  0  0  0  0  0  0  0  0
    4.5418   -3.9258    0.5438 N   0  0  0  0  0  0  0  0  0  0  0  0
    3.9202   -5.2421    0.7206 C   0  0  2  0  0  0  0  0  0  0  0  0
    2.5008   -5.0891    0.1677 C   0  0  0  0  0  0  0  0  0  0  0  0
    2.4700   -3.6490   -0.3701 C   0  0  2  0  0  0  0  0  0  0  0  0
    1.5755   -3.4946   -1.5834 C   0  0  0  0  0  0  0  0  0  0  0  0
    2.0118   -3.0892   -2.7772 C   0  0  0  0  0  0  0  0  0  0  0  0
    3.4570   -2.9500   -3.1189 C   0  0  1  0  0  0  0  0  0  0  0  0
    3.7442   -1.5703   -3.2898 O   0  0  0  0  0  0  0  0  0  0  0  0
    4.3740   -3.6021   -2.0400 C   0  0  1  0  0  0  0  0  0  0  0  0
    5.6825   -3.1525   -2.3317 O   0  0  0  0  0  0  0  0  0  0  0  0
    3.9332   -3.2457   -0.5920 C   0  0  2  0  0  0  0  0  0  0  0  0
    3.9718   -5.7750    2.1844 C   0  0  1  0  0  0  0  0  0  0  0  0
    5.3201   -6.0135    2.5512 O   0  0  0  0  0  0  0  0  0  0  0  0
    3.2783   -4.8702    3.2560 C   0  0  2  0  0  0  0  0  0  0  0  0
    3.7087   -3.3835    3.5319 C   0  0  1  0  0  0  0  0  0  0  0  0
    2.7683   -2.5368    4.4959 C   0  0  1  0  0  0  0  0  0  0  0  0
    1.3038   -3.0374    4.4626 C   0  0  0  0  0  0  0  0  0  0  0  0
    1.3270   -4.2895    5.3832 C   0  0  0  0  0  0  0  0  0  0  0  0
    2.8033   -4.3732    5.8449 C   0  0  2  0  0  0  0  0  0  0  0  0
    3.0505   -2.8669    5.9642 C   0  0  0  0  0  0  0  0  0  0  0  0
    3.7488   -5.0167    4.7359 C   0  0  2  0  0  0  0  0  0  0  0  0
    6.8170   -3.3523    6.7413 H   0  0  0  0  0  0  0  0  0  0  0  0
    7.0905   -4.7950    5.7838 H   0  0  0  0  0  0  0  0  0  0  0  0
    5.6027   -4.6220    6.7429 H   0  0  0  0  0  0  0  0  0  0  0  0
    6.7579   -5.2826    3.6962 H   0  0  0  0  0  0  0  0  0  0  0  0
    6.5151   -2.9127    2.4419 H   0  0  0  0  0  0  0  0  0  0  0  0
    7.6018   -4.2256    1.9536 H   0  0  0  0  0  0  0  0  0  0  0  0
    6.3964   -3.0245    0.1090 H   0  0  0  0  0  0  0  0  0  0  0  0
    6.3625   -4.7565    0.0685 H   0  0  0  0  0  0  0  0  0  0  0  0
    4.4480   -5.9572    0.0996 H   0  0  0  0  0  0  0  0  0  0  0  0
    2.3324   -5.8021   -0.6412 H   0  0  0  0  0  0  0  0  0  0  0  0
    1.7338   -5.3167    0.9067 H   0  0  0  0  0  0  0  0  0  0  0  0
    2.0700   -3.0053    0.4282 H   0  0  0  0  0  0  0  0  0  0  0  0
    0.5118   -3.6539   -1.4784 H   0  0  0  0  0  0  0  0  0  0  0  0
    1.3149   -2.9499   -3.5775 H   0  0  0  0  0  0  0  0  0  0  0  0
    3.5739   -3.4848   -4.0578 H   0  0  0  0  0  0  0  0  0  0  0  0
    3.1645   -1.0966   -2.7135 H   0  0  0  0  0  0  0  0  0  0  0  0
    4.3795   -4.6616   -2.1348 H   0  0  0  0  0  0  0  0  0  0  0  0
    5.6304   -2.1991   -2.3075 H   0  0  0  0  0  0  0  0  0  0  0  0
    4.0304   -2.1657   -0.4546 H   0  0  0  0  0  0  0  0  0  0  0  0
    3.5136   -6.7641    2.1877 H   0  0  0  0  0  0  0  0  0  0  0  0
    2.2102   -4.9639    3.1127 H   0  0  0  0  0  0  0  0  0  0  0  0
    3.9641   -2.8160    2.6384 H   0  0  0  0  0  0  0  0  0  0  0  0
    2.8304   -1.4682    4.2994 H   0  0  0  0  0  0  0  0  0  0  0  0
    0.6322   -2.2879    4.8851 H   0  0  0  0  0  0  0  0  0  0  0  0
    0.9499   -3.2397    3.4514 H   0  0  0  0  0  0  0  0  0  0  0  0
    0.6708   -4.1283    6.2407 H   0  0  0  0  0  0  0  0  0  0  0  0
    0.9886   -5.2072    4.8987 H   0  0  0  0  0  0  0  0  0  0  0  0
    2.8998   -4.8853    6.8009 H   0  0  0  0  0  0  0  0  0  0  0  0
    4.0258   -2.5819    6.3294 H   0  0  0  0  0  0  0  0  0  0  0  0
    2.3449   -2.3847    6.6463 H   0  0  0  0  0  0  0  0  0  0  0  0
    4.0512   -6.0511    4.9544 H   0  0  0  0  0  0  0  0  0  0  0  0
  1  2  1  0
  1 28  1  0
  1 29  1  0
  1 30  1  0
  3  2  1  1
  3 21  1  0
  3 27  1  0
  3  4  1  0
  4 19  1  0
  4  5  1  0
  4 31  1  1
  5  6  1  0
  5 32  1  0
  5 33  1  0
  6  7  1  0
  6 34  1  0
  6 35  1  0
  7 17  1  0
  7  8  1  0
  8  9  1  0
  8 18  1  0
  8 36  1  6
  9 10  1  0
  9 37  1  0
  9 38  1  0
 10 17  1  0
 10 11  1  0
 10 39  1  1
 11 12  2  0
 11 40  1  0
 12 13  1  0
 12 41  1  0
 13 14  1  0
 13 15  1  0
 13 42  1  6
 14 43  1  0
 15 16  1  0
 15 17  1  0
 15 44  1  1
 16 45  1  0
 17 46  1  1
 18 19  1  0
 18 20  1  0
 18 47  1  6
 20 27  1  0
 20 21  1  0
 20 48  1  1
 21 22  1  0
 21 49  1  6
 22 26  1  0
 22 23  1  0
 22 50  1  1
 23 24  1  0
 23 51  1  0
 23 52  1  0
 24 25  1  0
 24 53  1  0
 24 54  1  0
 25 26  1  0
 25 27  1  0
 25 55  1  1
 26 56  1  0
 26 57  1  0
 27 58  1  1
M  END
>  <i_m_ct_stereo_status>  (223) 
1

>  <s_m_source_file>  (223) 
/var/tmp/pbs.5076255.sched01/tmprae_yccg/80g5h6lheg.sdf

>  <i_m_source_file_index>  (223) 
20

>  <i_lp_mmshare_version>  (223) 
48012

>  <i_f3d_flags>  (223) 
0

>  <s_epik_input>  (223) 
W0NIM11PW0NAXTEyW0NIXTNbQ0gyXVtDSDJdTjRbQ0BIXShbQ0gyXVtDQEhdNVtDQEBIXTRbQ0BIXShbT0hdKVtDQEhdKFtPSF0pW0NIXT1bQ0hdNSlbQ0BASF0oTzMpW0NAQEhdNltDQEhdMVtDQEhdN1tDSDJdW0NIMl1bQ0BIXShbQ0gyXTcpW0NASF0yNg==

>  <s_epik_cmdline>  (223) 
J2VwaWtfcHl0aG9uJywgJy1waHQnLCAnMi4wJywgJy1waCcsICc3LjAnLCAnLXRuJywgJzgnLCAnLW1hJywgJzIwMCcsICctaW1hZScsICc8aW5maWxlLm1hZT4nLCAnLW9tYWUnLCAnPG91dGZpbGUubWFlPic=

>  <r_epik_Ionization_Penalty>  (223) 
2.00741

>  <r_epik_Ionization_Penalty_Charging>  (223) 
0

>  <r_epik_Ionization_Penalty_Neutral>  (223) 
2.00741

>  <r_epik_State_Penalty>  (223) 
2.13665

>  <r_epik_Charging_Adjusted_Penalty>  (223) 
2.13665

>  <i_epik_Tot_Q>  (223) 
0

>  <i_epik_Tot_abs_Q>  (223) 
0

>  <s_lp_Force_Field>  (223) 
OPLS3e

>  <r_lp_Energy>  (223) 
92.3397

>  <b_lp_Chiralities_Consistent>  (223) 
1

>  <s_lp_Variant>  (223) 
73:0-2

>  <s_i_glide_gridfile>  (223) 
pfpi4k_grid

>  <i_i_glide_lignum>  (223) 
20

>  <i_i_glide_rotatable_bonds>  (223) 
3

>  <r_i_docking_score>  (223) 
-2.30158

>  <r_i_glide_ligand_efficiency>  (223) 
-0.0852439

>  <r_i_glide_ligand_efficiency_sa>  (223) 
-0.255732

>  <r_i_glide_ligand_efficiency_ln>  (223) 
-0.535771

>  <r_i_glide_gscore>  (223) 
-2.30158

>  <r_i_glide_lipo>  (223) 
-0.439844

>  <r_i_glide_hbond>  (223) 
0

>  <r_i_glide_metal>  (223) 
-0

>  <r_i_glide_rewards>  (223) 
-0.862597

>  <r_i_glide_evdw>  (223) 
-12.7869

>  <r_i_glide_ecoul>  (223) 
-2.39865

>  <r_i_glide_erotb>  (223) 
0

>  <r_i_glide_esite>  (223) 
0

>  <r_i_glide_emodel>  (223) 
-17.3671

>  <r_i_glide_energy>  (223) 
-15.1856

>  <r_i_glide_einternal>  (223) 
0.318275

>  <r_i_glide_intrahb_reward>  (223) 
-0

>  <i_i_glide_confnum>  (223) 
1

>  <i_i_glide_posenum>  (223) 
25

>  <r_i_glide_eff_state_penalty>  (223) 
0

>  <ligand_id>  (223) 
73

>  <original_smiles>  (223) 
COC12C3CCN4C(CC5C=CC(O)C(O)C54)C(O3)C3C1C1CCC(C1)C32

>  <smiles>  (223) 
[H]OC1([H])C([H])=C([H])C2([H])C([H])([H])C3([H])N(C([H])([H])C([H])([H])C4([H])OC3([H])C3([H])C5([H])C6([H])C([H])([H])C([H])([H])C([H])(C6([H])[H])C3([H])C45OC([H])([H])[H])C2([H])C1([H])O[H]

$$$$
75:0:0
     RDKit          3D

 88 94  0  0  1  0  0  0  0  0999 V2000
    4.3210   -3.0927    4.5445 C   0  0  0  0  0  0  0  0  0  0  0  0
    3.6119   -2.0683    3.6634 C   0  0  0  0  0  0  0  0  0  0  0  0
    3.5366   -0.7118    3.8572 C   0  0  0  0  0  0  0  0  0  0  0  0
    2.9924    0.2066    2.7146 C   0  0  1  0  0  0  0  0  0  0  0  0
    3.0957   -0.4581    1.3180 C   0  0  1  0  0  0  0  0  0  0  0  0
    4.5418   -0.4844    0.7781 C   0  0  0  0  0  0  0  0  0  0  0  0
    2.4571   -1.8488    1.3266 C   0  0  0  0  0  0  0  0  0  0  0  0
    2.9598   -2.7080    2.4832 C   0  0  0  0  0  0  0  0  0  0  0  0
    2.7548   -3.9215    2.3916 O   0  0  0  0  0  0  0  0  0  0  0  0
    1.5817    0.8042    2.9585 C   0  0  1  0  0  0  0  0  0  0  0  0
    0.6962   -0.2244    3.3649 O   0  0  0  0  0  0  0  0  0  0  0  0
    1.5165    2.0949    3.8386 C   0  0  2  0  0  0  0  0  0  0  0  0
    0.1766    2.3555    4.2096 O   0  0  0  0  0  0  0  0  0  0  0  0
    1.9603    3.2688    2.9922 C   0  0  0  0  0  0  0  0  0  0  0  0
    2.9940    3.9558    3.4689 C   0  0  0  0  0  0  0  0  0  0  0  0
    3.4071    3.3600    4.7281 C   0  0  0  0  0  0  0  0  0  0  0  0
    4.3675    3.7037    5.4160 O   0  0  0  0  0  0  0  0  0  0  0  0
    2.4331    2.2368    5.1083 C   0  0  2  0  0  0  0  0  0  0  0  0
    2.9758    0.9546    5.8510 C   0  0  2  0  0  0  0  0  0  0  0  0
    1.7507    0.0810    6.2816 C   0  0  0  0  0  0  0  0  0  0  0  0
    1.3468    0.3595    7.7458 C   0  0  1  0  0  0  0  0  0  0  0  0
    0.8391   -0.9444    8.4366 C   0  0  0  0  0  0  0  0  0  0  0  0
   -0.1708   -1.5821    7.6739 O   0  0  0  0  0  0  0  0  0  0  0  0
    2.6694    0.8074    8.3767 C   0  0  2  0  0  0  0  0  0  0  0  0
    2.3153    1.8846    9.4088 C   0  0  0  0  0  0  0  0  0  0  0  0
    1.0760    2.6051    8.8543 C   0  0  2  0  0  0  0  0  0  0  0  0
    1.5041    3.7437    8.1283 O   0  0  0  0  0  0  0  0  0  0  0  0
    0.0021    2.9923    9.9006 C   0  0  1  0  0  0  0  0  0  0  0  0
    0.1870    4.3614   10.5876 C   0  0  0  0  0  0  0  0  0  0  0  0
   -1.3646    2.7265    9.2194 C   0  0  0  0  0  0  0  0  0  0  0  0
   -2.4637    2.4977   10.2708 C   0  0  0  0  0  0  0  0  0  0  0  0
   -1.8113    3.8745    8.2860 C   0  0  0  0  0  0  0  0  0  0  0  0
   -1.0392    1.4255    8.4484 C   0  0  1  0  0  0  0  0  0  0  0  0
   -1.9725    1.1152    7.4211 O   0  0  0  0  0  0  0  0  0  0  0  0
    0.3954    1.6051    7.8987 C   0  0  2  0  0  0  0  0  0  0  0  0
    3.6115    1.3001    7.2433 C   0  0  1  0  0  0  0  0  0  0  0  0
    5.0200    0.6607    7.2452 C   0  0  1  0  0  0  0  0  0  0  0  0
    5.6969    0.3780    8.6030 C   0  0  0  0  0  0  0  0  0  0  0  0
    4.9121   -0.5129    6.2479 C   0  0  1  0  0  0  0  0  0  0  0  0
    4.2772   -1.5539    6.9617 O   0  0  0  0  0  0  0  0  0  0  0  0
    4.0795    0.1128    5.0683 C   0  0  1  0  0  0  0  0  0  0  0  0
    5.0959    0.9324    4.5110 O   0  0  0  0  0  0  0  0  0  0  0  0
    4.6266   -3.9775    3.9868 H   0  0  0  0  0  0  0  0  0  0  0  0
    3.6717   -3.4312    5.3482 H   0  0  0  0  0  0  0  0  0  0  0  0
    5.2528   -2.7191    4.9496 H   0  0  0  0  0  0  0  0  0  0  0  0
    3.6486    1.0646    2.6065 H   0  0  0  0  0  0  0  0  0  0  0  0
    2.5365    0.1353    0.5926 H   0  0  0  0  0  0  0  0  0  0  0  0
    5.2241   -1.0450    1.4185 H   0  0  0  0  0  0  0  0  0  0  0  0
    4.9371    0.5264    0.6819 H   0  0  0  0  0  0  0  0  0  0  0  0
    4.5795   -0.9325   -0.2169 H   0  0  0  0  0  0  0  0  0  0  0  0
    1.3727   -1.7704    1.4012 H   0  0  0  0  0  0  0  0  0  0  0  0
    2.6584   -2.3612    0.3843 H   0  0  0  0  0  0  0  0  0  0  0  0
    1.1775    1.1038    1.9897 H   0  0  0  0  0  0  0  0  0  0  0  0
    0.6061   -0.8278    2.6438 H   0  0  0  0  0  0  0  0  0  0  0  0
   -0.3442    2.3884    3.4219 H   0  0  0  0  0  0  0  0  0  0  0  0
    1.4537    3.5095    2.0774 H   0  0  0  0  0  0  0  0  0  0  0  0
    3.4550    4.8235    3.0161 H   0  0  0  0  0  0  0  0  0  0  0  0
    1.8371    2.7613    5.8453 H   0  0  0  0  0  0  0  0  0  0  0  0
    0.8721    0.2563    5.6765 H   0  0  0  0  0  0  0  0  0  0  0  0
    1.9762   -0.9774    6.1494 H   0  0  0  0  0  0  0  0  0  0  0  0
    1.6469   -1.6697    8.5518 H   0  0  0  0  0  0  0  0  0  0  0  0
    0.4825   -0.7579    9.4529 H   0  0  0  0  0  0  0  0  0  0  0  0
    0.2165   -1.9048    6.8703 H   0  0  0  0  0  0  0  0  0  0  0  0
    3.1268   -0.0321    8.8919 H   0  0  0  0  0  0  0  0  0  0  0  0
    2.0716    1.3766   10.3435 H   0  0  0  0  0  0  0  0  0  0  0  0
    3.1492    2.5533    9.6334 H   0  0  0  0  0  0  0  0  0  0  0  0
    1.9248    4.3309    8.7368 H   0  0  0  0  0  0  0  0  0  0  0  0
    0.0723    2.2596   10.7072 H   0  0  0  0  0  0  0  0  0  0  0  0
    0.1110    5.1970    9.8903 H   0  0  0  0  0  0  0  0  0  0  0  0
    1.1604    4.4214   11.0772 H   0  0  0  0  0  0  0  0  0  0  0  0
   -0.5697    4.5081   11.3619 H   0  0  0  0  0  0  0  0  0  0  0  0
   -3.3957    2.1751    9.8088 H   0  0  0  0  0  0  0  0  0  0  0  0
   -2.6724    3.3919   10.8609 H   0  0  0  0  0  0  0  0  0  0  0  0
   -2.1653    1.7272   10.9768 H   0  0  0  0  0  0  0  0  0  0  0  0
   -2.7505    3.6301    7.7885 H   0  0  0  0  0  0  0  0  0  0  0  0
   -1.0737    4.0950    7.5153 H   0  0  0  0  0  0  0  0  0  0  0  0
   -1.9886    4.7912    8.8508 H   0  0  0  0  0  0  0  0  0  0  0  0
   -1.0652    0.6351    9.1893 H   0  0  0  0  0  0  0  0  0  0  0  0
   -1.9421    1.7990    6.7673 H   0  0  0  0  0  0  0  0  0  0  0  0
    0.2718    2.0944    6.9382 H   0  0  0  0  0  0  0  0  0  0  0  0
    3.7388    2.3736    7.3639 H   0  0  0  0  0  0  0  0  0  0  0  0
    5.6760    1.4116    6.8012 H   0  0  0  0  0  0  0  0  0  0  0  0
    5.2413   -0.4408    9.1586 H   0  0  0  0  0  0  0  0  0  0  0  0
    5.6754    1.2659    9.2358 H   0  0  0  0  0  0  0  0  0  0  0  0
    6.7443    0.1132    8.4540 H   0  0  0  0  0  0  0  0  0  0  0  0
    5.9024   -0.8444    5.9335 H   0  0  0  0  0  0  0  0  0  0  0  0
    3.4454   -1.2221    7.2571 H   0  0  0  0  0  0  0  0  0  0  0  0
    4.7161    1.5111    3.8682 H   0  0  0  0  0  0  0  0  0  0  0  0
  1  2  1  0
  1 43  1  0
  1 44  1  0
  1 45  1  0
  2  8  1  0
  2  3  2  0
  3 41  1  0
  3  4  1  0
  4  5  1  0
  4 10  1  0
  4 46  1  6
  5  6  1  0
  5  7  1  0
  5 47  1  6
  6 48  1  0
  6 49  1  0
  6 50  1  0
  7  8  1  0
  7 51  1  0
  7 52  1  0
  8  9  2  0
 10 11  1  0
 10 12  1  0
 10 53  1  6
 11 54  1  0
 12 18  1  0
 12 13  1  1
 12 14  1  0
 13 55  1  0
 14 15  2  0
 14 56  1  0
 15 16  1  0
 15 57  1  0
 16 17  2  0
 16 18  1  0
 18 19  1  0
 18 58  1  1
 19 36  1  0
 19 41  1  0
 19 20  1  1
 20 21  1  0
 20 59  1  0
 20 60  1  0
 21 35  1  0
 21 22  1  1
 21 24  1  0
 22 23  1  0
 22 61  1  0
 22 62  1  0
 23 63  1  0
 24 25  1  0
 24 36  1  0
 24 64  1  1
 25 26  1  0
 25 65  1  0
 25 66  1  0
 26 35  1  0
 26 27  1  6
 26 28  1  0
 27 67  1  0
 28 29  1  0
 28 30  1  0
 28 68  1  1
 29 69  1  0
 29 70  1  0
 29 71  1  0
 30 31  1  0
 30 32  1  0
 30 33  1  0
 31 72  1  0
 31 73  1  0
 31 74  1  0
 32 75  1  0
 32 76  1  0
 32 77  1  0
 33 34  1  0
 33 35  1  0
 33 78  1  1
 34 79  1  0
 35 80  1  6
 36 37  1  0
 36 81  1  6
 37 38  1  0
 37 39  1  0
 37 82  1  6
 38 83  1  0
 38 84  1  0
 38 85  1  0
 39 40  1  0
 39 41  1  0
 39 86  1  6
 40 87  1  0
 41 42  1  6
 42 88  1  0
M  END
>  <i_m_ct_stereo_status>  (224) 
1

>  <s_m_source_file>  (224) 
/var/tmp/pbs.5076255.sched01/tmprae_yccg/80g5h6lheg.sdf

>  <i_m_source_file_index>  (224) 
22

>  <i_lp_mmshare_version>  (224) 
48012

>  <i_f3d_flags>  (224) 
0

>  <s_epik_input>  (224) 
Tz1DMVtDSF09W0NIXVtDQF0oW09IXSkoW0NASF0xW0NAXTIzNClbQ0BIXShbT0hdKVtDQEhdNUMoPUMoW0NIM10pQyg9TylbQ0gyXVtDQEBIXTVbQ0gzXSlbQ0BdNChbT0hdKVtDQEhdKFtPSF0pW0NASF0oW0NIM10pW0NAQEhdM1tDQEBIXTZbQ0BAXShbQ0gyXTIpKFtDSDJdW09IXSlbQ0BASF03W0NAQF0oW0NIMl02KShbT0hdKVtDQEBIXShbQ0gzXSlDKFtDSDNdKShbQ0gzXSlbQ0BIXTdbT0hd

>  <s_epik_cmdline>  (224) 
J2VwaWtfcHl0aG9uJywgJy1waHQnLCAnMi4wJywgJy1waCcsICc3LjAnLCAnLXRuJywgJzgnLCAnLW1hJywgJzIwMCcsICctaW1hZScsICc8aW5maWxlLm1hZT4nLCAnLW9tYWUnLCAnPG91dGZpbGUubWFlPic=

>  <r_lp_tautomer_probability>  (224) 
1

>  <r_epik_Ionization_Penalty>  (224) 
4.49099e-06

>  <r_epik_Ionization_Penalty_Charging>  (224) 
0

>  <r_epik_Ionization_Penalty_Neutral>  (224) 
4.49099e-06

>  <r_epik_State_Penalty>  (224) 
-0

>  <r_epik_Charging_Adjusted_Penalty>  (224) 
0

>  <i_epik_Tot_Q>  (224) 
0

>  <i_epik_Tot_abs_Q>  (224) 
0

>  <s_lp_Force_Field>  (224) 
OPLS3e

>  <r_lp_Energy>  (224) 
75.7501

>  <b_lp_Chiralities_Consistent>  (224) 
1

>  <s_lp_Variant>  (224) 
75:0-1

>  <s_i_glide_gridfile>  (224) 
pfpi4k_grid

>  <i_i_glide_lignum>  (224) 
22

>  <i_i_glide_rotatable_bonds>  (224) 
8

>  <r_i_docking_score>  (224) 
-2.89166

>  <r_i_glide_ligand_efficiency>  (224) 
-0.0688491

>  <r_i_glide_ligand_efficiency_sa>  (224) 
-0.239321

>  <r_i_glide_ligand_efficiency_ln>  (224) 
-0.610356

>  <r_i_glide_gscore>  (224) 
-2.89166

>  <r_i_glide_lipo>  (224) 
-0.170495

>  <r_i_glide_hbond>  (224) 
0

>  <r_i_glide_metal>  (224) 
-0

>  <r_i_glide_rewards>  (224) 
0

>  <r_i_glide_evdw>  (224) 
-19.454

>  <r_i_glide_ecoul>  (224) 
-11.9981

>  <r_i_glide_erotb>  (224) 
0.0608086

>  <r_i_glide_esite>  (224) 
-0.00955925

>  <r_i_glide_emodel>  (224) 
-37.1635

>  <r_i_glide_energy>  (224) 
-31.4521

>  <r_i_glide_einternal>  (224) 
1.72902

>  <r_i_glide_intrahb_reward>  (224) 
-0

>  <i_i_glide_confnum>  (224) 
3

>  <i_i_glide_posenum>  (224) 
1

>  <r_i_glide_eff_state_penalty>  (224) 
0

>  <ligand_id>  (224) 
75

>  <original_smiles>  (224) 
CC1=C2C(C(C)CC1=O)C(O)C1(O)C=CC(=O)C1C13CC4(CO)C(CC5(O)C(C)C(C)(C)C(O)C54)C1C(C)C(O)C23O

>  <smiles>  (224) 
[H]OC([H])([H])C12C([H])([H])C34C5([H])C(=O)C([H])=C([H])C5(O[H])C([H])(O[H])C5([H])C(=C(C([H])([H])[H])C(=O)C([H])([H])C5([H])C([H])([H])[H])C3(O[H])C([H])(O[H])C([H])(C([H])([H])[H])C4([H])C1([H])C([H])([H])C1(O[H])C([H])(C([H])([H])[H])C(C([H])([H])[H])(C([H])([H])[H])C([H])(O[H])C12[H]

$$$$
75:0:1
     RDKit          3D

 88 94  0  0  1  0  0  0  0  0999 V2000
    4.3337   -3.0921    4.6096 C   0  0  0  0  0  0  0  0  0  0  0  0
    3.6381   -2.0746    3.7080 C   0  0  0  0  0  0  0  0  0  0  0  0
    3.5491   -0.7221    3.8838 C   0  0  0  0  0  0  0  0  0  0  0  0
    3.0179    0.1825    2.7210 C   0  0  1  0  0  0  0  0  0  0  0  0
    3.1491   -0.4958    1.3335 C   0  0  1  0  0  0  0  0  0  0  0  0
    4.6041   -0.5233    0.8167 C   0  0  0  0  0  0  0  0  0  0  0  0
    2.5075   -1.8812    1.3499 C   0  0  0  0  0  0  0  0  0  0  0  0
    2.9909   -2.7267    2.5273 C   0  0  0  0  0  0  0  0  0  0  0  0
    2.8048   -3.9345    2.4309 O   0  0  0  0  0  0  0  0  0  0  0  0
    1.6047    0.7807    2.9328 C   0  0  1  0  0  0  0  0  0  0  0  0
    0.7219   -0.2380    3.3426 O   0  0  0  0  0  0  0  0  0  0  0  0
    1.5239    2.0732    3.8153 C   0  0  2  0  0  0  0  0  0  0  0  0
    0.1831    2.3509    4.1594 O   0  0  0  0  0  0  0  0  0  0  0  0
    1.9777    3.2466    2.9693 C   0  0  0  0  0  0  0  0  0  0  0  0
    2.9992    3.9484    3.4389 C   0  0  0  0  0  0  0  0  0  0  0  0
    3.3960    3.3641    4.7111 C   0  0  0  0  0  0  0  0  0  0  0  0
    4.3377    3.6994    5.4099 O   0  0  0  0  0  0  0  0  0  0  0  0
    2.4180    2.2347    5.0908 C   0  0  2  0  0  0  0  0  0  0  0  0
    2.9584    0.9656    5.8555 C   0  0  2  0  0  0  0  0  0  0  0  0
    1.7297    0.0945    6.2730 C   0  0  0  0  0  0  0  0  0  0  0  0
    1.2920    0.3911    7.7235 C   0  0  1  0  0  0  0  0  0  0  0  0
    0.7870   -0.9155    8.4171 C   0  0  0  0  0  0  0  0  0  0  0  0
   -0.1840   -1.5761    7.6293 O   0  0  0  0  0  0  0  0  0  0  0  0
    2.6055    0.8503    8.3665 C   0  0  2  0  0  0  0  0  0  0  0  0
    2.2389    1.9375    9.3835 C   0  0  0  0  0  0  0  0  0  0  0  0
    1.0026    2.6419    8.8042 C   0  0  2  0  0  0  0  0  0  0  0  0
    1.4336    3.7714    8.0742 O   0  0  0  0  0  0  0  0  0  0  0  0
   -0.0914    3.0421    9.8259 C   0  0  1  0  0  0  0  0  0  0  0  0
    0.0847    4.4186   10.5031 C   0  0  0  0  0  0  0  0  0  0  0  0
   -1.4474    2.7682    9.1268 C   0  0  0  0  0  0  0  0  0  0  0  0
   -2.5640    2.5443   10.1626 C   0  0  0  0  0  0  0  0  0  0  0  0
   -1.8771    3.9044    8.1738 C   0  0  0  0  0  0  0  0  0  0  0  0
   -1.1104    1.4611    8.3724 C   0  0  1  0  0  0  0  0  0  0  0  0
   -2.0254    1.1300    7.3400 O   0  0  0  0  0  0  0  0  0  0  0  0
    0.3359    1.6320    7.8462 C   0  0  2  0  0  0  0  0  0  0  0  0
    3.5707    1.3316    7.2486 C   0  0  1  0  0  0  0  0  0  0  0  0
    4.9770    0.6940    7.2775 C   0  0  1  0  0  0  0  0  0  0  0  0
    5.6355    0.4247    8.6491 C   0  0  0  0  0  0  0  0  0  0  0  0
    4.8825   -0.4866    6.2861 C   0  0  1  0  0  0  0  0  0  0  0  0
    4.2319   -1.5165    7.0017 O   0  0  0  0  0  0  0  0  0  0  0  0
    4.0654    0.1239    5.0895 C   0  0  1  0  0  0  0  0  0  0  0  0
    5.0930    0.9387    4.5496 O   0  0  0  0  0  0  0  0  0  0  0  0
    4.6431   -3.9785    4.0614 H   0  0  0  0  0  0  0  0  0  0  0  0
    3.6681   -3.4178    5.4035 H   0  0  0  0  0  0  0  0  0  0  0  0
    5.2560   -2.7080    5.0242 H   0  0  0  0  0  0  0  0  0  0  0  0
    3.6752    1.0378    2.6120 H   0  0  0  0  0  0  0  0  0  0  0  0
    2.6002    0.0873    0.5937 H   0  0  0  0  0  0  0  0  0  0  0  0
    5.2770   -1.0751    1.4733 H   0  0  0  0  0  0  0  0  0  0  0  0
    4.9963    0.4878    0.7152 H   0  0  0  0  0  0  0  0  0  0  0  0
    4.6564   -0.9804   -0.1731 H   0  0  0  0  0  0  0  0  0  0  0  0
    1.4206   -1.8125    1.3994 H   0  0  0  0  0  0  0  0  0  0  0  0
    2.7288   -2.4057    0.4185 H   0  0  0  0  0  0  0  0  0  0  0  0
    1.2208    1.0766    1.9562 H   0  0  0  0  0  0  0  0  0  0  0  0
    0.6389   -0.8529    2.6214 H   0  0  0  0  0  0  0  0  0  0  0  0
   -0.3177    2.3966    3.3559 H   0  0  0  0  0  0  0  0  0  0  0  0
    1.4680    3.4785    2.0613 H   0  0  0  0  0  0  0  0  0  0  0  0
    3.4550    4.8131    2.9775 H   0  0  0  0  0  0  0  0  0  0  0  0
    1.8152    2.7743    5.8158 H   0  0  0  0  0  0  0  0  0  0  0  0
    0.8653    0.2621    5.6463 H   0  0  0  0  0  0  0  0  0  0  0  0
    1.9694   -0.9625    6.1614 H   0  0  0  0  0  0  0  0  0  0  0  0
    1.6076   -1.6192    8.5805 H   0  0  0  0  0  0  0  0  0  0  0  0
    0.4133   -0.7438    9.4302 H   0  0  0  0  0  0  0  0  0  0  0  0
    0.2632   -1.9202    6.8577 H   0  0  0  0  0  0  0  0  0  0  0  0
    3.0612    0.0140    8.8916 H   0  0  0  0  0  0  0  0  0  0  0  0
    1.9800    1.4369   10.3149 H   0  0  0  0  0  0  0  0  0  0  0  0
    3.0685    2.6102    9.6184 H   0  0  0  0  0  0  0  0  0  0  0  0
    1.8477    4.3724    8.6847 H   0  0  0  0  0  0  0  0  0  0  0  0
   -0.0319    2.3188   10.6407 H   0  0  0  0  0  0  0  0  0  0  0  0
    0.0170    5.2463    9.7969 H   0  0  0  0  0  0  0  0  0  0  0  0
    1.0494    4.4845   11.0082 H   0  0  0  0  0  0  0  0  0  0  0  0
   -0.6829    4.5700   11.2639 H   0  0  0  0  0  0  0  0  0  0  0  0
   -3.4887    2.2287    9.6842 H   0  0  0  0  0  0  0  0  0  0  0  0
   -2.7780    3.4450   10.7428 H   0  0  0  0  0  0  0  0  0  0  0  0
   -2.2799    1.7784   10.8778 H   0  0  0  0  0  0  0  0  0  0  0  0
   -2.8084    3.6501    7.6673 H   0  0  0  0  0  0  0  0  0  0  0  0
   -1.1245    4.1165    7.4141 H   0  0  0  0  0  0  0  0  0  0  0  0
   -2.0649    4.8245    8.7298 H   0  0  0  0  0  0  0  0  0  0  0  0
   -1.1677    0.6913    9.1357 H   0  0  0  0  0  0  0  0  0  0  0  0
   -1.9878    1.8055    6.6645 H   0  0  0  0  0  0  0  0  0  0  0  0
    0.2333    2.1164    6.8801 H   0  0  0  0  0  0  0  0  0  0  0  0
    3.6935    2.4061    7.3589 H   0  0  0  0  0  0  0  0  0  0  0  0
    5.6369    1.4386    6.8337 H   0  0  0  0  0  0  0  0  0  0  0  0
    5.1713   -0.3820    9.2137 H   0  0  0  0  0  0  0  0  0  0  0  0
    5.6024    1.3223    9.2670 H   0  0  0  0  0  0  0  0  0  0  0  0
    6.6868    0.1650    8.5211 H   0  0  0  0  0  0  0  0  0  0  0  0
    5.8787   -0.8261    5.9954 H   0  0  0  0  0  0  0  0  0  0  0  0
    4.7972   -1.7726    7.7224 H   0  0  0  0  0  0  0  0  0  0  0  0
    4.7243    1.5051    3.8949 H   0  0  0  0  0  0  0  0  0  0  0  0
  1  2  1  0
  1 43  1  0
  1 44  1  0
  1 45  1  0
  2  8  1  0
  2  3  2  0
  3 41  1  0
  3  4  1  0
  4  5  1  0
  4 10  1  0
  4 46  1  6
  5  6  1  0
  5  7  1  0
  5 47  1  6
  6 48  1  0
  6 49  1  0
  6 50  1  0
  7  8  1  0
  7 51  1  0
  7 52  1  0
  8  9  2  0
 10 11  1  0
 10 12  1  0
 10 53  1  6
 11 54  1  0
 12 18  1  0
 12 13  1  1
 12 14  1  0
 13 55  1  0
 14 15  2  0
 14 56  1  0
 15 16  1  0
 15 57  1  0
 16 17  2  0
 16 18  1  0
 18 19  1  0
 18 58  1  1
 19 36  1  0
 19 41  1  0
 19 20  1  1
 20 21  1  0
 20 59  1  0
 20 60  1  0
 21 35  1  0
 21 22  1  1
 21 24  1  0
 22 23  1  0
 22 61  1  0
 22 62  1  0
 23 63  1  0
 24 25  1  0
 24 36  1  0
 24 64  1  1
 25 26  1  0
 25 65  1  0
 25 66  1  0
 26 35  1  0
 26 27  1  6
 26 28  1  0
 27 67  1  0
 28 29  1  0
 28 30  1  0
 28 68  1  1
 29 69  1  0
 29 70  1  0
 29 71  1  0
 30 31  1  0
 30 32  1  0
 30 33  1  0
 31 72  1  0
 31 73  1  0
 31 74  1  0
 32 75  1  0
 32 76  1  0
 32 77  1  0
 33 34  1  0
 33 35  1  0
 33 78  1  1
 34 79  1  0
 35 80  1  6
 36 37  1  0
 36 81  1  6
 37 38  1  0
 37 39  1  0
 37 82  1  6
 38 83  1  0
 38 84  1  0
 38 85  1  0
 39 40  1  0
 39 41  1  0
 39 86  1  6
 40 87  1  0
 41 42  1  6
 42 88  1  0
M  END
>  <i_m_ct_stereo_status>  (225) 
1

>  <s_m_source_file>  (225) 
/var/tmp/pbs.5076255.sched01/tmprae_yccg/80g5h6lheg.sdf

>  <i_m_source_file_index>  (225) 
22

>  <i_lp_mmshare_version>  (225) 
48012

>  <i_f3d_flags>  (225) 
0

>  <s_epik_input>  (225) 
Tz1DMVtDSF09W0NIXVtDQF0oW09IXSkoW0NASF0xW0NAXTIzNClbQ0BIXShbT0hdKVtDQEhdNUMoPUMoW0NIM10pQyg9TylbQ0gyXVtDQEBIXTVbQ0gzXSlbQ0BdNChbT0hdKVtDQEhdKFtPSF0pW0NASF0oW0NIM10pW0NAQEhdM1tDQEBIXTZbQ0BAXShbQ0gyXTIpKFtDSDJdW09IXSlbQ0BASF03W0NAQF0oW0NIMl02KShbT0hdKVtDQEBIXShbQ0gzXSlDKFtDSDNdKShbQ0gzXSlbQ0BIXTdbT0hd

>  <s_epik_cmdline>  (225) 
J2VwaWtfcHl0aG9uJywgJy1waHQnLCAnMi4wJywgJy1waCcsICc3LjAnLCAnLXRuJywgJzgnLCAnLW1hJywgJzIwMCcsICctaW1hZScsICc8aW5maWxlLm1hZT4nLCAnLW9tYWUnLCAnPG91dGZpbGUubWFlPic=

>  <r_lp_tautomer_probability>  (225) 
1

>  <r_epik_Ionization_Penalty>  (225) 
4.49099e-06

>  <r_epik_Ionization_Penalty_Charging>  (225) 
0

>  <r_epik_Ionization_Penalty_Neutral>  (225) 
4.49099e-06

>  <r_epik_State_Penalty>  (225) 
-0

>  <r_epik_Charging_Adjusted_Penalty>  (225) 
0

>  <i_epik_Tot_Q>  (225) 
0

>  <i_epik_Tot_abs_Q>  (225) 
0

>  <s_lp_Force_Field>  (225) 
OPLS3e

>  <r_lp_Energy>  (225) 
75.7501

>  <b_lp_Chiralities_Consistent>  (225) 
1

>  <s_lp_Variant>  (225) 
75:0-1

>  <s_i_glide_gridfile>  (225) 
pfpi4k_grid

>  <i_i_glide_lignum>  (225) 
22

>  <i_i_glide_rotatable_bonds>  (225) 
8

>  <r_i_docking_score>  (225) 
-2.88372

>  <r_i_glide_ligand_efficiency>  (225) 
-0.0686599

>  <r_i_glide_ligand_efficiency_sa>  (225) 
-0.238664

>  <r_i_glide_ligand_efficiency_ln>  (225) 
-0.608678

>  <r_i_glide_gscore>  (225) 
-2.88372

>  <r_i_glide_lipo>  (225) 
-0.167187

>  <r_i_glide_hbond>  (225) 
0

>  <r_i_glide_metal>  (225) 
-0

>  <r_i_glide_rewards>  (225) 
0

>  <r_i_glide_evdw>  (225) 
-20.2123

>  <r_i_glide_ecoul>  (225) 
-11.7155

>  <r_i_glide_erotb>  (225) 
0.0608086

>  <r_i_glide_esite>  (225) 
-0.00939625

>  <r_i_glide_emodel>  (225) 
-36.9319

>  <r_i_glide_energy>  (225) 
-31.9278

>  <r_i_glide_einternal>  (225) 
2.64801

>  <r_i_glide_intrahb_reward>  (225) 
-0

>  <i_i_glide_confnum>  (225) 
3

>  <i_i_glide_posenum>  (225) 
35

>  <r_i_glide_eff_state_penalty>  (225) 
0

>  <ligand_id>  (225) 
75

>  <original_smiles>  (225) 
CC1=C2C(C(C)CC1=O)C(O)C1(O)C=CC(=O)C1C13CC4(CO)C(CC5(O)C(C)C(C)(C)C(O)C54)C1C(C)C(O)C23O

>  <smiles>  (225) 
[H]OC([H])([H])C12C([H])([H])C34C5([H])C(=O)C([H])=C([H])C5(O[H])C([H])(O[H])C5([H])C(=C(C([H])([H])[H])C(=O)C([H])([H])C5([H])C([H])([H])[H])C3(O[H])C([H])(O[H])C([H])(C([H])([H])[H])C4([H])C1([H])C([H])([H])C1(O[H])C([H])(C([H])([H])[H])C(C([H])([H])[H])(C([H])([H])[H])C([H])(O[H])C12[H]

$$$$
75:0:2
     RDKit          3D

 88 94  0  0  1  0  0  0  0  0999 V2000
    3.9806   -3.0531    4.6481 C   0  0  0  0  0  0  0  0  0  0  0  0
    3.3544   -1.9969    3.7436 C   0  0  0  0  0  0  0  0  0  0  0  0
    3.3305   -0.6375    3.9344 C   0  0  0  0  0  0  0  0  0  0  0  0
    2.8766    0.3031    2.7720 C   0  0  1  0  0  0  0  0  0  0  0  0
    3.0134   -0.3682    1.3795 C   0  0  1  0  0  0  0  0  0  0  0  0
    4.4793   -0.4529    0.8996 C   0  0  0  0  0  0  0  0  0  0  0  0
    2.3157   -1.7279    1.3604 C   0  0  0  0  0  0  0  0  0  0  0  0
    2.7331   -2.6094    2.5301 C   0  0  0  0  0  0  0  0  0  0  0  0
    2.4708   -3.8093    2.4373 O   0  0  0  0  0  0  0  0  0  0  0  0
    1.4857    0.9610    2.9582 C   0  0  1  0  0  0  0  0  0  0  0  0
    0.5443   -0.0288    3.3242 O   0  0  0  0  0  0  0  0  0  0  0  0
    1.4396    2.2533    3.8383 C   0  0  2  0  0  0  0  0  0  0  0  0
    0.0969    2.5674    4.1557 O   0  0  0  0  0  0  0  0  0  0  0  0
    1.9675    3.4094    3.0209 C   0  0  0  0  0  0  0  0  0  0  0  0
    3.0075    4.0581    3.5430 C   0  0  0  0  0  0  0  0  0  0  0  0
    3.3442    3.4333    4.8048 C   0  0  0  0  0  0  0  0  0  0  0  0
    4.3045    3.7219    5.5171 O   0  0  0  0  0  0  0  0  0  0  0  0
    2.3076    2.3534    5.1437 C   0  0  2  0  0  0  0  0  0  0  0  0
    2.7567    1.0488    5.9080 C   0  0  2  0  0  0  0  0  0  0  0  0
    1.4720    0.2367    6.2945 C   0  0  0  0  0  0  0  0  0  0  0  0
    1.0346    0.5332    7.7463 C   0  0  1  0  0  0  0  0  0  0  0  0
    0.4067   -0.7544    8.3606 C   0  0  0  0  0  0  0  0  0  0  0  0
    0.1727   -0.6932    9.7564 O   0  0  0  0  0  0  0  0  0  0  0  0
    2.3516    0.9127    8.4271 C   0  0  2  0  0  0  0  0  0  0  0  0
    1.9969    2.0105    9.4420 C   0  0  0  0  0  0  0  0  0  0  0  0
    0.8090    2.7817    8.8370 C   0  0  2  0  0  0  0  0  0  0  0  0
    1.3096    3.9014    8.1286 O   0  0  0  0  0  0  0  0  0  0  0  0
   -0.2970    3.2081    9.8372 C   0  0  1  0  0  0  0  0  0  0  0  0
   -0.0858    4.5675   10.5358 C   0  0  0  0  0  0  0  0  0  0  0  0
   -1.6472    3.0010    9.0986 C   0  0  0  0  0  0  0  0  0  0  0  0
   -2.8061    2.7992   10.0998 C   0  0  0  0  0  0  0  0  0  0  0  0
   -2.0039    4.1668    8.1491 C   0  0  0  0  0  0  0  0  0  0  0  0
   -1.3336    1.6971    8.3326 C   0  0  1  0  0  0  0  0  0  0  0  0
   -2.2305    1.3636    7.2871 O   0  0  0  0  0  0  0  0  0  0  0  0
    0.1316    1.8159    7.8462 C   0  0  2  0  0  0  0  0  0  0  0  0
    3.3525    1.3662    7.3282 C   0  0  1  0  0  0  0  0  0  0  0  0
    4.7292    0.6674    7.3884 C   0  0  1  0  0  0  0  0  0  0  0  0
    5.3324    0.3508    8.7737 C   0  0  0  0  0  0  0  0  0  0  0  0
    4.6101   -0.5016    6.3853 C   0  0  1  0  0  0  0  0  0  0  0  0
    3.9015   -1.5184    7.0642 O   0  0  0  0  0  0  0  0  0  0  0  0
    3.8607    0.1607    5.1726 C   0  0  1  0  0  0  0  0  0  0  0  0
    4.9385    0.9334    4.6585 O   0  0  0  0  0  0  0  0  0  0  0  0
    4.2726   -3.9502    4.1020 H   0  0  0  0  0  0  0  0  0  0  0  0
    3.2789   -3.3629    5.4201 H   0  0  0  0  0  0  0  0  0  0  0  0
    4.9094   -2.7165    5.0956 H   0  0  0  0  0  0  0  0  0  0  0  0
    3.5697    1.1352    2.6909 H   0  0  0  0  0  0  0  0  0  0  0  0
    2.5033    0.2407    0.6352 H   0  0  0  0  0  0  0  0  0  0  0  0
    5.1074   -1.0437    1.5675 H   0  0  0  0  0  0  0  0  0  0  0  0
    4.9214    0.5415    0.8245 H   0  0  0  0  0  0  0  0  0  0  0  0
    4.5382   -0.9005   -0.0944 H   0  0  0  0  0  0  0  0  0  0  0  0
    1.2333   -1.6002    1.3934 H   0  0  0  0  0  0  0  0  0  0  0  0
    2.5291   -2.2493    0.4267 H   0  0  0  0  0  0  0  0  0  0  0  0
    1.1348    1.2808    1.9733 H   0  0  0  0  0  0  0  0  0  0  0  0
    0.4792   -0.6419    2.6047 H   0  0  0  0  0  0  0  0  0  0  0  0
   -0.3833    2.6447    3.3439 H   0  0  0  0  0  0  0  0  0  0  0  0
    1.5200    3.6788    2.0764 H   0  0  0  0  0  0  0  0  0  0  0  0
    3.5274    4.8965    3.1043 H   0  0  0  0  0  0  0  0  0  0  0  0
    1.7106    2.9096    5.8593 H   0  0  0  0  0  0  0  0  0  0  0  0
    0.6262    0.4467    5.6543 H   0  0  0  0  0  0  0  0  0  0  0  0
    1.6522   -0.8306    6.1643 H   0  0  0  0  0  0  0  0  0  0  0  0
   -0.5328   -0.9720    7.8517 H   0  0  0  0  0  0  0  0  0  0  0  0
    1.0485   -1.6196    8.1950 H   0  0  0  0  0  0  0  0  0  0  0  0
    0.9803   -0.4755   10.2062 H   0  0  0  0  0  0  0  0  0  0  0  0
    2.7361    0.0435    8.9505 H   0  0  0  0  0  0  0  0  0  0  0  0
    1.6927    1.5230   10.3685 H   0  0  0  0  0  0  0  0  0  0  0  0
    2.8481    2.6445    9.7012 H   0  0  0  0  0  0  0  0  0  0  0  0
    1.7332    4.4721    8.7542 H   0  0  0  0  0  0  0  0  0  0  0  0
   -0.2932    2.4701   10.6419 H   0  0  0  0  0  0  0  0  0  0  0  0
   -0.0944    5.4045    9.8367 H   0  0  0  0  0  0  0  0  0  0  0  0
    0.8676    4.5844   11.0654 H   0  0  0  0  0  0  0  0  0  0  0  0
   -0.8670    4.7458   11.2763 H   0  0  0  0  0  0  0  0  0  0  0  0
   -3.7351    2.5437    9.5900 H   0  0  0  0  0  0  0  0  0  0  0  0
   -2.9915    3.7010   10.6853 H   0  0  0  0  0  0  0  0  0  0  0  0
   -2.5937    2.0043   10.8163 H   0  0  0  0  0  0  0  0  0  0  0  0
   -2.9290    3.9614    7.6092 H   0  0  0  0  0  0  0  0  0  0  0  0
   -1.2234    4.3549    7.4127 H   0  0  0  0  0  0  0  0  0  0  0  0
   -2.1644    5.0906    8.7067 H   0  0  0  0  0  0  0  0  0  0  0  0
   -1.4239    0.9267    9.0832 H   0  0  0  0  0  0  0  0  0  0  0  0
   -2.2040    2.0552    6.6372 H   0  0  0  0  0  0  0  0  0  0  0  0
    0.0709    2.3059    6.8782 H   0  0  0  0  0  0  0  0  0  0  0  0
    3.5202    2.4323    7.4534 H   0  0  0  0  0  0  0  0  0  0  0  0
    5.4371    1.3854    6.9732 H   0  0  0  0  0  0  0  0  0  0  0  0
    4.8168   -0.4481    9.3059 H   0  0  0  0  0  0  0  0  0  0  0  0
    5.3211    1.2370    9.4081 H   0  0  0  0  0  0  0  0  0  0  0  0
    6.3728    0.0404    8.6719 H   0  0  0  0  0  0  0  0  0  0  0  0
    5.5979   -0.8773    6.1135 H   0  0  0  0  0  0  0  0  0  0  0  0
    3.0669   -1.1550    7.3220 H   0  0  0  0  0  0  0  0  0  0  0  0
    4.6150    1.4978    3.9704 H   0  0  0  0  0  0  0  0  0  0  0  0
  1  2  1  0
  1 43  1  0
  1 44  1  0
  1 45  1  0
  2  8  1  0
  2  3  2  0
  3 41  1  0
  3  4  1  0
  4  5  1  0
  4 10  1  0
  4 46  1  6
  5  6  1  0
  5  7  1  0
  5 47  1  6
  6 48  1  0
  6 49  1  0
  6 50  1  0
  7  8  1  0
  7 51  1  0
  7 52  1  0
  8  9  2  0
 10 11  1  0
 10 12  1  0
 10 53  1  6
 11 54  1  0
 12 18  1  0
 12 13  1  1
 12 14  1  0
 13 55  1  0
 14 15  2  0
 14 56  1  0
 15 16  1  0
 15 57  1  0
 16 17  2  0
 16 18  1  0
 18 19  1  0
 18 58  1  1
 19 36  1  0
 19 41  1  0
 19 20  1  1
 20 21  1  0
 20 59  1  0
 20 60  1  0
 21 35  1  0
 21 22  1  1
 21 24  1  0
 22 23  1  0
 22 61  1  0
 22 62  1  0
 23 63  1  0
 24 25  1  0
 24 36  1  0
 24 64  1  1
 25 26  1  0
 25 65  1  0
 25 66  1  0
 26 35  1  0
 26 27  1  6
 26 28  1  0
 27 67  1  0
 28 29  1  0
 28 30  1  0
 28 68  1  1
 29 69  1  0
 29 70  1  0
 29 71  1  0
 30 31  1  0
 30 32  1  0
 30 33  1  0
 31 72  1  0
 31 73  1  0
 31 74  1  0
 32 75  1  0
 32 76  1  0
 32 77  1  0
 33 34  1  0
 33 35  1  0
 33 78  1  1
 34 79  1  0
 35 80  1  6
 36 37  1  0
 36 81  1  6
 37 38  1  0
 37 39  1  0
 37 82  1  6
 38 83  1  0
 38 84  1  0
 38 85  1  0
 39 40  1  0
 39 41  1  0
 39 86  1  6
 40 87  1  0
 41 42  1  6
 42 88  1  0
M  END
>  <i_m_ct_stereo_status>  (226) 
1

>  <s_m_source_file>  (226) 
/var/tmp/pbs.5076255.sched01/tmprae_yccg/80g5h6lheg.sdf

>  <i_m_source_file_index>  (226) 
22

>  <i_lp_mmshare_version>  (226) 
48012

>  <i_f3d_flags>  (226) 
0

>  <s_epik_input>  (226) 
Tz1DMVtDSF09W0NIXVtDQF0oW09IXSkoW0NASF0xW0NAXTIzNClbQ0BIXShbT0hdKVtDQEhdNUMoPUMoW0NIM10pQyg9TylbQ0gyXVtDQEBIXTVbQ0gzXSlbQ0BdNChbT0hdKVtDQEhdKFtPSF0pW0NASF0oW0NIM10pW0NAQEhdM1tDQEBIXTZbQ0BAXShbQ0gyXTIpKFtDSDJdW09IXSlbQ0BASF03W0NAQF0oW0NIMl02KShbT0hdKVtDQEBIXShbQ0gzXSlDKFtDSDNdKShbQ0gzXSlbQ0BIXTdbT0hd

>  <s_epik_cmdline>  (226) 
J2VwaWtfcHl0aG9uJywgJy1waHQnLCAnMi4wJywgJy1waCcsICc3LjAnLCAnLXRuJywgJzgnLCAnLW1hJywgJzIwMCcsICctaW1hZScsICc8aW5maWxlLm1hZT4nLCAnLW9tYWUnLCAnPG91dGZpbGUubWFlPic=

>  <r_lp_tautomer_probability>  (226) 
1

>  <r_epik_Ionization_Penalty>  (226) 
4.49099e-06

>  <r_epik_Ionization_Penalty_Charging>  (226) 
0

>  <r_epik_Ionization_Penalty_Neutral>  (226) 
4.49099e-06

>  <r_epik_State_Penalty>  (226) 
-0

>  <r_epik_Charging_Adjusted_Penalty>  (226) 
0

>  <i_epik_Tot_Q>  (226) 
0

>  <i_epik_Tot_abs_Q>  (226) 
0

>  <s_lp_Force_Field>  (226) 
OPLS3e

>  <r_lp_Energy>  (226) 
75.7501

>  <b_lp_Chiralities_Consistent>  (226) 
1

>  <s_lp_Variant>  (226) 
75:0-1

>  <s_i_glide_gridfile>  (226) 
pfpi4k_grid

>  <i_i_glide_lignum>  (226) 
22

>  <i_i_glide_rotatable_bonds>  (226) 
8

>  <r_i_docking_score>  (226) 
-2.65508

>  <r_i_glide_ligand_efficiency>  (226) 
-0.0632162

>  <r_i_glide_ligand_efficiency_sa>  (226) 
-0.219741

>  <r_i_glide_ligand_efficiency_ln>  (226) 
-0.560419

>  <r_i_glide_gscore>  (226) 
-2.65508

>  <r_i_glide_lipo>  (226) 
-0.15073

>  <r_i_glide_hbond>  (226) 
-0.14463

>  <r_i_glide_metal>  (226) 
-0

>  <r_i_glide_rewards>  (226) 
0

>  <r_i_glide_evdw>  (226) 
-23.5699

>  <r_i_glide_ecoul>  (226) 
-8.21326

>  <r_i_glide_erotb>  (226) 
0.0608086

>  <r_i_glide_esite>  (226) 
-0.010045

>  <r_i_glide_emodel>  (226) 
-37.2284

>  <r_i_glide_energy>  (226) 
-31.7832

>  <r_i_glide_einternal>  (226) 
1.2619

>  <r_i_glide_intrahb_reward>  (226) 
-0

>  <i_i_glide_confnum>  (226) 
2

>  <i_i_glide_posenum>  (226) 
9

>  <r_i_glide_eff_state_penalty>  (226) 
0

>  <ligand_id>  (226) 
75

>  <original_smiles>  (226) 
CC1=C2C(C(C)CC1=O)C(O)C1(O)C=CC(=O)C1C13CC4(CO)C(CC5(O)C(C)C(C)(C)C(O)C54)C1C(C)C(O)C23O

>  <smiles>  (226) 
[H]OC([H])([H])C12C([H])([H])C34C5([H])C(=O)C([H])=C([H])C5(O[H])C([H])(O[H])C5([H])C(=C(C([H])([H])[H])C(=O)C([H])([H])C5([H])C([H])([H])[H])C3(O[H])C([H])(O[H])C([H])(C([H])([H])[H])C4([H])C1([H])C([H])([H])C1(O[H])C([H])(C([H])([H])[H])C(C([H])([H])[H])(C([H])([H])[H])C([H])(O[H])C12[H]

$$$$
76:0:0
     RDKit          3D

 67 72  0  0  1  0  0  0  0  0999 V2000
    6.1424   -4.2604   -0.5926 C   0  0  0  0  0  0  0  0  0  0  0  0
    5.1997   -3.6109    0.0686 C   0  0  0  0  0  0  0  0  0  0  0  0
    5.0118   -2.1041   -0.1807 C   0  0  1  0  0  0  0  0  0  0  0  0
    4.2418   -1.7488   -1.4964 C   0  0  2  0  0  0  0  0  0  0  0  0
    4.4883   -2.6803   -2.7194 C   0  0  0  0  0  0  0  0  0  0  0  0
    3.6515   -2.2312   -3.9354 C   0  0  0  0  0  0  0  0  0  0  0  0
    3.9652   -0.7805   -4.2907 C   0  0  1  0  0  0  0  0  0  0  0  0
    3.1860   -0.1385   -5.4183 C   0  0  0  0  0  0  0  0  0  0  0  0
    3.8229    0.0949   -3.0522 C   0  0  0  0  0  0  0  0  0  0  0  0
    4.6098   -0.4001   -1.9140 N   0  0  0  0  0  0  0  0  0  0  0  0
    4.5651   -1.2748    0.9180 O   0  0  0  0  0  0  0  0  0  0  0  0
    3.6019   -1.7359    1.8946 C   0  0  1  0  0  0  0  0  0  0  0  0
    2.5252   -2.7154    1.4004 C   0  0  0  0  0  0  0  0  0  0  0  0
    2.8829   -4.1935    1.1332 C   0  0  2  0  0  0  0  0  0  0  0  0
    2.3503   -4.5920   -0.2604 C   0  0  0  0  0  0  0  0  0  0  0  0
    2.1010   -5.0981    2.1817 C   0  0  1  0  0  0  0  0  0  0  0  0
    2.1725   -6.6302    1.9018 C   0  0  0  0  0  0  0  0  0  0  0  0
    2.1410   -4.7219    3.7065 C   0  0  0  0  0  0  0  0  0  0  0  0
    3.4657   -4.2470    4.3031 C   0  0  2  0  0  0  0  0  0  0  0  0
    3.5001   -4.4204    5.8276 C   0  0  0  0  0  0  0  0  0  0  0  0
    3.4935   -2.8058    4.1011 O   0  0  0  0  0  0  0  0  0  0  0  0
    4.3434   -2.1762    3.1629 C   0  0  2  0  0  0  0  0  0  0  0  0
    4.9360   -0.9785    3.8849 C   0  0  0  0  0  0  0  0  0  0  0  0
    5.4153   -2.9468    2.7842 O   0  0  0  0  0  0  0  0  0  0  0  0
    5.1227   -4.2901    2.4347 C   0  0  1  0  0  0  0  0  0  0  0  0
    6.3670   -5.0839    2.7537 C   0  0  0  0  0  0  0  0  0  0  0  0
    5.9763   -5.1920    4.0433 C   0  0  0  0  0  0  0  0  0  0  0  0
    4.5495   -5.0486    3.6018 C   0  0  1  0  0  0  0  0  0  0  0  0
    4.4173   -4.4196    1.0946 C   0  0  2  0  0  0  0  0  0  0  0  0
    6.2319   -5.3089   -0.4040 H   0  0  0  0  0  0  0  0  0  0  0  0
    6.8007   -3.7854   -1.3063 H   0  0  0  0  0  0  0  0  0  0  0  0
    6.0418   -1.7549   -0.3059 H   0  0  0  0  0  0  0  0  0  0  0  0
    3.1693   -1.7435   -1.2925 H   0  0  0  0  0  0  0  0  0  0  0  0
    5.5464   -2.6230   -2.9947 H   0  0  0  0  0  0  0  0  0  0  0  0
    4.2445   -3.7493   -2.5544 H   0  0  0  0  0  0  0  0  0  0  0  0
    3.9287   -2.8880   -4.7443 H   0  0  0  0  0  0  0  0  0  0  0  0
    2.5861   -2.3835   -3.7336 H   0  0  0  0  0  0  0  0  0  0  0  0
    5.0037   -0.7417   -4.6104 H   0  0  0  0  0  0  0  0  0  0  0  0
    2.1212   -0.1706   -5.2036 H   0  0  0  0  0  0  0  0  0  0  0  0
    3.4033   -0.6575   -6.3250 H   0  0  0  0  0  0  0  0  0  0  0  0
    3.4652    0.9113   -5.6125 H   0  0  0  0  0  0  0  0  0  0  0  0
    4.1635    1.1088   -3.2994 H   0  0  0  0  0  0  0  0  0  0  0  0
    2.7676    0.1423   -2.7595 H   0  0  0  0  0  0  0  0  0  0  0  0
    4.4501    0.2302   -1.1475 H   0  0  0  0  0  0  0  0  0  0  0  0
    3.0651   -0.8261    2.1803 H   0  0  0  0  0  0  0  0  0  0  0  0
    1.7128   -2.6609    2.1169 H   0  0  0  0  0  0  0  0  0  0  0  0
    2.1067   -2.2723    0.5060 H   0  0  0  0  0  0  0  0  0  0  0  0
    2.6958   -5.5921   -0.5111 H   0  0  0  0  0  0  0  0  0  0  0  0
    2.6695   -3.9060   -1.0435 H   0  0  0  0  0  0  0  0  0  0  0  0
    1.2682   -4.6544   -0.3217 H   0  0  0  0  0  0  0  0  0  0  0  0
    1.0355   -4.9257    2.0007 H   0  0  0  0  0  0  0  0  0  0  0  0
    3.1814   -7.0233    1.8010 H   0  0  0  0  0  0  0  0  0  0  0  0
    1.6476   -6.8777    0.9783 H   0  0  0  0  0  0  0  0  0  0  0  0
    1.6602   -7.1817    2.6879 H   0  0  0  0  0  0  0  0  0  0  0  0
    1.4049   -3.9484    3.8910 H   0  0  0  0  0  0  0  0  0  0  0  0
    1.8102   -5.5883    4.2758 H   0  0  0  0  0  0  0  0  0  0  0  0
    3.4591   -5.4660    6.1094 H   0  0  0  0  0  0  0  0  0  0  0  0
    2.6570   -3.9059    6.2790 H   0  0  0  0  0  0  0  0  0  0  0  0
    4.4093   -3.9903    6.2484 H   0  0  0  0  0  0  0  0  0  0  0  0
    5.4977   -1.3105    4.7621 H   0  0  0  0  0  0  0  0  0  0  0  0
    4.1301   -0.3215    4.2110 H   0  0  0  0  0  0  0  0  0  0  0  0
    5.6000   -0.4315    3.2160 H   0  0  0  0  0  0  0  0  0  0  0  0
    7.3129   -5.2230    2.2470 H   0  0  0  0  0  0  0  0  0  0  0  0
    6.4782   -5.5332    4.9416 H   0  0  0  0  0  0  0  0  0  0  0  0
    4.1888   -6.0313    3.3325 H   0  0  0  0  0  0  0  0  0  0  0  0
    4.5488   -5.4633    0.8072 H   0  0  0  0  0  0  0  0  0  0  0  0
    5.5973   -0.3901   -2.1511 H   0  0  0  0  0  0  0  0  0  0  0  0
  1  2  2  0
  1 30  1  0
  1 31  1  0
  2 29  1  0
  2  3  1  0
  3  4  1  0
  3 11  1  0
  3 32  1  6
  4 10  1  0
  4  5  1  0
  4 33  1  1
  5  6  1  0
  5 34  1  0
  5 35  1  0
  6  7  1  0
  6 36  1  0
  6 37  1  0
  7  8  1  0
  7  9  1  0
  7 38  1  6
  8 39  1  0
  8 40  1  0
  8 41  1  0
  9 10  1  0
  9 42  1  0
  9 43  1  0
 10 44  1  0
 10 67  1  0
 11 12  1  0
 12 22  1  0
 12 13  1  0
 12 45  1  1
 13 14  1  0
 13 46  1  0
 13 47  1  0
 14 29  1  0
 14 15  1  6
 14 16  1  0
 15 48  1  0
 15 49  1  0
 15 50  1  0
 16 17  1  0
 16 18  1  0
 16 51  1  6
 17 52  1  0
 17 53  1  0
 17 54  1  0
 18 19  1  0
 18 55  1  0
 18 56  1  0
 19 28  1  0
 19 20  1  1
 19 21  1  0
 20 57  1  0
 20 58  1  0
 20 59  1  0
 21 22  1  0
 22 23  1  1
 22 24  1  0
 23 60  1  0
 23 61  1  0
 23 62  1  0
 24 25  1  0
 25 28  1  0
 25 26  1  6
 25 29  1  0
 26 27  2  0
 26 63  1  0
 27 28  1  0
 27 64  1  0
 28 65  1  6
 29 66  1  6
M  CHG  1  10   1
M  END
>  <i_m_ct_stereo_status>  (227) 
1

>  <s_m_source_file>  (227) 
/var/tmp/pbs.5076255.sched01/tmprae_yccg/80g5h6lheg.sdf

>  <i_m_source_file_index>  (227) 
23

>  <i_lp_mmshare_version>  (227) 
48012

>  <i_f3d_flags>  (227) 
0

>  <s_epik_input>  (227) 
W05IXTFbQ0gyXVtDQEhdKFtDSDNdKVtDSDJdW0NIMl1bQ0BIXTFbQ0BASF0oT1tDQEBIXShbQ0gyXTIpW0NAQF0oTzMpKE80KVtDSDNdKUMoPVtDSDJdKVtDQEBIXTVbQ0BAXTIoW0NIM10pW0NAQEhdKFtDSDNdKVtDSDJdW0NAQF0zKFtDSDNdKVtDQEhdKFtDQF00NTYpW0NIXT1bQ0hdNg==

>  <s_epik_cmdline>  (227) 
J2VwaWtfcHl0aG9uJywgJy1waHQnLCAnMi4wJywgJy1waCcsICc3LjAnLCAnLXRuJywgJzgnLCAnLW1hJywgJzIwMCcsICctaW1hZScsICc8aW5maWxlLm1hZT4nLCAnLW9tYWUnLCAnPG91dGZpbGUubWFlPic=

>  <r_epik_Ionization_Penalty>  (227) 
0.000463384

>  <r_epik_Ionization_Penalty_Charging>  (227) 
0.000463384

>  <r_epik_Ionization_Penalty_Neutral>  (227) 
5.92012e-14

>  <r_epik_State_Penalty>  (227) 
0.000286824

>  <r_epik_Charging_Adjusted_Penalty>  (227) 
0.000750208

>  <i_epik_Tot_Q>  (227) 
1

>  <i_epik_Tot_abs_Q>  (227) 
1

>  <s_lp_Force_Field>  (227) 
OPLS3e

>  <r_lp_Energy>  (227) 
81.4244

>  <b_lp_Chiralities_Consistent>  (227) 
1

>  <s_lp_Variant>  (227) 
76:0-1

>  <s_i_glide_gridfile>  (227) 
pfpi4k_grid

>  <i_i_glide_lignum>  (227) 
23

>  <i_i_glide_rotatable_bonds>  (227) 
1

>  <r_i_docking_score>  (227) 
-2.29921

>  <r_i_glide_ligand_efficiency>  (227) 
-0.079283

>  <r_i_glide_ligand_efficiency_sa>  (227) 
-0.243582

>  <r_i_glide_ligand_efficiency_ln>  (227) 
-0.52646

>  <r_i_glide_gscore>  (227) 
-2.29921

>  <r_i_glide_lipo>  (227) 
-0.584811

>  <r_i_glide_hbond>  (227) 
0

>  <r_i_glide_metal>  (227) 
-0

>  <r_i_glide_rewards>  (227) 
-0.699918

>  <r_i_glide_evdw>  (227) 
-15.7317

>  <r_i_glide_ecoul>  (227) 
-2.1364

>  <r_i_glide_erotb>  (227) 
0.122184

>  <r_i_glide_esite>  (227) 
-0.0296183

>  <r_i_glide_emodel>  (227) 
-18.9834

>  <r_i_glide_energy>  (227) 
-17.8681

>  <r_i_glide_einternal>  (227) 
3.08239

>  <r_i_glide_intrahb_reward>  (227) 
-0

>  <i_i_glide_confnum>  (227) 
1

>  <i_i_glide_posenum>  (227) 
16

>  <r_i_glide_eff_state_penalty>  (227) 
0

>  <ligand_id>  (227) 
76

>  <original_smiles>  (227) 
C=C1C(C2CCC(C)CN2)OC2CC3(C)C(C)CC4(C)OC2(C)OC2(C=CC42)C13

>  <smiles>  (227) 
[H]C([H])=C1C([H])(C2([H])C([H])([H])C([H])([H])C([H])(C([H])([H])[H])C([H])([H])[N+]2([H])[H])OC2([H])C([H])([H])C3(C([H])([H])[H])C1([H])C14OC2(C([H])([H])[H])OC(C([H])([H])[H])(C([H])([H])C3([H])C([H])([H])[H])C1([H])C([H])=C4[H]

$$$$
76:0:1
     RDKit          3D

 67 72  0  0  1  0  0  0  0  0999 V2000
    6.3224   -5.1301    0.6529 C   0  0  0  0  0  0  0  0  0  0  0  0
    5.3167   -4.5103    1.3035 C   0  0  0  0  0  0  0  0  0  0  0  0
    5.0946   -2.9928    1.0560 C   0  0  1  0  0  0  0  0  0  0  0  0
    4.3590   -2.6435   -0.2664 C   0  0  2  0  0  0  0  0  0  0  0  0
    4.6100   -3.6426   -1.4360 C   0  0  0  0  0  0  0  0  0  0  0  0
    3.8354   -3.2239   -2.6760 C   0  0  0  0  0  0  0  0  0  0  0  0
    4.2616   -1.8085   -3.0754 C   0  0  1  0  0  0  0  0  0  0  0  0
    3.4749   -1.3313   -4.2965 C   0  0  0  0  0  0  0  0  0  0  0  0
    4.0710   -0.8366   -1.9130 C   0  0  0  0  0  0  0  0  0  0  0  0
    4.7819   -1.2897   -0.7057 N   0  0  0  0  0  0  0  0  0  0  0  0
    4.5710   -2.1854    2.1224 O   0  0  0  0  0  0  0  0  0  0  0  0
    3.5681   -2.6220    3.0425 C   0  0  1  0  0  0  0  0  0  0  0  0
    2.5224   -3.6266    2.5143 C   0  0  0  0  0  0  0  0  0  0  0  0
    2.9387   -5.1044    2.2784 C   0  0  2  0  0  0  0  0  0  0  0  0
    2.4221   -5.5106    0.8688 C   0  0  0  0  0  0  0  0  0  0  0  0
    2.1142   -5.9970    3.2983 C   0  0  1  0  0  0  0  0  0  0  0  0
    2.2255   -7.5228    3.0575 C   0  0  0  0  0  0  0  0  0  0  0  0
    2.0922   -5.6075    4.8226 C   0  0  0  0  0  0  0  0  0  0  0  0
    3.3970   -5.0968    5.4745 C   0  0  2  0  0  0  0  0  0  0  0  0
    3.3522   -5.2505    6.9984 C   0  0  0  0  0  0  0  0  0  0  0  0
    3.3916   -3.6663    5.2661 O   0  0  0  0  0  0  0  0  0  0  0  0
    4.2542   -3.0353    4.3648 C   0  0  2  0  0  0  0  0  0  0  0  0
    4.7929   -1.8038    5.1052 C   0  0  0  0  0  0  0  0  0  0  0  0
    5.3747   -3.7564    4.0287 O   0  0  0  0  0  0  0  0  0  0  0  0
    5.1492   -5.1156    3.6994 C   0  0  1  0  0  0  0  0  0  0  0  0
    6.4185   -5.8453    4.1033 C   0  0  0  0  0  0  0  0  0  0  0  0
    5.9648   -5.9627    5.3612 C   0  0  0  0  0  0  0  0  0  0  0  0
    4.5445   -5.8648    4.8501 C   0  0  1  0  0  0  0  0  0  0  0  0
    4.5122   -5.3040    2.3217 C   0  0  2  0  0  0  0  0  0  0  0  0
    6.5200   -6.1884    0.7853 H   0  0  0  0  0  0  0  0  0  0  0  0
    6.9489   -4.6017   -0.0428 H   0  0  0  0  0  0  0  0  0  0  0  0
    6.1160   -2.6141    0.9622 H   0  0  0  0  0  0  0  0  0  0  0  0
    3.2861   -2.5631   -0.0850 H   0  0  0  0  0  0  0  0  0  0  0  0
    5.6795   -3.6251   -1.6955 H   0  0  0  0  0  0  0  0  0  0  0  0
    4.3129   -4.6712   -1.2191 H   0  0  0  0  0  0  0  0  0  0  0  0
    4.0745   -3.9280   -3.4722 H   0  0  0  0  0  0  0  0  0  0  0  0
    2.7562   -3.2744   -2.5099 H   0  0  0  0  0  0  0  0  0  0  0  0
    5.3194   -1.8639   -3.3321 H   0  0  0  0  0  0  0  0  0  0  0  0
    2.4007   -1.3103   -4.0971 H   0  0  0  0  0  0  0  0  0  0  0  0
    3.6095   -2.0396   -5.0861 H   0  0  0  0  0  0  0  0  0  0  0  0
    3.7842   -0.3377   -4.6383 H   0  0  0  0  0  0  0  0  0  0  0  0
    4.4364    0.1418   -2.2064 H   0  0  0  0  0  0  0  0  0  0  0  0
    3.0058   -0.7411   -1.6836 H   0  0  0  0  0  0  0  0  0  0  0  0
    4.6463   -0.6135    0.0384 H   0  0  0  0  0  0  0  0  0  0  0  0
    3.0010   -1.7235    3.2957 H   0  0  0  0  0  0  0  0  0  0  0  0
    1.6592   -3.5718    3.1730 H   0  0  0  0  0  0  0  0  0  0  0  0
    2.1209   -3.2088    1.5942 H   0  0  0  0  0  0  0  0  0  0  0  0
    2.7857   -6.4991    0.5868 H   0  0  0  0  0  0  0  0  0  0  0  0
    2.7151   -4.8014    0.1112 H   0  0  0  0  0  0  0  0  0  0  0  0
    1.3267   -5.5761    0.8543 H   0  0  0  0  0  0  0  0  0  0  0  0
    1.0761   -5.8083    3.0363 H   0  0  0  0  0  0  0  0  0  0  0  0
    3.2519   -7.8817    3.0192 H   0  0  0  0  0  0  0  0  0  0  0  0
    1.7645   -7.8139    2.1138 H   0  0  0  0  0  0  0  0  0  0  0  0
    1.6992   -8.0858    3.8267 H   0  0  0  0  0  0  0  0  0  0  0  0
    1.3175   -4.8589    4.9930 H   0  0  0  0  0  0  0  0  0  0  0  0
    1.7599   -6.4821    5.3841 H   0  0  0  0  0  0  0  0  0  0  0  0
    3.3243   -6.2982    7.2968 H   0  0  0  0  0  0  0  0  0  0  0  0
    2.4754   -4.7505    7.4093 H   0  0  0  0  0  0  0  0  0  0  0  0
    4.2314   -4.7964    7.4569 H   0  0  0  0  0  0  0  0  0  0  0  0
    5.3301   -2.1206    6.0023 H   0  0  0  0  0  0  0  0  0  0  0  0
    3.9601   -1.1662    5.3985 H   0  0  0  0  0  0  0  0  0  0  0  0
    5.4701   -1.2405    4.4659 H   0  0  0  0  0  0  0  0  0  0  0  0
    7.3901   -5.9621    3.6389 H   0  0  0  0  0  0  0  0  0  0  0  0
    6.4135   -6.3085    6.2868 H   0  0  0  0  0  0  0  0  0  0  0  0
    4.2323   -6.8729    4.5793 H   0  0  0  0  0  0  0  0  0  0  0  0
    4.6683   -6.3540    2.0533 H   0  0  0  0  0  0  0  0  0  0  0  0
    5.7637   -1.3553   -0.9167 H   0  0  0  0  0  0  0  0  0  0  0  0
  1  2  2  0
  1 30  1  0
  1 31  1  0
  2 29  1  0
  2  3  1  0
  3  4  1  0
  3 11  1  0
  3 32  1  6
  4 10  1  0
  4  5  1  0
  4 33  1  1
  5  6  1  0
  5 34  1  0
  5 35  1  0
  6  7  1  0
  6 36  1  0
  6 37  1  0
  7  8  1  0
  7  9  1  0
  7 38  1  6
  8 39  1  0
  8 40  1  0
  8 41  1  0
  9 10  1  0
  9 42  1  0
  9 43  1  0
 10 44  1  0
 10 67  1  0
 11 12  1  0
 12 22  1  0
 12 13  1  0
 12 45  1  1
 13 14  1  0
 13 46  1  0
 13 47  1  0
 14 29  1  0
 14 15  1  6
 14 16  1  0
 15 48  1  0
 15 49  1  0
 15 50  1  0
 16 17  1  0
 16 18  1  0
 16 51  1  6
 17 52  1  0
 17 53  1  0
 17 54  1  0
 18 19  1  0
 18 55  1  0
 18 56  1  0
 19 28  1  0
 19 20  1  1
 19 21  1  0
 20 57  1  0
 20 58  1  0
 20 59  1  0
 21 22  1  0
 22 23  1  1
 22 24  1  0
 23 60  1  0
 23 61  1  0
 23 62  1  0
 24 25  1  0
 25 28  1  0
 25 26  1  6
 25 29  1  0
 26 27  2  0
 26 63  1  0
 27 28  1  0
 27 64  1  0
 28 65  1  6
 29 66  1  6
M  CHG  1  10   1
M  END
>  <i_m_ct_stereo_status>  (228) 
1

>  <s_m_source_file>  (228) 
/var/tmp/pbs.5076255.sched01/tmprae_yccg/80g5h6lheg.sdf

>  <i_m_source_file_index>  (228) 
23

>  <i_lp_mmshare_version>  (228) 
48012

>  <i_f3d_flags>  (228) 
0

>  <s_epik_input>  (228) 
W05IXTFbQ0gyXVtDQEhdKFtDSDNdKVtDSDJdW0NIMl1bQ0BIXTFbQ0BASF0oT1tDQEBIXShbQ0gyXTIpW0NAQF0oTzMpKE80KVtDSDNdKUMoPVtDSDJdKVtDQEBIXTVbQ0BAXTIoW0NIM10pW0NAQEhdKFtDSDNdKVtDSDJdW0NAQF0zKFtDSDNdKVtDQEhdKFtDQF00NTYpW0NIXT1bQ0hdNg==

>  <s_epik_cmdline>  (228) 
J2VwaWtfcHl0aG9uJywgJy1waHQnLCAnMi4wJywgJy1waCcsICc3LjAnLCAnLXRuJywgJzgnLCAnLW1hJywgJzIwMCcsICctaW1hZScsICc8aW5maWxlLm1hZT4nLCAnLW9tYWUnLCAnPG91dGZpbGUubWFlPic=

>  <r_epik_Ionization_Penalty>  (228) 
0.000463384

>  <r_epik_Ionization_Penalty_Charging>  (228) 
0.000463384

>  <r_epik_Ionization_Penalty_Neutral>  (228) 
5.92012e-14

>  <r_epik_State_Penalty>  (228) 
0.000286824

>  <r_epik_Charging_Adjusted_Penalty>  (228) 
0.000750208

>  <i_epik_Tot_Q>  (228) 
1

>  <i_epik_Tot_abs_Q>  (228) 
1

>  <s_lp_Force_Field>  (228) 
OPLS3e

>  <r_lp_Energy>  (228) 
81.4244

>  <b_lp_Chiralities_Consistent>  (228) 
1

>  <s_lp_Variant>  (228) 
76:0-1

>  <s_i_glide_gridfile>  (228) 
pfpi4k_grid

>  <i_i_glide_lignum>  (228) 
23

>  <i_i_glide_rotatable_bonds>  (228) 
1

>  <r_i_docking_score>  (228) 
-2.29266

>  <r_i_glide_ligand_efficiency>  (228) 
-0.0790571

>  <r_i_glide_ligand_efficiency_sa>  (228) 
-0.242889

>  <r_i_glide_ligand_efficiency_ln>  (228) 
-0.52496

>  <r_i_glide_gscore>  (228) 
-2.29266

>  <r_i_glide_lipo>  (228) 
-0.30087

>  <r_i_glide_hbond>  (228) 
0

>  <r_i_glide_metal>  (228) 
-0

>  <r_i_glide_rewards>  (228) 
-0.685773

>  <r_i_glide_evdw>  (228) 
-23.8585

>  <r_i_glide_ecoul>  (228) 
-1.31635

>  <r_i_glide_erotb>  (228) 
0.122184

>  <r_i_glide_esite>  (228) 
-0.0378231

>  <r_i_glide_emodel>  (228) 
-26.1139

>  <r_i_glide_energy>  (228) 
-25.1748

>  <r_i_glide_einternal>  (228) 
3.88925

>  <r_i_glide_intrahb_reward>  (228) 
-0

>  <i_i_glide_confnum>  (228) 
2

>  <i_i_glide_posenum>  (228) 
38

>  <r_i_glide_eff_state_penalty>  (228) 
0

>  <ligand_id>  (228) 
76

>  <original_smiles>  (228) 
C=C1C(C2CCC(C)CN2)OC2CC3(C)C(C)CC4(C)OC2(C)OC2(C=CC42)C13

>  <smiles>  (228) 
[H]C([H])=C1C([H])(C2([H])C([H])([H])C([H])([H])C([H])(C([H])([H])[H])C([H])([H])[N+]2([H])[H])OC2([H])C([H])([H])C3(C([H])([H])[H])C1([H])C14OC2(C([H])([H])[H])OC(C([H])([H])[H])(C([H])([H])C3([H])C([H])([H])[H])C1([H])C([H])=C4[H]

$$$$
77:0:0
     RDKit          3D

 46 50  0  0  1  0  0  0  0  0999 V2000
    6.7997   -2.5290    1.2634 C   0  0  0  0  0  0  0  0  0  0  0  0
    5.6972   -3.2658    0.6447 N   0  0  2  0  0  0  0  0  0  0  0  0
    6.0939   -4.3362   -0.2908 C   0  0  1  0  0  0  0  0  0  0  0  0
    5.3252   -5.6268   -0.0331 C   0  0  0  0  0  0  0  0  0  0  0  0
    3.9571   -5.4256    0.6264 C   0  0  0  0  0  0  0  0  0  0  0  0
    2.9930   -4.4574   -0.0908 C   0  0  0  0  0  0  0  0  0  0  0  0
    3.4713   -3.0532   -0.5928 C   0  0  2  0  0  0  0  0  0  0  0  0
    3.4321   -2.9817   -2.1295 C   0  0  2  0  0  0  0  0  0  0  0  0
    4.7738   -3.6550   -2.5773 C   0  0  0  0  0  0  0  0  0  0  0  0
    5.7531   -3.3838   -1.4427 C   0  0  1  0  0  0  0  0  0  0  0  0
    4.9357   -2.6338   -0.4214 C   0  0  2  0  0  0  0  0  0  0  0  0
    5.0001   -1.1162   -0.5687 C   0  0  0  0  0  0  0  0  0  0  0  0
    4.5813   -0.7689   -1.9985 C   0  0  0  0  0  0  0  0  0  0  0  0
    3.3752   -1.5120   -2.4955 N   0  0  1  0  0  0  0  0  0  0  0  0
    3.0480   -1.2813   -3.9312 C   0  0  0  0  0  0  0  0  0  0  0  0
    2.9085    0.1873   -4.3158 C   0  0  0  0  0  0  0  0  0  0  0  0
    1.7226    0.6777   -5.1193 C   0  0  0  0  0  0  0  0  0  0  0  0
    3.0788    0.6199   -5.7367 C   0  0  0  0  0  0  0  0  0  0  0  0
    7.5386   -2.1506    0.5566 H   0  0  0  0  0  0  0  0  0  0  0  0
    7.2678   -3.2663    1.8903 H   0  0  0  0  0  0  0  0  0  0  0  0
    6.4241   -1.7084    1.8674 H   0  0  0  0  0  0  0  0  0  0  0  0
    7.1801   -4.4781   -0.2751 H   0  0  0  0  0  0  0  0  0  0  0  0
    5.1442   -6.1332   -0.9726 H   0  0  0  0  0  0  0  0  0  0  0  0
    5.9221   -6.3120    0.5736 H   0  0  0  0  0  0  0  0  0  0  0  0
    3.4808   -6.4069    0.6691 H   0  0  0  0  0  0  0  0  0  0  0  0
    4.0841   -5.1229    1.6692 H   0  0  0  0  0  0  0  0  0  0  0  0
    2.5003   -4.9777   -0.9017 H   0  0  0  0  0  0  0  0  0  0  0  0
    2.1705   -4.3007    0.5973 H   0  0  0  0  0  0  0  0  0  0  0  0
    2.7986   -2.3210   -0.1410 H   0  0  0  0  0  0  0  0  0  0  0  0
    2.5551   -3.4868   -2.5393 H   0  0  0  0  0  0  0  0  0  0  0  0
    4.6422   -4.7224   -2.6681 H   0  0  0  0  0  0  0  0  0  0  0  0
    5.1505   -3.3059   -3.5378 H   0  0  0  0  0  0  0  0  0  0  0  0
    6.6554   -2.8402   -1.7179 H   0  0  0  0  0  0  0  0  0  0  0  0
    4.3639   -0.6304    0.1703 H   0  0  0  0  0  0  0  0  0  0  0  0
    6.0012   -0.7291   -0.4250 H   0  0  0  0  0  0  0  0  0  0  0  0
    4.3959    0.2895   -2.0051 H   0  0  0  0  0  0  0  0  0  0  0  0
    5.4180   -0.9501   -2.6759 H   0  0  0  0  0  0  0  0  0  0  0  0
    3.8064   -1.7205   -4.5735 H   0  0  0  0  0  0  0  0  0  0  0  0
    2.1202   -1.8061   -4.1716 H   0  0  0  0  0  0  0  0  0  0  0  0
    3.3856    0.9105   -3.6637 H   0  0  0  0  0  0  0  0  0  0  0  0
    0.9971   -0.0457   -5.4764 H   0  0  0  0  0  0  0  0  0  0  0  0
    1.3298    1.6615   -4.8709 H   0  0  0  0  0  0  0  0  0  0  0  0
    3.5781    1.5738   -5.8567 H   0  0  0  0  0  0  0  0  0  0  0  0
    3.3046   -0.1298   -6.4965 H   0  0  0  0  0  0  0  0  0  0  0  0
    5.0557   -3.6560    1.3415 H   0  0  0  0  0  0  0  0  0  0  0  0
    2.5788   -1.1538   -1.9787 H   0  0  0  0  0  0  0  0  0  0  0  0
  1  2  1  0
  1 19  1  0
  1 20  1  0
  1 21  1  0
  2 11  1  0
  2  3  1  0
  2 45  1  1
  3 10  1  0
  3  4  1  0
  3 22  1  1
  4  5  1  0
  4 23  1  0
  4 24  1  0
  5  6  1  0
  5 25  1  0
  5 26  1  0
  6  7  1  0
  6 27  1  0
  6 28  1  0
  7 11  1  0
  7  8  1  0
  7 29  1  1
  8 14  1  0
  8  9  1  0
  8 30  1  6
  9 10  1  0
  9 31  1  0
  9 32  1  0
 10 11  1  0
 10 33  1  6
 11 12  1  6
 12 13  1  0
 12 34  1  0
 12 35  1  0
 13 14  1  0
 13 36  1  0
 13 37  1  0
 14 15  1  0
 14 46  1  1
 15 16  1  0
 15 38  1  0
 15 39  1  0
 16 18  1  0
 16 17  1  0
 16 40  1  0
 17 18  1  0
 17 41  1  0
 17 42  1  0
 18 43  1  0
 18 44  1  0
M  CHG  2   2   1  14   1
M  END
>  <i_m_ct_stereo_status>  (229) 
1

>  <s_m_source_file>  (229) 
/var/tmp/pbs.5076255.sched01/tmprae_yccg/80g5h6lheg.sdf

>  <i_m_source_file_index>  (229) 
24

>  <i_lp_mmshare_version>  (229) 
48012

>  <i_f3d_flags>  (229) 
0

>  <s_epik_input>  (229) 
W0NIMl0xW0NIMl1bQ0gyXVtDQEhdKE4yW0NIM10pW0NASF0zW0NIMl1bQ0BASF0oW0NAQEhdMVtDQEBdMjM0KU4oW0NIMl1bQ0gyXTQpW0NIMl1bQ0hdNVtDSDJdW0NIMl01

>  <s_epik_cmdline>  (229) 
J2VwaWtfcHl0aG9uJywgJy1waHQnLCAnMi4wJywgJy1waCcsICc3LjAnLCAnLXRuJywgJzgnLCAnLW1hJywgJzIwMCcsICctaW1hZScsICc8aW5maWxlLm1hZT4nLCAnLW9tYWUnLCAnPG91dGZpbGUubWFlPic=

>  <r_epik_Ionization_Penalty>  (229) 
0.0935263

>  <r_epik_Ionization_Penalty_Charging>  (229) 
0.0935263

>  <r_epik_Ionization_Penalty_Neutral>  (229) 
0

>  <r_epik_State_Penalty>  (229) 
0.0774651

>  <r_epik_Charging_Adjusted_Penalty>  (229) 
0.170991

>  <i_epik_Tot_Q>  (229) 
2

>  <i_epik_Tot_abs_Q>  (229) 
2

>  <s_lp_Force_Field>  (229) 
OPLS3e

>  <r_lp_Energy>  (229) 
71.095

>  <b_lp_Chiralities_Consistent>  (229) 
1

>  <s_lp_Variant>  (229) 
77:0-1

>  <s_i_glide_gridfile>  (229) 
pfpi4k_grid

>  <i_i_glide_lignum>  (229) 
24

>  <i_i_glide_rotatable_bonds>  (229) 
2

>  <r_i_docking_score>  (229) 
-3.67246

>  <r_i_glide_ligand_efficiency>  (229) 
-0.204026

>  <r_i_glide_ligand_efficiency_sa>  (229) 
-0.534699

>  <r_i_glide_ligand_efficiency_ln>  (229) 
-0.943988

>  <r_i_glide_gscore>  (229) 
-3.67246

>  <r_i_glide_lipo>  (229) 
-0.740246

>  <r_i_glide_hbond>  (229) 
-0.127918

>  <r_i_glide_metal>  (229) 
-0

>  <r_i_glide_rewards>  (229) 
-1.76541

>  <r_i_glide_evdw>  (229) 
-15.5555

>  <r_i_glide_ecoul>  (229) 
-5.09443

>  <r_i_glide_erotb>  (229) 
0.566168

>  <r_i_glide_esite>  (229) 
-0.0631228

>  <r_i_glide_emodel>  (229) 
-24.0507

>  <r_i_glide_energy>  (229) 
-20.6499

>  <r_i_glide_einternal>  (229) 
1.37888

>  <r_i_glide_intrahb_reward>  (229) 
-0

>  <i_i_glide_confnum>  (229) 
1

>  <i_i_glide_posenum>  (229) 
24

>  <r_i_glide_eff_state_penalty>  (229) 
0

>  <ligand_id>  (229) 
77

>  <original_smiles>  (229) 
CN1C2CCCC3C4CC2C31CCN4CC1CC1

>  <smiles>  (229) 
[H]C1([H])C([H])([H])C2([H])C3([H])C([H])([H])C4([H])C([H])(C1([H])[H])[N+]([H])(C([H])([H])[H])C24C([H])([H])C([H])([H])[N+]3([H])C([H])([H])C1([H])C([H])([H])C1([H])[H]

$$$$
77:0:1
     RDKit          3D

 46 50  0  0  1  0  0  0  0  0999 V2000
    6.6210   -5.1136    0.7955 C   0  0  0  0  0  0  0  0  0  0  0  0
    5.7202   -3.9777    1.1140 N   0  0  2  0  0  0  0  0  0  0  0  0
    4.3432   -4.3340    1.5063 C   0  0  1  0  0  0  0  0  0  0  0  0
    3.8749   -3.5718    2.7458 C   0  0  0  0  0  0  0  0  0  0  0  0
    4.5801   -2.2227    2.9490 C   0  0  0  0  0  0  0  0  0  0  0  0
    4.4968   -1.2352    1.7660 C   0  0  0  0  0  0  0  0  0  0  0  0
    4.8500   -1.6931    0.3066 C   0  0  2  0  0  0  0  0  0  0  0  0
    3.5953   -1.5777   -0.5880 C   0  0  2  0  0  0  0  0  0  0  0  0
    2.8044   -2.8813   -0.2381 C   0  0  0  0  0  0  0  0  0  0  0  0
    3.8774   -3.9212    0.1016 C   0  0  1  0  0  0  0  0  0  0  0  0
    5.1738   -3.1718    0.0101 C   0  0  2  0  0  0  0  0  0  0  0  0
    5.8311   -3.2257   -1.3745 C   0  0  0  0  0  0  0  0  0  0  0  0
    4.8197   -2.7285   -2.4458 C   0  0  0  0  0  0  0  0  0  0  0  0
    4.0473   -1.5248   -2.0169 N   0  0  1  0  0  0  0  0  0  0  0  0
    2.9732   -1.1247   -2.9659 C   0  0  0  0  0  0  0  0  0  0  0  0
    3.5112   -0.6883   -4.3228 C   0  0  0  0  0  0  0  0  0  0  0  0
    3.9270    0.7453   -4.5573 C   0  0  0  0  0  0  0  0  0  0  0  0
    2.6845    0.2162   -5.2143 C   0  0  0  0  0  0  0  0  0  0  0  0
    6.1902   -5.8155    0.0778 H   0  0  0  0  0  0  0  0  0  0  0  0
    6.8518   -5.6694    1.7048 H   0  0  0  0  0  0  0  0  0  0  0  0
    7.5688   -4.7460    0.3980 H   0  0  0  0  0  0  0  0  0  0  0  0
    4.2291   -5.4132    1.6237 H   0  0  0  0  0  0  0  0  0  0  0  0
    2.7972   -3.4100    2.6881 H   0  0  0  0  0  0  0  0  0  0  0  0
    4.0203   -4.1776    3.6413 H   0  0  0  0  0  0  0  0  0  0  0  0
    4.1346   -1.7399    3.8226 H   0  0  0  0  0  0  0  0  0  0  0  0
    5.6239   -2.3840    3.2250 H   0  0  0  0  0  0  0  0  0  0  0  0
    3.5050   -0.7802    1.7855 H   0  0  0  0  0  0  0  0  0  0  0  0
    5.1611   -0.4073    2.0170 H   0  0  0  0  0  0  0  0  0  0  0  0
    5.6369   -1.0280   -0.0522 H   0  0  0  0  0  0  0  0  0  0  0  0
    3.0226   -0.6792   -0.3523 H   0  0  0  0  0  0  0  0  0  0  0  0
    2.1766   -2.6842    0.6304 H   0  0  0  0  0  0  0  0  0  0  0  0
    2.1430   -3.2068   -1.0423 H   0  0  0  0  0  0  0  0  0  0  0  0
    3.8773   -4.7979   -0.5514 H   0  0  0  0  0  0  0  0  0  0  0  0
    6.7468   -2.6350   -1.3979 H   0  0  0  0  0  0  0  0  0  0  0  0
    6.1036   -4.2398   -1.6504 H   0  0  0  0  0  0  0  0  0  0  0  0
    5.3669   -2.5212   -3.3653 H   0  0  0  0  0  0  0  0  0  0  0  0
    4.1186   -3.5357   -2.6830 H   0  0  0  0  0  0  0  0  0  0  0  0
    2.2606   -1.9373   -3.1172 H   0  0  0  0  0  0  0  0  0  0  0  0
    2.4139   -0.2857   -2.5521 H   0  0  0  0  0  0  0  0  0  0  0  0
    4.0702   -1.4494   -4.8594 H   0  0  0  0  0  0  0  0  0  0  0  0
    3.8270    1.4312   -3.7256 H   0  0  0  0  0  0  0  0  0  0  0  0
    4.7582    0.9413   -5.2197 H   0  0  0  0  0  0  0  0  0  0  0  0
    2.7574    0.0860   -6.2903 H   0  0  0  0  0  0  0  0  0  0  0  0
    1.7298    0.5882   -4.8483 H   0  0  0  0  0  0  0  0  0  0  0  0
    6.1329   -3.3780    1.8156 H   0  0  0  0  0  0  0  0  0  0  0  0
    4.6884   -0.7489   -2.0376 H   0  0  0  0  0  0  0  0  0  0  0  0
  1  2  1  0
  1 19  1  0
  1 20  1  0
  1 21  1  0
  2 11  1  0
  2  3  1  0
  2 45  1  1
  3 10  1  0
  3  4  1  0
  3 22  1  1
  4  5  1  0
  4 23  1  0
  4 24  1  0
  5  6  1  0
  5 25  1  0
  5 26  1  0
  6  7  1  0
  6 27  1  0
  6 28  1  0
  7 11  1  0
  7  8  1  0
  7 29  1  6
  8 14  1  0
  8  9  1  0
  8 30  1  1
  9 10  1  0
  9 31  1  0
  9 32  1  0
 10 11  1  0
 10 33  1  6
 11 12  1  6
 12 13  1  0
 12 34  1  0
 12 35  1  0
 13 14  1  0
 13 36  1  0
 13 37  1  0
 14 15  1  0
 14 46  1  1
 15 16  1  0
 15 38  1  0
 15 39  1  0
 16 18  1  0
 16 17  1  0
 16 40  1  0
 17 18  1  0
 17 41  1  0
 17 42  1  0
 18 43  1  0
 18 44  1  0
M  CHG  2   2   1  14   1
M  END
>  <i_m_ct_stereo_status>  (230) 
1

>  <s_m_source_file>  (230) 
/var/tmp/pbs.5076255.sched01/tmprae_yccg/80g5h6lheg.sdf

>  <i_m_source_file_index>  (230) 
24

>  <i_lp_mmshare_version>  (230) 
48012

>  <i_f3d_flags>  (230) 
0

>  <s_epik_input>  (230) 
W0NIMl0xW0NIMl1bQ0gyXVtDQEhdKE4yW0NIM10pW0NASF0zW0NIMl1bQ0BASF0oW0NAQEhdMVtDQEBdMjM0KU4oW0NIMl1bQ0gyXTQpW0NIMl1bQ0hdNVtDSDJdW0NIMl01

>  <s_epik_cmdline>  (230) 
J2VwaWtfcHl0aG9uJywgJy1waHQnLCAnMi4wJywgJy1waCcsICc3LjAnLCAnLXRuJywgJzgnLCAnLW1hJywgJzIwMCcsICctaW1hZScsICc8aW5maWxlLm1hZT4nLCAnLW9tYWUnLCAnPG91dGZpbGUubWFlPic=

>  <r_epik_Ionization_Penalty>  (230) 
0.0935263

>  <r_epik_Ionization_Penalty_Charging>  (230) 
0.0935263

>  <r_epik_Ionization_Penalty_Neutral>  (230) 
0

>  <r_epik_State_Penalty>  (230) 
0.0774651

>  <r_epik_Charging_Adjusted_Penalty>  (230) 
0.170991

>  <i_epik_Tot_Q>  (230) 
2

>  <i_epik_Tot_abs_Q>  (230) 
2

>  <s_lp_Force_Field>  (230) 
OPLS3e

>  <r_lp_Energy>  (230) 
71.095

>  <b_lp_Chiralities_Consistent>  (230) 
1

>  <s_lp_Variant>  (230) 
77:0-1

>  <s_i_glide_gridfile>  (230) 
pfpi4k_grid

>  <i_i_glide_lignum>  (230) 
24

>  <i_i_glide_rotatable_bonds>  (230) 
2

>  <r_i_docking_score>  (230) 
-3.43534

>  <r_i_glide_ligand_efficiency>  (230) 
-0.190852

>  <r_i_glide_ligand_efficiency_sa>  (230) 
-0.500174

>  <r_i_glide_ligand_efficiency_ln>  (230) 
-0.883035

>  <r_i_glide_gscore>  (230) 
-3.43534

>  <r_i_glide_lipo>  (230) 
-0.81932

>  <r_i_glide_hbond>  (230) 
0

>  <r_i_glide_metal>  (230) 
-0

>  <r_i_glide_rewards>  (230) 
-1.71541

>  <r_i_glide_evdw>  (230) 
-17.7544

>  <r_i_glide_ecoul>  (230) 
-3.57758

>  <r_i_glide_erotb>  (230) 
0.566168

>  <r_i_glide_esite>  (230) 
-0.0424182

>  <r_i_glide_emodel>  (230) 
-25.7638

>  <r_i_glide_energy>  (230) 
-21.332

>  <r_i_glide_einternal>  (230) 
0.287975

>  <r_i_glide_intrahb_reward>  (230) 
-0

>  <i_i_glide_confnum>  (230) 
6

>  <i_i_glide_posenum>  (230) 
37

>  <r_i_glide_eff_state_penalty>  (230) 
0

>  <ligand_id>  (230) 
77

>  <original_smiles>  (230) 
CN1C2CCCC3C4CC2C31CCN4CC1CC1

>  <smiles>  (230) 
[H]C1([H])C([H])([H])C2([H])C3([H])C([H])([H])C4([H])C([H])(C1([H])[H])[N+]([H])(C([H])([H])[H])C24C([H])([H])C([H])([H])[N+]3([H])C([H])([H])C1([H])C([H])([H])C1([H])[H]

$$$$
77:0:2
     RDKit          3D

 46 50  0  0  1  0  0  0  0  0999 V2000
    5.5487   -5.9930    0.8867 C   0  0  0  0  0  0  0  0  0  0  0  0
    4.9039   -4.6892    1.1780 N   0  0  2  0  0  0  0  0  0  0  0  0
    3.4588   -4.7352    1.4712 C   0  0  1  0  0  0  0  0  0  0  0  0
    3.0835   -3.8987    2.6951 C   0  0  0  0  0  0  0  0  0  0  0  0
    4.0523   -2.7409    2.9770 C   0  0  0  0  0  0  0  0  0  0  0  0
    4.2698   -1.7482    1.8163 C   0  0  0  0  0  0  0  0  0  0  0  0
    4.6151   -2.2583    0.3718 C   0  0  2  0  0  0  0  0  0  0  0  0
    3.4810   -1.8662   -0.6016 C   0  0  2  0  0  0  0  0  0  0  0  0
    2.4161   -2.9764   -0.3357 C   0  0  0  0  0  0  0  0  0  0  0  0
    3.2022   -4.2222    0.0490 C   0  0  1  0  0  0  0  0  0  0  0  0
    4.6281   -3.7697    0.0637 C   0  0  2  0  0  0  0  0  0  0  0  0
    5.3475   -3.9537   -1.2771 C   0  0  0  0  0  0  0  0  0  0  0  0
    4.5457   -3.2353   -2.4004 C   0  0  0  0  0  0  0  0  0  0  0  0
    4.0298   -1.8917   -1.9966 N   0  0  1  0  0  0  0  0  0  0  0  0
    3.1307   -1.2571   -3.0042 C   0  0  0  0  0  0  0  0  0  0  0  0
    3.8642   -0.8416   -4.2793 C   0  0  0  0  0  0  0  0  0  0  0  0
    4.0229    0.6208   -4.6415 C   0  0  0  0  0  0  0  0  0  0  0  0
    3.0906   -0.2455   -5.4344 C   0  0  0  0  0  0  0  0  0  0  0  0
    5.0234   -6.5739    0.1234 H   0  0  0  0  0  0  0  0  0  0  0  0
    5.5883   -6.5954    1.7944 H   0  0  0  0  0  0  0  0  0  0  0  0
    6.5795   -5.8418    0.5611 H   0  0  0  0  0  0  0  0  0  0  0  0
    3.1013   -5.7631    1.5539 H   0  0  0  0  0  0  0  0  0  0  0  0
    2.0749   -3.5020    2.5705 H   0  0  0  0  0  0  0  0  0  0  0  0
    3.0275   -4.5290    3.5843 H   0  0  0  0  0  0  0  0  0  0  0  0
    3.6649   -2.1808    3.8311 H   0  0  0  0  0  0  0  0  0  0  0  0
    5.0127   -3.1332    3.3163 H   0  0  0  0  0  0  0  0  0  0  0  0
    3.4050   -1.0837    1.7816 H   0  0  0  0  0  0  0  0  0  0  0  0
    5.0821   -1.0923    2.1305 H   0  0  0  0  0  0  0  0  0  0  0  0
    5.5524   -1.7813    0.0808 H   0  0  0  0  0  0  0  0  0  0  0  0
    3.0850   -0.8735   -0.3809 H   0  0  0  0  0  0  0  0  0  0  0  0
    1.8158   -2.6459    0.5091 H   0  0  0  0  0  0  0  0  0  0  0  0
    1.7480   -3.1345   -1.1832 H   0  0  0  0  0  0  0  0  0  0  0  0
    3.0535   -5.0696   -0.6196 H   0  0  0  0  0  0  0  0  0  0  0  0
    6.3687   -3.5762   -1.2279 H   0  0  0  0  0  0  0  0  0  0  0  0
    5.4094   -5.0027   -1.5555 H   0  0  0  0  0  0  0  0  0  0  0  0
    5.1878   -3.1558   -3.2764 H   0  0  0  0  0  0  0  0  0  0  0  0
    3.7025   -3.8607   -2.7020 H   0  0  0  0  0  0  0  0  0  0  0  0
    2.3140   -1.9305   -3.2689 H   0  0  0  0  0  0  0  0  0  0  0  0
    2.6658   -0.3622   -2.5879 H   0  0  0  0  0  0  0  0  0  0  0  0
    4.6676   -1.4941   -4.5924 H   0  0  0  0  0  0  0  0  0  0  0  0
    3.5962    1.3497   -3.9723 H   0  0  0  0  0  0  0  0  0  0  0  0
    4.9213    0.9344   -5.1520 H   0  0  0  0  0  0  0  0  0  0  0  0
    3.4145   -0.4804   -6.4441 H   0  0  0  0  0  0  0  0  0  0  0  0
    2.0209   -0.0815   -5.3161 H   0  0  0  0  0  0  0  0  0  0  0  0
    5.3907   -4.2033    1.9202 H   0  0  0  0  0  0  0  0  0  0  0  0
    4.8263   -1.2798   -1.9513 H   0  0  0  0  0  0  0  0  0  0  0  0
  1  2  1  0
  1 19  1  0
  1 20  1  0
  1 21  1  0
  2 11  1  0
  2  3  1  0
  2 45  1  1
  3 10  1  0
  3  4  1  0
  3 22  1  1
  4  5  1  0
  4 23  1  0
  4 24  1  0
  5  6  1  0
  5 25  1  0
  5 26  1  0
  6  7  1  0
  6 27  1  0
  6 28  1  0
  7 11  1  0
  7  8  1  0
  7 29  1  6
  8 14  1  0
  8  9  1  0
  8 30  1  1
  9 10  1  0
  9 31  1  0
  9 32  1  0
 10 11  1  0
 10 33  1  6
 11 12  1  6
 12 13  1  0
 12 34  1  0
 12 35  1  0
 13 14  1  0
 13 36  1  0
 13 37  1  0
 14 15  1  0
 14 46  1  1
 15 16  1  0
 15 38  1  0
 15 39  1  0
 16 18  1  0
 16 17  1  0
 16 40  1  0
 17 18  1  0
 17 41  1  0
 17 42  1  0
 18 43  1  0
 18 44  1  0
M  CHG  2   2   1  14   1
M  END
>  <i_m_ct_stereo_status>  (231) 
1

>  <s_m_source_file>  (231) 
/var/tmp/pbs.5076255.sched01/tmprae_yccg/80g5h6lheg.sdf

>  <i_m_source_file_index>  (231) 
24

>  <i_lp_mmshare_version>  (231) 
48012

>  <i_f3d_flags>  (231) 
0

>  <s_epik_input>  (231) 
W0NIMl0xW0NIMl1bQ0gyXVtDQEhdKE4yW0NIM10pW0NASF0zW0NIMl1bQ0BASF0oW0NAQEhdMVtDQEBdMjM0KU4oW0NIMl1bQ0gyXTQpW0NIMl1bQ0hdNVtDSDJdW0NIMl01

>  <s_epik_cmdline>  (231) 
J2VwaWtfcHl0aG9uJywgJy1waHQnLCAnMi4wJywgJy1waCcsICc3LjAnLCAnLXRuJywgJzgnLCAnLW1hJywgJzIwMCcsICctaW1hZScsICc8aW5maWxlLm1hZT4nLCAnLW9tYWUnLCAnPG91dGZpbGUubWFlPic=

>  <r_epik_Ionization_Penalty>  (231) 
0.0935263

>  <r_epik_Ionization_Penalty_Charging>  (231) 
0.0935263

>  <r_epik_Ionization_Penalty_Neutral>  (231) 
0

>  <r_epik_State_Penalty>  (231) 
0.0774651

>  <r_epik_Charging_Adjusted_Penalty>  (231) 
0.170991

>  <i_epik_Tot_Q>  (231) 
2

>  <i_epik_Tot_abs_Q>  (231) 
2

>  <s_lp_Force_Field>  (231) 
OPLS3e

>  <r_lp_Energy>  (231) 
71.095

>  <b_lp_Chiralities_Consistent>  (231) 
1

>  <s_lp_Variant>  (231) 
77:0-1

>  <s_i_glide_gridfile>  (231) 
pfpi4k_grid

>  <i_i_glide_lignum>  (231) 
24

>  <i_i_glide_rotatable_bonds>  (231) 
2

>  <r_i_docking_score>  (231) 
-3.14855

>  <r_i_glide_ligand_efficiency>  (231) 
-0.174919

>  <r_i_glide_ligand_efficiency_sa>  (231) 
-0.458419

>  <r_i_glide_ligand_efficiency_ln>  (231) 
-0.809318

>  <r_i_glide_gscore>  (231) 
-3.14855

>  <r_i_glide_lipo>  (231) 
-0.513269

>  <r_i_glide_hbond>  (231) 
0

>  <r_i_glide_metal>  (231) 
-0

>  <r_i_glide_rewards>  (231) 
-1.71541

>  <r_i_glide_evdw>  (231) 
-15.3697

>  <r_i_glide_ecoul>  (231) 
-4.60122

>  <r_i_glide_erotb>  (231) 
0.566168

>  <r_i_glide_esite>  (231) 
-0.0273765

>  <r_i_glide_emodel>  (231) 
-23.8092

>  <r_i_glide_energy>  (231) 
-19.9709

>  <r_i_glide_einternal>  (231) 
0.490725

>  <r_i_glide_intrahb_reward>  (231) 
-0

>  <i_i_glide_confnum>  (231) 
6

>  <i_i_glide_posenum>  (231) 
1

>  <r_i_glide_eff_state_penalty>  (231) 
0

>  <ligand_id>  (231) 
77

>  <original_smiles>  (231) 
CN1C2CCCC3C4CC2C31CCN4CC1CC1

>  <smiles>  (231) 
[H]C1([H])C([H])([H])C2([H])C3([H])C([H])([H])C4([H])C([H])(C1([H])[H])[N+]([H])(C([H])([H])[H])C24C([H])([H])C([H])([H])[N+]3([H])C([H])([H])C1([H])C([H])([H])C1([H])[H]

$$$$
77:1:0
     RDKit          3D

 45 49  0  0  1  0  0  0  0  0999 V2000
    5.5128   -1.4684    2.5661 C   0  0  0  0  0  0  0  0  0  0  0  0
    4.8776   -2.4869    1.7383 N   0  0  2  0  0  0  0  0  0  0  0  0
    5.6661   -3.6811    1.4634 C   0  0  1  0  0  0  0  0  0  0  0  0
    4.8868   -4.9839    1.6643 C   0  0  0  0  0  0  0  0  0  0  0  0
    3.3723   -4.8222    1.4849 C   0  0  0  0  0  0  0  0  0  0  0  0
    2.9316   -4.2434    0.1288 C   0  0  0  0  0  0  0  0  0  0  0  0
    3.5427   -2.9037   -0.4091 C   0  0  2  0  0  0  0  0  0  0  0  0
    4.2476   -3.2140   -1.7488 C   0  0  2  0  0  0  0  0  0  0  0  0
    5.6177   -3.8227   -1.2847 C   0  0  0  0  0  0  0  0  0  0  0  0
    5.9195   -3.1391    0.0501 C   0  0  1  0  0  0  0  0  0  0  0  0
    4.7491   -2.2662    0.3090 C   0  0  2  0  0  0  0  0  0  0  0  0
    4.8619   -0.8408   -0.2569 C   0  0  0  0  0  0  0  0  0  0  0  0
    5.2100   -0.9464   -1.7751 C   0  0  0  0  0  0  0  0  0  0  0  0
    4.4587   -1.9644   -2.5209 N   0  0  0  0  0  0  0  0  0  0  0  0
    3.2032   -1.4270   -3.0623 C   0  0  0  0  0  0  0  0  0  0  0  0
    3.4514   -0.7434   -4.3914 C   0  0  0  0  0  0  0  0  0  0  0  0
    3.9202    0.6914   -4.5190 C   0  0  0  0  0  0  0  0  0  0  0  0
    2.5137    0.3416   -4.8758 C   0  0  0  0  0  0  0  0  0  0  0  0
    6.5077   -1.1715    2.2022 H   0  0  0  0  0  0  0  0  0  0  0  0
    5.6407   -1.8294    3.5933 H   0  0  0  0  0  0  0  0  0  0  0  0
    4.8976   -0.5591    2.6224 H   0  0  0  0  0  0  0  0  0  0  0  0
    6.6176   -3.6958    2.0100 H   0  0  0  0  0  0  0  0  0  0  0  0
    5.2478   -5.7486    0.9649 H   0  0  0  0  0  0  0  0  0  0  0  0
    5.0827   -5.3952    2.6530 H   0  0  0  0  0  0  0  0  0  0  0  0
    2.9153   -5.8090    1.5898 H   0  0  0  0  0  0  0  0  0  0  0  0
    2.9522   -4.2325    2.3003 H   0  0  0  0  0  0  0  0  0  0  0  0
    3.0431   -5.0281   -0.6169 H   0  0  0  0  0  0  0  0  0  0  0  0
    1.8599   -4.0915    0.1895 H   0  0  0  0  0  0  0  0  0  0  0  0
    2.7199   -2.2063   -0.5403 H   0  0  0  0  0  0  0  0  0  0  0  0
    3.6964   -3.9091   -2.3800 H   0  0  0  0  0  0  0  0  0  0  0  0
    5.4834   -4.8971   -1.1407 H   0  0  0  0  0  0  0  0  0  0  0  0
    6.4000   -3.6894   -2.0222 H   0  0  0  0  0  0  0  0  0  0  0  0
    6.8546   -2.5608    0.0468 H   0  0  0  0  0  0  0  0  0  0  0  0
    3.9474   -0.2763   -0.1031 H   0  0  0  0  0  0  0  0  0  0  0  0
    5.6625   -0.2805    0.2163 H   0  0  0  0  0  0  0  0  0  0  0  0
    5.1424    0.0289   -2.2428 H   0  0  0  0  0  0  0  0  0  0  0  0
    6.2430   -1.2565   -1.8641 H   0  0  0  0  0  0  0  0  0  0  0  0
    2.4935   -2.2324   -3.2546 H   0  0  0  0  0  0  0  0  0  0  0  0
    2.7294   -0.7391   -2.3567 H   0  0  0  0  0  0  0  0  0  0  0  0
    3.7893   -1.4326   -5.1680 H   0  0  0  0  0  0  0  0  0  0  0  0
    4.0680    1.2795   -3.6166 H   0  0  0  0  0  0  0  0  0  0  0  0
    4.5984    0.9175   -5.3302 H   0  0  0  0  0  0  0  0  0  0  0  0
    2.2577    0.3880   -5.9159 H   0  0  0  0  0  0  0  0  0  0  0  0
    1.7422    0.6790   -4.2002 H   0  0  0  0  0  0  0  0  0  0  0  0
    3.9679   -2.7546    2.1274 H   0  0  0  0  0  0  0  0  0  0  0  0
  1  2  1  0
  1 19  1  0
  1 20  1  0
  1 21  1  0
  2 11  1  0
  2  3  1  0
  2 45  1  1
  3 10  1  0
  3  4  1  0
  3 22  1  1
  4  5  1  0
  4 23  1  0
  4 24  1  0
  5  6  1  0
  5 25  1  0
  5 26  1  0
  6  7  1  0
  6 27  1  0
  6 28  1  0
  7 11  1  0
  7  8  1  0
  7 29  1  6
  8 14  1  0
  8  9  1  0
  8 30  1  6
  9 10  1  0
  9 31  1  0
  9 32  1  0
 10 11  1  0
 10 33  1  1
 11 12  1  1
 12 13  1  0
 12 34  1  0
 12 35  1  0
 13 14  1  0
 13 36  1  0
 13 37  1  0
 14 15  1  0
 15 16  1  0
 15 38  1  0
 15 39  1  0
 16 18  1  0
 16 17  1  0
 16 40  1  0
 17 18  1  0
 17 41  1  0
 17 42  1  0
 18 43  1  0
 18 44  1  0
M  CHG  1   2   1
M  END
>  <i_m_ct_stereo_status>  (232) 
1

>  <s_m_source_file>  (232) 
/var/tmp/pbs.5076255.sched01/tmprae_yccg/80g5h6lheg.sdf

>  <i_m_source_file_index>  (232) 
25

>  <i_lp_mmshare_version>  (232) 
48012

>  <i_f3d_flags>  (232) 
0

>  <s_epik_input>  (232) 
W0NIMl0xW0NIMl1bQ0gyXVtDQEhdKE4yW0NIM10pW0NASF0zW0NIMl1bQ0BASF0oW0NAQEhdMVtDQEBdMjM0KU4oW0NIMl1bQ0gyXTQpW0NIMl1bQ0hdNVtDSDJdW0NIMl01

>  <s_epik_cmdline>  (232) 
J2VwaWtfcHl0aG9uJywgJy1waHQnLCAnMi4wJywgJy1waCcsICc3LjAnLCAnLXRuJywgJzgnLCAnLW1hJywgJzIwMCcsICctaW1hZScsICc8aW5maWxlLm1hZT4nLCAnLW9tYWUnLCAnPG91dGZpbGUubWFlPic=

>  <r_epik_Ionization_Penalty>  (232) 
1.39648

>  <r_epik_Ionization_Penalty_Charging>  (232) 
5.45537e-05

>  <r_epik_Ionization_Penalty_Neutral>  (232) 
1.39643

>  <r_epik_State_Penalty>  (232) 
1.50466

>  <r_epik_Charging_Adjusted_Penalty>  (232) 
1.50471

>  <i_epik_Tot_Q>  (232) 
1

>  <i_epik_Tot_abs_Q>  (232) 
1

>  <s_lp_Force_Field>  (232) 
OPLS3e

>  <r_lp_Energy>  (232) 
67.8338

>  <b_lp_Chiralities_Consistent>  (232) 
1

>  <s_lp_Variant>  (232) 
77:0-2

>  <s_i_glide_gridfile>  (232) 
pfpi4k_grid

>  <i_i_glide_lignum>  (232) 
25

>  <i_i_glide_rotatable_bonds>  (232) 
2

>  <r_i_docking_score>  (232) 
-3.12141

>  <r_i_glide_ligand_efficiency>  (232) 
-0.173411

>  <r_i_glide_ligand_efficiency_sa>  (232) 
-0.454467

>  <r_i_glide_ligand_efficiency_ln>  (232) 
-0.802341

>  <r_i_glide_gscore>  (232) 
-3.12141

>  <r_i_glide_lipo>  (232) 
-0.586917

>  <r_i_glide_hbond>  (232) 
0

>  <r_i_glide_metal>  (232) 
-0

>  <r_i_glide_rewards>  (232) 
-1.72228

>  <r_i_glide_evdw>  (232) 
-19.5144

>  <r_i_glide_ecoul>  (232) 
-2.71075

>  <r_i_glide_erotb>  (232) 
0.570124

>  <r_i_glide_esite>  (232) 
0

>  <r_i_glide_emodel>  (232) 
-24.8417

>  <r_i_glide_energy>  (232) 
-22.2252

>  <r_i_glide_einternal>  (232) 
1.64826

>  <r_i_glide_intrahb_reward>  (232) 
-0

>  <i_i_glide_confnum>  (232) 
1

>  <i_i_glide_posenum>  (232) 
31

>  <r_i_glide_eff_state_penalty>  (232) 
0

>  <ligand_id>  (232) 
77

>  <original_smiles>  (232) 
CN1C2CCCC3C4CC2C31CCN4CC1CC1

>  <smiles>  (232) 
[H]C1([H])N(C([H])([H])C2([H])C([H])([H])C2([H])[H])C2([H])C([H])([H])C3([H])C4([H])C([H])([H])C([H])([H])C([H])([H])C2([H])C3(C1([H])[H])[N+]4([H])C([H])([H])[H]

$$$$
77:1:1
     RDKit          3D

 45 49  0  0  1  0  0  0  0  0999 V2000
    5.5529   -2.3099    1.9490 C   0  0  0  0  0  0  0  0  0  0  0  0
    4.6728   -2.9370    0.9339 N   0  0  2  0  0  0  0  0  0  0  0  0
    5.1894   -4.1693    0.3125 C   0  0  1  0  0  0  0  0  0  0  0  0
    4.1281   -5.2683    0.2557 C   0  0  0  0  0  0  0  0  0  0  0  0
    2.6890   -4.7299    0.2014 C   0  0  0  0  0  0  0  0  0  0  0  0
    2.3784   -3.7187   -0.9263 C   0  0  0  0  0  0  0  0  0  0  0  0
    3.2902   -2.4855   -1.1637 C   0  0  2  0  0  0  0  0  0  0  0  0
    3.9028   -2.6160   -2.5728 C   0  0  2  0  0  0  0  0  0  0  0  0
    5.1061   -3.5943   -2.3638 C   0  0  0  0  0  0  0  0  0  0  0  0
    5.5542   -3.3495   -0.9166 C   0  0  1  0  0  0  0  0  0  0  0  0
    4.5948   -2.3267   -0.3808 C   0  0  2  0  0  0  0  0  0  0  0  0
    5.0103   -0.8743   -0.5612 C   0  0  0  0  0  0  0  0  0  0  0  0
    5.3190   -0.6986   -2.0715 C   0  0  0  0  0  0  0  0  0  0  0  0
    4.3811   -1.3016   -3.0253 N   0  0  0  0  0  0  0  0  0  0  0  0
    3.2722   -0.4178   -3.4255 C   0  0  0  0  0  0  0  0  0  0  0  0
    3.7036    0.7694   -4.2513 C   0  0  0  0  0  0  0  0  0  0  0  0
    2.7167    1.5161   -5.1242 C   0  0  0  0  0  0  0  0  0  0  0  0
    3.7639    0.6299   -5.7247 C   0  0  0  0  0  0  0  0  0  0  0  0
    6.5821   -2.1611    1.6013 H   0  0  0  0  0  0  0  0  0  0  0  0
    5.5836   -2.9416    2.8320 H   0  0  0  0  0  0  0  0  0  0  0  0
    5.1448   -1.3468    2.2477 H   0  0  0  0  0  0  0  0  0  0  0  0
    6.1176   -4.4968    0.7827 H   0  0  0  0  0  0  0  0  0  0  0  0
    4.3098   -5.8763   -0.6242 H   0  0  0  0  0  0  0  0  0  0  0  0
    4.2318   -5.9461    1.1073 H   0  0  0  0  0  0  0  0  0  0  0  0
    2.0308   -5.5890    0.0769 H   0  0  0  0  0  0  0  0  0  0  0  0
    2.4187   -4.3066    1.1720 H   0  0  0  0  0  0  0  0  0  0  0  0
    2.2237   -4.2335   -1.8784 H   0  0  0  0  0  0  0  0  0  0  0  0
    1.3984   -3.3137   -0.7149 H   0  0  0  0  0  0  0  0  0  0  0  0
    2.6704   -1.5990   -1.0539 H   0  0  0  0  0  0  0  0  0  0  0  0
    3.1987   -2.9913   -3.3137 H   0  0  0  0  0  0  0  0  0  0  0  0
    4.7512   -4.6185   -2.4870 H   0  0  0  0  0  0  0  0  0  0  0  0
    5.9053   -3.4393   -3.0910 H   0  0  0  0  0  0  0  0  0  0  0  0
    6.5891   -3.0096   -0.7986 H   0  0  0  0  0  0  0  0  0  0  0  0
    4.2329   -0.1936   -0.2151 H   0  0  0  0  0  0  0  0  0  0  0  0
    5.9195   -0.6352   -0.0104 H   0  0  0  0  0  0  0  0  0  0  0  0
    5.4757    0.3286   -2.3566 H   0  0  0  0  0  0  0  0  0  0  0  0
    6.2507   -1.2276   -2.2793 H   0  0  0  0  0  0  0  0  0  0  0  0
    2.5607   -0.9907   -4.0174 H   0  0  0  0  0  0  0  0  0  0  0  0
    2.7328   -0.0646   -2.5590 H   0  0  0  0  0  0  0  0  0  0  0  0
    4.4112    1.4490   -3.7889 H   0  0  0  0  0  0  0  0  0  0  0  0
    1.6835    1.1880   -5.1384 H   0  0  0  0  0  0  0  0  0  0  0  0
    2.8728    2.5882   -5.1879 H   0  0  0  0  0  0  0  0  0  0  0  0
    4.6129    1.1183   -6.1114 H   0  0  0  0  0  0  0  0  0  0  0  0
    3.4634   -0.3045   -6.1894 H   0  0  0  0  0  0  0  0  0  0  0  0
    3.7259   -3.0870    1.2686 H   0  0  0  0  0  0  0  0  0  0  0  0
  1  2  1  0
  1 19  1  0
  1 20  1  0
  1 21  1  0
  2 11  1  0
  2  3  1  0
  2 45  1  1
  3 10  1  0
  3  4  1  0
  3 22  1  1
  4  5  1  0
  4 23  1  0
  4 24  1  0
  5  6  1  0
  5 25  1  0
  5 26  1  0
  6  7  1  0
  6 27  1  0
  6 28  1  0
  7 11  1  0
  7  8  1  0
  7 29  1  6
  8 14  1  0
  8  9  1  0
  8 30  1  6
  9 10  1  0
  9 31  1  0
  9 32  1  0
 10 11  1  0
 10 33  1  6
 11 12  1  1
 12 13  1  0
 12 34  1  0
 12 35  1  0
 13 14  1  0
 13 36  1  0
 13 37  1  0
 14 15  1  0
 15 16  1  0
 15 38  1  0
 15 39  1  0
 16 18  1  0
 16 17  1  0
 16 40  1  0
 17 18  1  0
 17 41  1  0
 17 42  1  0
 18 43  1  0
 18 44  1  0
M  CHG  1   2   1
M  END
>  <i_m_ct_stereo_status>  (233) 
1

>  <s_m_source_file>  (233) 
/var/tmp/pbs.5076255.sched01/tmprae_yccg/80g5h6lheg.sdf

>  <i_m_source_file_index>  (233) 
25

>  <i_lp_mmshare_version>  (233) 
48012

>  <i_f3d_flags>  (233) 
0

>  <s_epik_input>  (233) 
W0NIMl0xW0NIMl1bQ0gyXVtDQEhdKE4yW0NIM10pW0NASF0zW0NIMl1bQ0BASF0oW0NAQEhdMVtDQEBdMjM0KU4oW0NIMl1bQ0gyXTQpW0NIMl1bQ0hdNVtDSDJdW0NIMl01

>  <s_epik_cmdline>  (233) 
J2VwaWtfcHl0aG9uJywgJy1waHQnLCAnMi4wJywgJy1waCcsICc3LjAnLCAnLXRuJywgJzgnLCAnLW1hJywgJzIwMCcsICctaW1hZScsICc8aW5maWxlLm1hZT4nLCAnLW9tYWUnLCAnPG91dGZpbGUubWFlPic=

>  <r_epik_Ionization_Penalty>  (233) 
1.39648

>  <r_epik_Ionization_Penalty_Charging>  (233) 
5.45537e-05

>  <r_epik_Ionization_Penalty_Neutral>  (233) 
1.39643

>  <r_epik_State_Penalty>  (233) 
1.50466

>  <r_epik_Charging_Adjusted_Penalty>  (233) 
1.50471

>  <i_epik_Tot_Q>  (233) 
1

>  <i_epik_Tot_abs_Q>  (233) 
1

>  <s_lp_Force_Field>  (233) 
OPLS3e

>  <r_lp_Energy>  (233) 
67.8338

>  <b_lp_Chiralities_Consistent>  (233) 
1

>  <s_lp_Variant>  (233) 
77:0-2

>  <s_i_glide_gridfile>  (233) 
pfpi4k_grid

>  <i_i_glide_lignum>  (233) 
25

>  <i_i_glide_rotatable_bonds>  (233) 
2

>  <r_i_docking_score>  (233) 
-3.03281

>  <r_i_glide_ligand_efficiency>  (233) 
-0.168489

>  <r_i_glide_ligand_efficiency_sa>  (233) 
-0.441567

>  <r_i_glide_ligand_efficiency_ln>  (233) 
-0.779567

>  <r_i_glide_gscore>  (233) 
-3.03281

>  <r_i_glide_lipo>  (233) 
-0.597926

>  <r_i_glide_hbond>  (233) 
0

>  <r_i_glide_metal>  (233) 
-0

>  <r_i_glide_rewards>  (233) 
-1.79121

>  <r_i_glide_evdw>  (233) 
-14.3143

>  <r_i_glide_ecoul>  (233) 
-3.32052

>  <r_i_glide_erotb>  (233) 
0.570124

>  <r_i_glide_esite>  (233) 
0

>  <r_i_glide_emodel>  (233) 
-20.5751

>  <r_i_glide_energy>  (233) 
-17.6348

>  <r_i_glide_einternal>  (233) 
0.3461

>  <r_i_glide_intrahb_reward>  (233) 
-0

>  <i_i_glide_confnum>  (233) 
3

>  <i_i_glide_posenum>  (233) 
23

>  <r_i_glide_eff_state_penalty>  (233) 
0

>  <ligand_id>  (233) 
77

>  <original_smiles>  (233) 
CN1C2CCCC3C4CC2C31CCN4CC1CC1

>  <smiles>  (233) 
[H]C1([H])N(C([H])([H])C2([H])C([H])([H])C2([H])[H])C2([H])C([H])([H])C3([H])C4([H])C([H])([H])C([H])([H])C([H])([H])C2([H])C3(C1([H])[H])[N+]4([H])C([H])([H])[H]

$$$$
77:1:2
     RDKit          3D

 45 49  0  0  1  0  0  0  0  0999 V2000
    6.2949   -1.1018    1.9001 C   0  0  0  0  0  0  0  0  0  0  0  0
    5.1322   -1.9582    1.5921 N   0  0  2  0  0  0  0  0  0  0  0  0
    5.3582   -3.4153    1.6467 C   0  0  1  0  0  0  0  0  0  0  0  0
    4.2391   -4.1423    2.3920 C   0  0  0  0  0  0  0  0  0  0  0  0
    2.8988   -3.4024    2.3655 C   0  0  0  0  0  0  0  0  0  0  0  0
    2.3700   -3.0587    0.9622 C   0  0  0  0  0  0  0  0  0  0  0  0
    3.2624   -2.3292   -0.0868 C   0  0  2  0  0  0  0  0  0  0  0  0
    3.4372   -3.2401   -1.3269 C   0  0  2  0  0  0  0  0  0  0  0  0
    4.5538   -4.2347   -0.8567 C   0  0  0  0  0  0  0  0  0  0  0  0
    5.4238   -3.4279    0.1187 C   0  0  1  0  0  0  0  0  0  0  0  0
    4.7424   -2.0949    0.1923 C   0  0  2  0  0  0  0  0  0  0  0  0
    5.2127   -1.0707   -0.8236 C   0  0  0  0  0  0  0  0  0  0  0  0
    5.1381   -1.7094   -2.2266 C   0  0  0  0  0  0  0  0  0  0  0  0
    3.8922   -2.4534   -2.4931 N   0  0  0  0  0  0  0  0  0  0  0  0
    2.8114   -1.6057   -3.0253 C   0  0  0  0  0  0  0  0  0  0  0  0
    3.1862   -0.9429   -4.3402 C   0  0  0  0  0  0  0  0  0  0  0  0
    3.8103    0.4380   -4.3789 C   0  0  0  0  0  0  0  0  0  0  0  0
    2.4053    0.2484   -4.8665 C   0  0  0  0  0  0  0  0  0  0  0  0
    7.1896   -1.3708    1.3441 H   0  0  0  0  0  0  0  0  0  0  0  0
    6.5205   -1.1577    2.9506 H   0  0  0  0  0  0  0  0  0  0  0  0
    6.0599   -0.0656    1.7005 H   0  0  0  0  0  0  0  0  0  0  0  0
    6.3460   -3.6658    2.0339 H   0  0  0  0  0  0  0  0  0  0  0  0
    4.1101   -5.1337    1.9597 H   0  0  0  0  0  0  0  0  0  0  0  0
    4.5256   -4.3179    3.4287 H   0  0  0  0  0  0  0  0  0  0  0  0
    2.1543   -4.0301    2.8579 H   0  0  0  0  0  0  0  0  0  0  0  0
    2.9439   -2.4964    2.9720 H   0  0  0  0  0  0  0  0  0  0  0  0
    1.9878   -3.9837    0.5260 H   0  0  0  0  0  0  0  0  0  0  0  0
    1.5001   -2.4222    1.1245 H   0  0  0  0  0  0  0  0  0  0  0  0
    2.7692   -1.3859   -0.3099 H   0  0  0  0  0  0  0  0  0  0  0  0
    2.5187   -3.7778   -1.5974 H   0  0  0  0  0  0  0  0  0  0  0  0
    4.0937   -5.0762   -0.3420 H   0  0  0  0  0  0  0  0  0  0  0  0
    5.1198   -4.6476   -1.6911 H   0  0  0  0  0  0  0  0  0  0  0  0
    6.4611   -3.3027   -0.1953 H   0  0  0  0  0  0  0  0  0  0  0  0
    4.6090   -0.1663   -0.7710 H   0  0  0  0  0  0  0  0  0  0  0  0
    6.2393   -0.7768   -0.6543 H   0  0  0  0  0  0  0  0  0  0  0  0
    5.3297   -0.9531   -2.9709 H   0  0  0  0  0  0  0  0  0  0  0  0
    5.9494   -2.4297   -2.3461 H   0  0  0  0  0  0  0  0  0  0  0  0
    1.9399   -2.2395   -3.2202 H   0  0  0  0  0  0  0  0  0  0  0  0
    2.5100   -0.8334   -2.3197 H   0  0  0  0  0  0  0  0  0  0  0  0
    3.5098   -1.6455   -5.1040 H   0  0  0  0  0  0  0  0  0  0  0  0
    3.9617    0.9455   -3.4273 H   0  0  0  0  0  0  0  0  0  0  0  0
    4.5774    0.6223   -5.1246 H   0  0  0  0  0  0  0  0  0  0  0  0
    2.2593    0.3297   -5.9317 H   0  0  0  0  0  0  0  0  0  0  0  0
    1.6182    0.7040   -4.2782 H   0  0  0  0  0  0  0  0  0  0  0  0
    4.3321   -1.7083    2.1469 H   0  0  0  0  0  0  0  0  0  0  0  0
  1  2  1  0
  1 19  1  0
  1 20  1  0
  1 21  1  0
  2 11  1  0
  2  3  1  0
  2 45  1  1
  3 10  1  0
  3  4  1  0
  3 22  1  1
  4  5  1  0
  4 23  1  0
  4 24  1  0
  5  6  1  0
  5 25  1  0
  5 26  1  0
  6  7  1  0
  6 27  1  0
  6 28  1  0
  7 11  1  0
  7  8  1  0
  7 29  1  6
  8 14  1  0
  8  9  1  0
  8 30  1  6
  9 10  1  0
  9 31  1  0
  9 32  1  0
 10 11  1  0
 10 33  1  1
 11 12  1  6
 12 13  1  0
 12 34  1  0
 12 35  1  0
 13 14  1  0
 13 36  1  0
 13 37  1  0
 14 15  1  0
 15 16  1  0
 15 38  1  0
 15 39  1  0
 16 18  1  0
 16 17  1  0
 16 40  1  0
 17 18  1  0
 17 41  1  0
 17 42  1  0
 18 43  1  0
 18 44  1  0
M  CHG  1   2   1
M  END
>  <i_m_ct_stereo_status>  (234) 
1

>  <s_m_source_file>  (234) 
/var/tmp/pbs.5076255.sched01/tmprae_yccg/80g5h6lheg.sdf

>  <i_m_source_file_index>  (234) 
25

>  <i_lp_mmshare_version>  (234) 
48012

>  <i_f3d_flags>  (234) 
0

>  <s_epik_input>  (234) 
W0NIMl0xW0NIMl1bQ0gyXVtDQEhdKE4yW0NIM10pW0NASF0zW0NIMl1bQ0BASF0oW0NAQEhdMVtDQEBdMjM0KU4oW0NIMl1bQ0gyXTQpW0NIMl1bQ0hdNVtDSDJdW0NIMl01

>  <s_epik_cmdline>  (234) 
J2VwaWtfcHl0aG9uJywgJy1waHQnLCAnMi4wJywgJy1waCcsICc3LjAnLCAnLXRuJywgJzgnLCAnLW1hJywgJzIwMCcsICctaW1hZScsICc8aW5maWxlLm1hZT4nLCAnLW9tYWUnLCAnPG91dGZpbGUubWFlPic=

>  <r_epik_Ionization_Penalty>  (234) 
1.39648

>  <r_epik_Ionization_Penalty_Charging>  (234) 
5.45537e-05

>  <r_epik_Ionization_Penalty_Neutral>  (234) 
1.39643

>  <r_epik_State_Penalty>  (234) 
1.50466

>  <r_epik_Charging_Adjusted_Penalty>  (234) 
1.50471

>  <i_epik_Tot_Q>  (234) 
1

>  <i_epik_Tot_abs_Q>  (234) 
1

>  <s_lp_Force_Field>  (234) 
OPLS3e

>  <r_lp_Energy>  (234) 
67.8338

>  <b_lp_Chiralities_Consistent>  (234) 
1

>  <s_lp_Variant>  (234) 
77:0-2

>  <s_i_glide_gridfile>  (234) 
pfpi4k_grid

>  <i_i_glide_lignum>  (234) 
25

>  <i_i_glide_rotatable_bonds>  (234) 
2

>  <r_i_docking_score>  (234) 
-2.76203

>  <r_i_glide_ligand_efficiency>  (234) 
-0.153446

>  <r_i_glide_ligand_efficiency_sa>  (234) 
-0.402142

>  <r_i_glide_ligand_efficiency_ln>  (234) 
-0.709965

>  <r_i_glide_gscore>  (234) 
-2.76203

>  <r_i_glide_lipo>  (234) 
-0.434792

>  <r_i_glide_hbond>  (234) 
0

>  <r_i_glide_metal>  (234) 
-0

>  <r_i_glide_rewards>  (234) 
-1.72228

>  <r_i_glide_evdw>  (234) 
-16.9488

>  <r_i_glide_ecoul>  (234) 
-2.18426

>  <r_i_glide_erotb>  (234) 
0.570124

>  <r_i_glide_esite>  (234) 
0

>  <r_i_glide_emodel>  (234) 
-21.7487

>  <r_i_glide_energy>  (234) 
-19.1331

>  <r_i_glide_einternal>  (234) 
0.513935

>  <r_i_glide_intrahb_reward>  (234) 
-0

>  <i_i_glide_confnum>  (234) 
5

>  <i_i_glide_posenum>  (234) 
35

>  <r_i_glide_eff_state_penalty>  (234) 
0

>  <ligand_id>  (234) 
77

>  <original_smiles>  (234) 
CN1C2CCCC3C4CC2C31CCN4CC1CC1

>  <smiles>  (234) 
[H]C1([H])N(C([H])([H])C2([H])C([H])([H])C2([H])[H])C2([H])C([H])([H])C3([H])C4([H])C([H])([H])C([H])([H])C([H])([H])C2([H])C3(C1([H])[H])[N+]4([H])C([H])([H])[H]

$$$$
77:2:0
     RDKit          3D

 45 49  0  0  1  0  0  0  0  0999 V2000
    6.3069   -5.3168    0.8040 C   0  0  0  0  0  0  0  0  0  0  0  0
    5.5379   -4.1221    1.1454 N   0  0  0  0  0  0  0  0  0  0  0  0
    4.1616   -4.4109    1.5874 C   0  0  1  0  0  0  0  0  0  0  0  0
    3.8070   -3.6014    2.8371 C   0  0  0  0  0  0  0  0  0  0  0  0
    4.6086   -2.2964    2.9861 C   0  0  0  0  0  0  0  0  0  0  0  0
    4.5516   -1.3192    1.7924 C   0  0  0  0  0  0  0  0  0  0  0  0
    4.8162   -1.8119    0.3256 C   0  0  2  0  0  0  0  0  0  0  0  0
    3.5436   -1.6214   -0.5219 C   0  0  2  0  0  0  0  0  0  0  0  0
    2.6777   -2.8564   -0.1166 C   0  0  0  0  0  0  0  0  0  0  0  0
    3.6879   -3.9697    0.1874 C   0  0  1  0  0  0  0  0  0  0  0  0
    5.0369   -3.3084    0.0371 C   0  0  2  0  0  0  0  0  0  0  0  0
    5.6268   -3.4305   -1.3742 C   0  0  0  0  0  0  0  0  0  0  0  0
    4.6102   -2.8834   -2.4079 C   0  0  0  0  0  0  0  0  0  0  0  0
    3.9517   -1.6192   -1.9649 N   0  0  1  0  0  0  0  0  0  0  0  0
    2.8778   -1.1507   -2.8791 C   0  0  0  0  0  0  0  0  0  0  0  0
    3.4018   -0.7304   -4.2426 C   0  0  0  0  0  0  0  0  0  0  0  0
    3.8695    0.6875   -4.4696 C   0  0  0  0  0  0  0  0  0  0  0  0
    2.5953    0.2201   -5.1083 C   0  0  0  0  0  0  0  0  0  0  0  0
    6.5364   -5.8698    1.7164 H   0  0  0  0  0  0  0  0  0  0  0  0
    7.2610   -5.0153    0.3653 H   0  0  0  0  0  0  0  0  0  0  0  0
    5.7954   -5.9910    0.1093 H   0  0  0  0  0  0  0  0  0  0  0  0
    4.0327   -5.4889    1.7108 H   0  0  0  0  0  0  0  0  0  0  0  0
    2.7410   -3.3770    2.8462 H   0  0  0  0  0  0  0  0  0  0  0  0
    3.9739   -4.2121    3.7258 H   0  0  0  0  0  0  0  0  0  0  0  0
    4.2377   -1.7774    3.8689 H   0  0  0  0  0  0  0  0  0  0  0  0
    5.6487   -2.5328    3.2132 H   0  0  0  0  0  0  0  0  0  0  0  0
    3.5920   -0.8020    1.8413 H   0  0  0  0  0  0  0  0  0  0  0  0
    5.2801   -0.5377    2.0084 H   0  0  0  0  0  0  0  0  0  0  0  0
    5.6383   -1.2112   -0.0671 H   0  0  0  0  0  0  0  0  0  0  0  0
    3.0424   -0.6818   -0.2859 H   0  0  0  0  0  0  0  0  0  0  0  0
    2.1093   -2.5982    0.7785 H   0  0  0  0  0  0  0  0  0  0  0  0
    1.9534   -3.1310   -0.8836 H   0  0  0  0  0  0  0  0  0  0  0  0
    3.5858   -4.8478   -0.4565 H   0  0  0  0  0  0  0  0  0  0  0  0
    6.5848   -2.9159   -1.4436 H   0  0  0  0  0  0  0  0  0  0  0  0
    5.8105   -4.4702   -1.6312 H   0  0  0  0  0  0  0  0  0  0  0  0
    5.1284   -2.7353   -3.3540 H   0  0  0  0  0  0  0  0  0  0  0  0
    3.8425   -3.6435   -2.5947 H   0  0  0  0  0  0  0  0  0  0  0  0
    2.1293   -1.9335   -3.0170 H   0  0  0  0  0  0  0  0  0  0  0  0
    2.3702   -0.2902   -2.4410 H   0  0  0  0  0  0  0  0  0  0  0  0
    3.9208   -1.5100   -4.7960 H   0  0  0  0  0  0  0  0  0  0  0  0
    3.8224    1.3546   -3.6173 H   0  0  0  0  0  0  0  0  0  0  0  0
    4.6937    0.8568   -5.1465 H   0  0  0  0  0  0  0  0  0  0  0  0
    2.6332    0.0897   -6.1842 H   0  0  0  0  0  0  0  0  0  0  0  0
    1.6664    0.6274   -4.7170 H   0  0  0  0  0  0  0  0  0  0  0  0
    4.6566   -0.9009   -2.0141 H   0  0  0  0  0  0  0  0  0  0  0  0
  1  2  1  0
  1 19  1  0
  1 20  1  0
  1 21  1  0
  2 11  1  0
  2  3  1  0
  3 10  1  0
  3  4  1  0
  3 22  1  1
  4  5  1  0
  4 23  1  0
  4 24  1  0
  5  6  1  0
  5 25  1  0
  5 26  1  0
  6  7  1  0
  6 27  1  0
  6 28  1  0
  7 11  1  0
  7  8  1  0
  7 29  1  6
  8 14  1  0
  8  9  1  0
  8 30  1  1
  9 10  1  0
  9 31  1  0
  9 32  1  0
 10 11  1  0
 10 33  1  6
 11 12  1  6
 12 13  1  0
 12 34  1  0
 12 35  1  0
 13 14  1  0
 13 36  1  0
 13 37  1  0
 14 15  1  0
 14 45  1  1
 15 16  1  0
 15 38  1  0
 15 39  1  0
 16 18  1  0
 16 17  1  0
 16 40  1  0
 17 18  1  0
 17 41  1  0
 17 42  1  0
 18 43  1  0
 18 44  1  0
M  CHG  1  14   1
M  END
>  <i_m_ct_stereo_status>  (235) 
1

>  <s_m_source_file>  (235) 
/var/tmp/pbs.5076255.sched01/tmprae_yccg/80g5h6lheg.sdf

>  <i_m_source_file_index>  (235) 
26

>  <i_lp_mmshare_version>  (235) 
48012

>  <i_f3d_flags>  (235) 
0

>  <s_epik_input>  (235) 
W0NIMl0xW0NIMl1bQ0gyXVtDQEhdKE4yW0NIM10pW0NASF0zW0NIMl1bQ0BASF0oW0NAQEhdMVtDQEBdMjM0KU4oW0NIMl1bQ0gyXTQpW0NIMl1bQ0hdNVtDSDJdW0NIMl01

>  <s_epik_cmdline>  (235) 
J2VwaWtfcHl0aG9uJywgJy1waHQnLCAnMi4wJywgJy1waCcsICc3LjAnLCAnLXRuJywgJzgnLCAnLW1hJywgJzIwMCcsICctaW1hZScsICc8aW5maWxlLm1hZT4nLCAnLW9tYWUnLCAnPG91dGZpbGUubWFlPic=

>  <r_epik_Ionization_Penalty>  (235) 
1.70074

>  <r_epik_Ionization_Penalty_Charging>  (235) 
0.000113633

>  <r_epik_Ionization_Penalty_Neutral>  (235) 
1.70063

>  <r_epik_State_Penalty>  (235) 
1.85528

>  <r_epik_Charging_Adjusted_Penalty>  (235) 
1.8554

>  <i_epik_Tot_Q>  (235) 
1

>  <i_epik_Tot_abs_Q>  (235) 
1

>  <s_lp_Force_Field>  (235) 
OPLS3e

>  <r_lp_Energy>  (235) 
61.0659

>  <b_lp_Chiralities_Consistent>  (235) 
1

>  <s_lp_Variant>  (235) 
77:0-3

>  <s_i_glide_gridfile>  (235) 
pfpi4k_grid

>  <i_i_glide_lignum>  (235) 
26

>  <i_i_glide_rotatable_bonds>  (235) 
2

>  <r_i_docking_score>  (235) 
-3.1874

>  <r_i_glide_ligand_efficiency>  (235) 
-0.177078

>  <r_i_glide_ligand_efficiency_sa>  (235) 
-0.464075

>  <r_i_glide_ligand_efficiency_ln>  (235) 
-0.819305

>  <r_i_glide_gscore>  (235) 
-3.1874

>  <r_i_glide_lipo>  (235) 
-0.693364

>  <r_i_glide_hbond>  (235) 
0

>  <r_i_glide_metal>  (235) 
-0

>  <r_i_glide_rewards>  (235) 
-1.72228

>  <r_i_glide_evdw>  (235) 
-17.9671

>  <r_i_glide_ecoul>  (235) 
-2.65559

>  <r_i_glide_erotb>  (235) 
0.570124

>  <r_i_glide_esite>  (235) 
-0.0451881

>  <r_i_glide_emodel>  (235) 
-24.4637

>  <r_i_glide_energy>  (235) 
-20.6227

>  <r_i_glide_einternal>  (235) 
0.27227

>  <r_i_glide_intrahb_reward>  (235) 
-0

>  <i_i_glide_confnum>  (235) 
6

>  <i_i_glide_posenum>  (235) 
19

>  <r_i_glide_eff_state_penalty>  (235) 
0

>  <ligand_id>  (235) 
77

>  <original_smiles>  (235) 
CN1C2CCCC3C4CC2C31CCN4CC1CC1

>  <smiles>  (235) 
[H]C([H])([H])N1C2([H])C([H])([H])C([H])([H])C([H])([H])C3([H])C14C([H])([H])C([H])([H])[N+]([H])(C([H])([H])C1([H])C([H])([H])C1([H])[H])C3([H])C([H])([H])C24[H]

$$$$
77:2:1
     RDKit          3D

 45 49  0  0  1  0  0  0  0  0999 V2000
    6.6559   -2.1865    0.8941 C   0  0  0  0  0  0  0  0  0  0  0  0
    5.5090   -2.9223    0.3814 N   0  0  0  0  0  0  0  0  0  0  0  0
    5.8730   -4.0253   -0.5191 C   0  0  1  0  0  0  0  0  0  0  0  0
    5.0720   -5.2830   -0.1746 C   0  0  0  0  0  0  0  0  0  0  0  0
    3.7193   -4.9951    0.5013 C   0  0  0  0  0  0  0  0  0  0  0  0
    2.7668   -4.0470   -0.2521 C   0  0  0  0  0  0  0  0  0  0  0  0
    3.2548   -2.6638   -0.7883 C   0  0  2  0  0  0  0  0  0  0  0  0
    3.1429   -2.6478   -2.3202 C   0  0  2  0  0  0  0  0  0  0  0  0
    4.4431   -3.3981   -2.7813 C   0  0  0  0  0  0  0  0  0  0  0  0
    5.4865   -3.1050   -1.6933 C   0  0  1  0  0  0  0  0  0  0  0  0
    4.7369   -2.2787   -0.6759 C   0  0  2  0  0  0  0  0  0  0  0  0
    4.8337   -0.7781   -0.9077 C   0  0  0  0  0  0  0  0  0  0  0  0
    4.3580   -0.4870   -2.3352 C   0  0  0  0  0  0  0  0  0  0  0  0
    3.1242   -1.2120   -2.7426 N   0  0  1  0  0  0  0  0  0  0  0  0
    2.7781   -1.0329   -4.1728 C   0  0  0  0  0  0  0  0  0  0  0  0
    2.4977    0.4174   -4.5618 C   0  0  0  0  0  0  0  0  0  0  0  0
    2.8563    0.9424   -5.9241 C   0  0  0  0  0  0  0  0  0  0  0  0
    3.6152    1.4096   -4.7570 C   0  0  0  0  0  0  0  0  0  0  0  0
    7.1695   -2.8429    1.5925 H   0  0  0  0  0  0  0  0  0  0  0  0
    6.3140   -1.3160    1.4579 H   0  0  0  0  0  0  0  0  0  0  0  0
    7.3745   -1.8564    0.1358 H   0  0  0  0  0  0  0  0  0  0  0  0
    6.9581   -4.1581   -0.4826 H   0  0  0  0  0  0  0  0  0  0  0  0
    4.9023   -5.8697   -1.0746 H   0  0  0  0  0  0  0  0  0  0  0  0
    5.6535   -5.9272    0.4840 H   0  0  0  0  0  0  0  0  0  0  0  0
    3.2065   -5.9469    0.6355 H   0  0  0  0  0  0  0  0  0  0  0  0
    3.8848   -4.6162    1.5101 H   0  0  0  0  0  0  0  0  0  0  0  0
    2.2928   -4.6089   -1.0570 H   0  0  0  0  0  0  0  0  0  0  0  0
    1.9541   -3.8337    0.4376 H   0  0  0  0  0  0  0  0  0  0  0  0
    2.6160   -1.8979   -0.3344 H   0  0  0  0  0  0  0  0  0  0  0  0
    2.2339   -3.1427   -2.6678 H   0  0  0  0  0  0  0  0  0  0  0  0
    4.2448   -4.4624   -2.7995 H   0  0  0  0  0  0  0  0  0  0  0  0
    4.7772   -3.1425   -3.7905 H   0  0  0  0  0  0  0  0  0  0  0  0
    6.3931   -2.6118   -2.0620 H   0  0  0  0  0  0  0  0  0  0  0  0
    4.2574   -0.2161   -0.1725 H   0  0  0  0  0  0  0  0  0  0  0  0
    5.8553   -0.4227   -0.8383 H   0  0  0  0  0  0  0  0  0  0  0  0
    4.2144    0.5783   -2.3930 H   0  0  0  0  0  0  0  0  0  0  0  0
    5.1439   -0.7432   -3.0450 H   0  0  0  0  0  0  0  0  0  0  0  0
    3.5558   -1.4214   -4.8298 H   0  0  0  0  0  0  0  0  0  0  0  0
    1.8747   -1.6004   -4.3859 H   0  0  0  0  0  0  0  0  0  0  0  0
    1.5577    0.8296   -4.2197 H   0  0  0  0  0  0  0  0  0  0  0  0
    3.3830    0.2951   -6.6302 H   0  0  0  0  0  0  0  0  0  0  0  0
    2.2204    1.7276   -6.3419 H   0  0  0  0  0  0  0  0  0  0  0  0
    3.4549    2.4185   -4.4038 H   0  0  0  0  0  0  0  0  0  0  0  0
    4.6155    1.0362   -4.6962 H   0  0  0  0  0  0  0  0  0  0  0  0
    2.3611   -0.8085   -2.2021 H   0  0  0  0  0  0  0  0  0  0  0  0
  1  2  1  0
  1 19  1  0
  1 20  1  0
  1 21  1  0
  2 11  1  0
  2  3  1  0
  3 10  1  0
  3  4  1  0
  3 22  1  6
  4  5  1  0
  4 23  1  0
  4 24  1  0
  5  6  1  0
  5 25  1  0
  5 26  1  0
  6  7  1  0
  6 27  1  0
  6 28  1  0
  7 11  1  0
  7  8  1  0
  7 29  1  1
  8 14  1  0
  8  9  1  0
  8 30  1  1
  9 10  1  0
  9 31  1  0
  9 32  1  0
 10 11  1  0
 10 33  1  6
 11 12  1  6
 12 13  1  0
 12 34  1  0
 12 35  1  0
 13 14  1  0
 13 36  1  0
 13 37  1  0
 14 15  1  0
 14 45  1  1
 15 16  1  0
 15 38  1  0
 15 39  1  0
 16 18  1  0
 16 17  1  0
 16 40  1  0
 17 18  1  0
 17 41  1  0
 17 42  1  0
 18 43  1  0
 18 44  1  0
M  CHG  1  14   1
M  END
>  <i_m_ct_stereo_status>  (236) 
1

>  <s_m_source_file>  (236) 
/var/tmp/pbs.5076255.sched01/tmprae_yccg/80g5h6lheg.sdf

>  <i_m_source_file_index>  (236) 
26

>  <i_lp_mmshare_version>  (236) 
48012

>  <i_f3d_flags>  (236) 
0

>  <s_epik_input>  (236) 
W0NIMl0xW0NIMl1bQ0gyXVtDQEhdKE4yW0NIM10pW0NASF0zW0NIMl1bQ0BASF0oW0NAQEhdMVtDQEBdMjM0KU4oW0NIMl1bQ0gyXTQpW0NIMl1bQ0hdNVtDSDJdW0NIMl01

>  <s_epik_cmdline>  (236) 
J2VwaWtfcHl0aG9uJywgJy1waHQnLCAnMi4wJywgJy1waCcsICc3LjAnLCAnLXRuJywgJzgnLCAnLW1hJywgJzIwMCcsICctaW1hZScsICc8aW5maWxlLm1hZT4nLCAnLW9tYWUnLCAnPG91dGZpbGUubWFlPic=

>  <r_epik_Ionization_Penalty>  (236) 
1.70074

>  <r_epik_Ionization_Penalty_Charging>  (236) 
0.000113633

>  <r_epik_Ionization_Penalty_Neutral>  (236) 
1.70063

>  <r_epik_State_Penalty>  (236) 
1.85528

>  <r_epik_Charging_Adjusted_Penalty>  (236) 
1.8554

>  <i_epik_Tot_Q>  (236) 
1

>  <i_epik_Tot_abs_Q>  (236) 
1

>  <s_lp_Force_Field>  (236) 
OPLS3e

>  <r_lp_Energy>  (236) 
61.0659

>  <b_lp_Chiralities_Consistent>  (236) 
1

>  <s_lp_Variant>  (236) 
77:0-3

>  <s_i_glide_gridfile>  (236) 
pfpi4k_grid

>  <i_i_glide_lignum>  (236) 
26

>  <i_i_glide_rotatable_bonds>  (236) 
2

>  <r_i_docking_score>  (236) 
-3.07741

>  <r_i_glide_ligand_efficiency>  (236) 
-0.170967

>  <r_i_glide_ligand_efficiency_sa>  (236) 
-0.448062

>  <r_i_glide_ligand_efficiency_ln>  (236) 
-0.791034

>  <r_i_glide_gscore>  (236) 
-3.07741

>  <r_i_glide_lipo>  (236) 
-0.437646

>  <r_i_glide_hbond>  (236) 
-0.153075

>  <r_i_glide_metal>  (236) 
-0

>  <r_i_glide_rewards>  (236) 
-1.72228

>  <r_i_glide_evdw>  (236) 
-14.9213

>  <r_i_glide_ecoul>  (236) 
-3.57608

>  <r_i_glide_erotb>  (236) 
0.570124

>  <r_i_glide_esite>  (236) 
-0.0520618

>  <r_i_glide_emodel>  (236) 
-20.8198

>  <r_i_glide_energy>  (236) 
-18.4974

>  <r_i_glide_einternal>  (236) 
1.49872

>  <r_i_glide_intrahb_reward>  (236) 
-0

>  <i_i_glide_confnum>  (236) 
1

>  <i_i_glide_posenum>  (236) 
24

>  <r_i_glide_eff_state_penalty>  (236) 
0

>  <ligand_id>  (236) 
77

>  <original_smiles>  (236) 
CN1C2CCCC3C4CC2C31CCN4CC1CC1

>  <smiles>  (236) 
[H]C([H])([H])N1C2([H])C([H])([H])C([H])([H])C([H])([H])C3([H])C14C([H])([H])C([H])([H])[N+]([H])(C([H])([H])C1([H])C([H])([H])C1([H])[H])C3([H])C([H])([H])C24[H]

$$$$
77:2:2
     RDKit          3D

 45 49  0  0  1  0  0  0  0  0999 V2000
    7.9007   -3.5022    0.8079 C   0  0  0  0  0  0  0  0  0  0  0  0
    6.4532   -3.6016    0.9695 N   0  0  0  0  0  0  0  0  0  0  0  0
    5.9112   -4.8855    0.4910 C   0  0  1  0  0  0  0  0  0  0  0  0
    4.8966   -5.4557    1.4849 C   0  0  0  0  0  0  0  0  0  0  0  0
    4.2094   -4.3879    2.3560 C   0  0  0  0  0  0  0  0  0  0  0  0
    3.4985   -3.2417    1.6056 C   0  0  0  0  0  0  0  0  0  0  0  0
    4.2255   -2.4425    0.4717 C   0  0  2  0  0  0  0  0  0  0  0  0
    3.4853   -2.6661   -0.8570 C   0  0  2  0  0  0  0  0  0  0  0  0
    4.0222   -4.0557   -1.3000 C   0  0  0  0  0  0  0  0  0  0  0  0
    5.4530   -4.1358   -0.7765 C   0  0  1  0  0  0  0  0  0  0  0  0
    5.6338   -2.8644    0.0084 C   0  0  2  0  0  0  0  0  0  0  0  0
    6.2052   -1.7120   -0.8238 C   0  0  0  0  0  0  0  0  0  0  0  0
    5.3170   -1.4927   -2.0746 C   0  0  0  0  0  0  0  0  0  0  0  0
    3.8595   -1.5627   -1.7919 N   0  0  1  0  0  0  0  0  0  0  0  0
    3.0208   -1.5068   -3.0170 C   0  0  0  0  0  0  0  0  0  0  0  0
    3.1535   -0.1713   -3.7438 C   0  0  0  0  0  0  0  0  0  0  0  0
    2.1861    0.2011   -4.8511 C   0  0  0  0  0  0  0  0  0  0  0  0
    3.6178   -0.1030   -5.1807 C   0  0  0  0  0  0  0  0  0  0  0  0
    8.3770   -4.1448    1.5509 H   0  0  0  0  0  0  0  0  0  0  0  0
    8.1874   -2.4686    1.0028 H   0  0  0  0  0  0  0  0  0  0  0  0
    8.2623   -3.7749   -0.1890 H   0  0  0  0  0  0  0  0  0  0  0  0
    6.7289   -5.5685    0.2516 H   0  0  0  0  0  0  0  0  0  0  0  0
    4.1410   -6.0414    0.9600 H   0  0  0  0  0  0  0  0  0  0  0  0
    5.3960   -6.1720    2.1415 H   0  0  0  0  0  0  0  0  0  0  0  0
    3.4733   -4.8942    2.9786 H   0  0  0  0  0  0  0  0  0  0  0  0
    4.9351   -3.9691    3.0546 H   0  0  0  0  0  0  0  0  0  0  0  0
    2.5549   -3.6387    1.2295 H   0  0  0  0  0  0  0  0  0  0  0  0
    3.2000   -2.5206    2.3651 H   0  0  0  0  0  0  0  0  0  0  0  0
    4.2047   -1.3889    0.7523 H   0  0  0  0  0  0  0  0  0  0  0  0
    2.4039   -2.6687   -0.7277 H   0  0  0  0  0  0  0  0  0  0  0  0
    3.4040   -4.8064   -0.8104 H   0  0  0  0  0  0  0  0  0  0  0  0
    3.9690   -4.2093   -2.3765 H   0  0  0  0  0  0  0  0  0  0  0  0
    6.2083   -4.2411   -1.5598 H   0  0  0  0  0  0  0  0  0  0  0  0
    6.2781   -0.8095   -0.2194 H   0  0  0  0  0  0  0  0  0  0  0  0
    7.2074   -1.9545   -1.1702 H   0  0  0  0  0  0  0  0  0  0  0  0
    5.5189   -0.5110   -2.4928 H   0  0  0  0  0  0  0  0  0  0  0  0
    5.5747   -2.2453   -2.8314 H   0  0  0  0  0  0  0  0  0  0  0  0
    3.2515   -2.3247   -3.7068 H   0  0  0  0  0  0  0  0  0  0  0  0
    1.9823   -1.6359   -2.7197 H   0  0  0  0  0  0  0  0  0  0  0  0
    3.4823    0.6507   -3.1217 H   0  0  0  0  0  0  0  0  0  0  0  0
    1.4310   -0.5265   -5.1287 H   0  0  0  0  0  0  0  0  0  0  0  0
    1.8818    1.2429   -4.9397 H   0  0  0  0  0  0  0  0  0  0  0  0
    4.2204    0.7479   -5.4956 H   0  0  0  0  0  0  0  0  0  0  0  0
    3.8177   -1.0398   -5.6819 H   0  0  0  0  0  0  0  0  0  0  0  0
    3.6293   -0.7228   -1.2754 H   0  0  0  0  0  0  0  0  0  0  0  0
  1  2  1  0
  1 19  1  0
  1 20  1  0
  1 21  1  0
  2 11  1  0
  2  3  1  0
  3 10  1  0
  3  4  1  0
  3 22  1  6
  4  5  1  0
  4 23  1  0
  4 24  1  0
  5  6  1  0
  5 25  1  0
  5 26  1  0
  6  7  1  0
  6 27  1  0
  6 28  1  0
  7 11  1  0
  7  8  1  0
  7 29  1  1
  8 14  1  0
  8  9  1  0
  8 30  1  1
  9 10  1  0
  9 31  1  0
  9 32  1  0
 10 11  1  0
 10 33  1  6
 11 12  1  6
 12 13  1  0
 12 34  1  0
 12 35  1  0
 13 14  1  0
 13 36  1  0
 13 37  1  0
 14 15  1  0
 14 45  1  1
 15 16  1  0
 15 38  1  0
 15 39  1  0
 16 18  1  0
 16 17  1  0
 16 40  1  0
 17 18  1  0
 17 41  1  0
 17 42  1  0
 18 43  1  0
 18 44  1  0
M  CHG  1  14   1
M  END
>  <i_m_ct_stereo_status>  (237) 
1

>  <s_m_source_file>  (237) 
/var/tmp/pbs.5076255.sched01/tmprae_yccg/80g5h6lheg.sdf

>  <i_m_source_file_index>  (237) 
26

>  <i_lp_mmshare_version>  (237) 
48012

>  <i_f3d_flags>  (237) 
0

>  <s_epik_input>  (237) 
W0NIMl0xW0NIMl1bQ0gyXVtDQEhdKE4yW0NIM10pW0NASF0zW0NIMl1bQ0BASF0oW0NAQEhdMVtDQEBdMjM0KU4oW0NIMl1bQ0gyXTQpW0NIMl1bQ0hdNVtDSDJdW0NIMl01

>  <s_epik_cmdline>  (237) 
J2VwaWtfcHl0aG9uJywgJy1waHQnLCAnMi4wJywgJy1waCcsICc3LjAnLCAnLXRuJywgJzgnLCAnLW1hJywgJzIwMCcsICctaW1hZScsICc8aW5maWxlLm1hZT4nLCAnLW9tYWUnLCAnPG91dGZpbGUubWFlPic=

>  <r_epik_Ionization_Penalty>  (237) 
1.70074

>  <r_epik_Ionization_Penalty_Charging>  (237) 
0.000113633

>  <r_epik_Ionization_Penalty_Neutral>  (237) 
1.70063

>  <r_epik_State_Penalty>  (237) 
1.85528

>  <r_epik_Charging_Adjusted_Penalty>  (237) 
1.8554

>  <i_epik_Tot_Q>  (237) 
1

>  <i_epik_Tot_abs_Q>  (237) 
1

>  <s_lp_Force_Field>  (237) 
OPLS3e

>  <r_lp_Energy>  (237) 
61.0659

>  <b_lp_Chiralities_Consistent>  (237) 
1

>  <s_lp_Variant>  (237) 
77:0-3

>  <s_i_glide_gridfile>  (237) 
pfpi4k_grid

>  <i_i_glide_lignum>  (237) 
26

>  <i_i_glide_rotatable_bonds>  (237) 
2

>  <r_i_docking_score>  (237) 
-2.90443

>  <r_i_glide_ligand_efficiency>  (237) 
-0.161357

>  <r_i_glide_ligand_efficiency_sa>  (237) 
-0.422875

>  <r_i_glide_ligand_efficiency_ln>  (237) 
-0.746568

>  <r_i_glide_gscore>  (237) 
-2.90443

>  <r_i_glide_lipo>  (237) 
-0.644481

>  <r_i_glide_hbond>  (237) 
0

>  <r_i_glide_metal>  (237) 
-0

>  <r_i_glide_rewards>  (237) 
-1.72228

>  <r_i_glide_evdw>  (237) 
-14.9095

>  <r_i_glide_ecoul>  (237) 
-2.02873

>  <r_i_glide_erotb>  (237) 
0.570124

>  <r_i_glide_esite>  (237) 
-0.0580092

>  <r_i_glide_emodel>  (237) 
-20.2478

>  <r_i_glide_energy>  (237) 
-16.9382

>  <r_i_glide_einternal>  (237) 
0.446912

>  <r_i_glide_intrahb_reward>  (237) 
-0

>  <i_i_glide_confnum>  (237) 
1

>  <i_i_glide_posenum>  (237) 
9

>  <r_i_glide_eff_state_penalty>  (237) 
0

>  <ligand_id>  (237) 
77

>  <original_smiles>  (237) 
CN1C2CCCC3C4CC2C31CCN4CC1CC1

>  <smiles>  (237) 
[H]C([H])([H])N1C2([H])C([H])([H])C([H])([H])C([H])([H])C3([H])C14C([H])([H])C([H])([H])[N+]([H])(C([H])([H])C1([H])C([H])([H])C1([H])[H])C3([H])C([H])([H])C24[H]

$$$$
78:0:0
     RDKit          3D

 85 92  0  0  1  0  0  0  0  0999 V2000
    3.8074   -0.3545   -3.4757 C   0  0  0  0  0  0  0  0  0  0  0  0
    3.7477   -1.8842   -3.3686 C   0  0  0  0  0  0  0  0  0  0  0  0
    3.3758   -2.5508   -4.3185 O   0  0  0  0  0  0  0  0  0  0  0  0
    4.0843   -2.4943   -2.2174 O   0  0  0  0  0  0  0  0  0  0  0  0
    4.7380   -1.8899   -1.1199 C   0  0  2  0  0  0  0  0  0  0  0  0
    6.2107   -2.3883   -1.1663 C   0  0  0  0  0  0  0  0  0  0  0  0
    6.7439   -3.3975   -0.1316 C   0  0  1  0  0  0  0  0  0  0  0  0
    8.2855   -3.3641   -0.1273 C   0  0  0  0  0  0  0  0  0  0  0  0
    6.1365   -3.1842    1.2793 C   0  0  1  0  0  0  0  0  0  0  0  0
    6.1802   -1.6382    1.5864 C   0  0  0  0  0  0  0  0  0  0  0  0
    5.0423   -0.7544    0.9966 C   0  0  0  0  0  0  0  0  0  0  0  0
    3.9563   -1.5343    0.2129 C   0  0  2  0  0  0  0  0  0  0  0  0
    2.9945   -2.5580    1.0511 C   0  0  1  0  0  0  0  0  0  0  0  0
    1.8184   -1.8681    1.3982 O   0  0  0  0  0  0  0  0  0  0  0  0
    2.7046   -3.8813    0.2851 C   0  0  1  0  0  0  0  0  0  0  0  0
    2.1982   -3.8174   -1.0286 O   0  0  0  0  0  0  0  0  0  0  0  0
    4.1041   -4.4536    0.4053 C   0  0  0  0  0  0  0  0  0  0  0  0
    4.7375   -3.8452    1.4450 C   0  0  0  0  0  0  0  0  0  0  0  0
    3.6703   -3.2133    2.3313 C   0  0  1  0  0  0  0  0  0  0  0  0
    4.0538   -2.2395    3.4911 C   0  0  0  0  0  0  0  0  0  0  0  0
    2.9136   -4.4204    3.0955 C   0  0  2  0  0  0  0  0  0  0  0  0
    1.5389   -4.0794    3.7074 C   0  0  0  0  0  0  0  0  0  0  0  0
    1.2587   -4.9636    4.9384 C   0  0  2  0  0  0  0  0  0  0  0  0
    1.9623   -4.4051    6.1819 N   0  0  0  0  0  0  0  0  0  0  0  0
    0.9905   -3.8110    6.9998 C   0  0  0  0  0  0  0  0  0  0  0  0
   -0.0337   -4.5285    7.5414 C   0  0  0  0  0  0  0  0  0  0  0  0
   -0.1873   -5.9122    7.2549 N   0  0  0  0  0  0  0  0  0  0  0  0
    0.9114   -6.5492    7.1275 C   0  0  0  0  0  0  0  0  0  0  0  0
    2.1292   -6.1844    7.9374 C   0  0  0  0  0  0  0  0  0  0  0  0
    2.9410   -5.3370    6.9426 C   0  0  2  0  0  0  0  0  0  0  0  0
    3.9381   -4.4699    7.7380 C   0  0  0  0  0  0  0  0  0  0  0  0
    3.7182   -6.4666    6.0848 C   0  0  1  0  0  0  0  0  0  0  0  0
    2.8674   -7.6081    5.5938 C   0  0  0  0  0  0  0  0  0  0  0  0
    1.5896   -6.5735    4.6543 C   0  0  2  0  0  0  0  0  0  0  0  0
    0.8940   -7.1457    3.3521 C   0  0  0  0  0  0  0  0  0  0  0  0
    1.3929   -7.1709    5.7231 C   0  0  2  0  0  0  0  0  0  0  0  0
    0.5798   -8.5662    5.5735 C   0  0  0  0  0  0  0  0  0  0  0  0
    3.0582   -6.5240    4.8413 C   0  0  1  0  0  0  0  0  0  0  0  0
    3.7274   -5.1571    4.1817 C   0  0  0  0  0  0  0  0  0  0  0  0
    3.0949    0.0813   -2.7740 H   0  0  0  0  0  0  0  0  0  0  0  0
    3.5642    0.0037   -4.4768 H   0  0  0  0  0  0  0  0  0  0  0  0
    4.8007    0.0198   -3.2403 H   0  0  0  0  0  0  0  0  0  0  0  0
    4.9265   -0.8759   -1.4254 H   0  0  0  0  0  0  0  0  0  0  0  0
    6.4241   -2.7560   -2.1734 H   0  0  0  0  0  0  0  0  0  0  0  0
    6.8074   -1.4872   -1.0938 H   0  0  0  0  0  0  0  0  0  0  0  0
    6.5213   -4.3987   -0.4820 H   0  0  0  0  0  0  0  0  0  0  0  0
    8.6996   -2.3960    0.1597 H   0  0  0  0  0  0  0  0  0  0  0  0
    8.6832   -3.5958   -1.1174 H   0  0  0  0  0  0  0  0  0  0  0  0
    8.6785   -4.1087    0.5638 H   0  0  0  0  0  0  0  0  0  0  0  0
    6.7738   -3.6838    2.0040 H   0  0  0  0  0  0  0  0  0  0  0  0
    6.2568   -1.4478    2.6495 H   0  0  0  0  0  0  0  0  0  0  0  0
    7.1306   -1.2236    1.2490 H   0  0  0  0  0  0  0  0  0  0  0  0
    4.6079   -0.0664    1.7137 H   0  0  0  0  0  0  0  0  0  0  0  0
    5.5279   -0.0285    0.3385 H   0  0  0  0  0  0  0  0  0  0  0  0
    3.2680   -0.7672   -0.1417 H   0  0  0  0  0  0  0  0  0  0  0  0
    1.4498   -1.4679    0.5984 H   0  0  0  0  0  0  0  0  0  0  0  0
    1.9537   -4.4955    0.7675 H   0  0  0  0  0  0  0  0  0  0  0  0
    2.4914   -4.5654   -1.5317 H   0  0  0  0  0  0  0  0  0  0  0  0
    4.5558   -4.8325   -0.4953 H   0  0  0  0  0  0  0  0  0  0  0  0
    3.3516   -2.2640    4.3166 H   0  0  0  0  0  0  0  0  0  0  0  0
    4.0250   -1.1894    3.2452 H   0  0  0  0  0  0  0  0  0  0  0  0
    5.0044   -2.5023    3.9526 H   0  0  0  0  0  0  0  0  0  0  0  0
    2.7696   -5.2627    2.4284 H   0  0  0  0  0  0  0  0  0  0  0  0
    1.4217   -3.0354    3.9990 H   0  0  0  0  0  0  0  0  0  0  0  0
    0.7755   -4.2346    2.9459 H   0  0  0  0  0  0  0  0  0  0  0  0
    0.1774   -4.8783    5.0465 H   0  0  0  0  0  0  0  0  0  0  0  0
    1.1544   -2.7537    7.1710 H   0  0  0  0  0  0  0  0  0  0  0  0
   -0.7711   -4.0905    8.1868 H   0  0  0  0  0  0  0  0  0  0  0  0
    1.8610   -5.6428    8.8455 H   0  0  0  0  0  0  0  0  0  0  0  0
    2.6671   -7.0653    8.2846 H   0  0  0  0  0  0  0  0  0  0  0  0
    4.6227   -5.0826    8.3256 H   0  0  0  0  0  0  0  0  0  0  0  0
    3.4026   -3.8222    8.4357 H   0  0  0  0  0  0  0  0  0  0  0  0
    4.5211   -3.8217    7.0820 H   0  0  0  0  0  0  0  0  0  0  0  0
    4.7987   -6.5763    6.0857 H   0  0  0  0  0  0  0  0  0  0  0  0
    3.3157   -8.5310    5.0816 H   0  0  0  0  0  0  0  0  0  0  0  0
    2.8638   -8.2683    6.5238 H   0  0  0  0  0  0  0  0  0  0  0  0
    1.3131   -8.1013    3.0382 H   0  0  0  0  0  0  0  0  0  0  0  0
    1.0176   -6.4909    2.4941 H   0  0  0  0  0  0  0  0  0  0  0  0
   -0.1828   -7.2621    3.4724 H   0  0  0  0  0  0  0  0  0  0  0  0
    0.9544   -9.2608    4.8190 H   0  0  0  0  0  0  0  0  0  0  0  0
   -0.4796   -8.3864    5.3865 H   0  0  0  0  0  0  0  0  0  0  0  0
    0.6137   -9.1269    6.5095 H   0  0  0  0  0  0  0  0  0  0  0  0
    3.5335   -6.9918    3.8557 H   0  0  0  0  0  0  0  0  0  0  0  0
    4.6705   -5.4477    3.7166 H   0  0  0  0  0  0  0  0  0  0  0  0
    4.0673   -4.4214    4.9050 H   0  0  0  0  0  0  0  0  0  0  0  0
  1  2  1  0
  1 40  1  0
  1 41  1  0
  1 42  1  0
  2  3  2  0
  2  4  1  0
  4  5  1  0
  5 12  1  0
  5  6  1  0
  5 43  1  6
  6  7  1  0
  6 44  1  0
  6 45  1  0
  7  8  1  0
  7  9  1  0
  7 46  1  6
  8 47  1  0
  8 48  1  0
  8 49  1  0
  9 18  1  0
  9 10  1  0
  9 50  1  1
 10 11  1  0
 10 51  1  0
 10 52  1  0
 11 12  1  0
 11 53  1  0
 11 54  1  0
 12 13  1  0
 12 55  1  6
 13 19  1  0
 13 14  1  1
 13 15  1  0
 14 56  1  0
 15 16  1  0
 15 17  1  0
 15 57  1  1
 16 58  1  0
 17 18  2  0
 17 59  1  0
 18 19  1  0
 19 20  1  1
 19 21  1  0
 20 60  1  0
 20 61  1  0
 20 62  1  0
 21 39  1  0
 21 22  1  0
 21 63  1  6
 22 23  1  0
 22 64  1  0
 22 65  1  0
 23 34  1  0
 23 24  1  0
 23 66  1  1
 24 30  1  0
 24 25  1  0
 25 26  2  0
 25 67  1  0
 26 27  1  0
 26 68  1  0
 27 28  2  0
 28 36  1  0
 28 29  1  0
 29 30  1  0
 29 69  1  0
 29 70  1  0
 30 31  1  1
 30 32  1  0
 31 71  1  0
 31 72  1  0
 31 73  1  0
 32 38  1  0
 32 33  1  0
 32 74  1  6
 33 34  1  0
 33 75  1  0
 33 76  1  0
 34 35  1  6
 34 36  1  0
 35 77  1  0
 35 78  1  0
 35 79  1  0
 36 37  1  6
 36 38  1  0
 37 80  1  0
 37 81  1  0
 37 82  1  0
 38 39  1  0
 38 83  1  6
 39 84  1  0
 39 85  1  0
M  END
>  <i_m_ct_stereo_status>  (238) 
1

>  <s_m_source_file>  (238) 
/var/tmp/pbs.5076255.sched01/tmprae_yccg/80g5h6lheg.sdf

>  <i_m_source_file_index>  (238) 
27

>  <i_lp_mmshare_version>  (238) 
48012

>  <i_f3d_flags>  (238) 
0

>  <s_epik_input>  (238) 
W0NIM11DKD1PKU9bQ0BASF0oW0NASF0xW0NAQF0yM1tPSF0pW0NIMl1bQ0BASF0oW0NIM10pW0NAQEhdKFtDSDJdW0NIMl0xKUMoPVtDSF1bQ0BASF0yW09IXSlbQ0BdMyhbQ0gzXSlbQ0BIXShbQ0gyXTQpW0NIMl1bQ0BASF0oW0NAQEhdNVtDSDJdNilbQ0BAXShbQ0gzXSkoQyhbQ0gyXTcpPU5bQ0hdPVtDSF04KVtDQEBdNihbQ0gzXSlbQ0BIXTROOFtDQF01N1tDSDNd

>  <s_epik_cmdline>  (238) 
J2VwaWtfcHl0aG9uJywgJy1waHQnLCAnMi4wJywgJy1waCcsICc3LjAnLCAnLXRuJywgJzgnLCAnLW1hJywgJzIwMCcsICctaW1hZScsICc8aW5maWxlLm1hZT4nLCAnLW9tYWUnLCAnPG91dGZpbGUubWFlPic=

>  <r_lp_tautomer_probability>  (238) 
0.499993

>  <r_epik_Ionization_Penalty>  (238) 
0.000292899

>  <r_epik_Ionization_Penalty_Charging>  (238) 
0

>  <r_epik_Ionization_Penalty_Neutral>  (238) 
0.000292899

>  <r_epik_State_Penalty>  (238) 
0.452627

>  <r_epik_Charging_Adjusted_Penalty>  (238) 
0.452627

>  <i_epik_Tot_Q>  (238) 
0

>  <i_epik_Tot_abs_Q>  (238) 
0

>  <s_epik_Chemistry_Notes>  (238) 
This compound has an ester and may undergo hydrolysis at high or low pH. This compound has an imine and may undergo hydrolysis.

>  <s_lp_Force_Field>  (238) 
OPLS3e

>  <r_lp_Energy>  (238) 
782.949

>  <b_lp_Chiralities_Consistent>  (238) 
1

>  <s_lp_Variant>  (238) 
78:0-1

>  <s_i_glide_gridfile>  (238) 
pfpi4k_grid

>  <i_i_glide_lignum>  (238) 
27

>  <i_i_glide_rotatable_bonds>  (238) 
5

>  <r_i_docking_score>  (238) 
-4.24764

>  <r_i_glide_ligand_efficiency>  (238) 
-0.108914

>  <r_i_glide_ligand_efficiency_sa>  (238) 
-0.369349

>  <r_i_glide_ligand_efficiency_ln>  (238) 
-0.910814

>  <r_i_glide_gscore>  (238) 
-4.24764

>  <r_i_glide_lipo>  (238) 
-1.00571

>  <r_i_glide_hbond>  (238) 
-0.288

>  <r_i_glide_metal>  (238) 
-0

>  <r_i_glide_rewards>  (238) 
-0.213551

>  <r_i_glide_evdw>  (238) 
-36.665

>  <r_i_glide_ecoul>  (238) 
-6.70222

>  <r_i_glide_erotb>  (238) 
0.101058

>  <r_i_glide_esite>  (238) 
-0.00284794

>  <r_i_glide_emodel>  (238) 
-51.555

>  <r_i_glide_energy>  (238) 
-43.3672

>  <r_i_glide_einternal>  (238) 
7.52827

>  <r_i_glide_intrahb_reward>  (238) 
-0

>  <i_i_glide_confnum>  (238) 
2

>  <i_i_glide_posenum>  (238) 
21

>  <r_i_glide_eff_state_penalty>  (238) 
0

>  <ligand_id>  (238) 
78

>  <original_smiles>  (238) 
CC(=O)OC1CC(C)C2CCC1C1(O)C(O)C=C2C1(C)C1CC2N3C=CN=C4CC3(C)C3CC2(C)C4(C)C3C1

>  <smiles>  (238) 
[H]OC1([H])C([H])=C2C3([H])C([H])([H])C([H])([H])C([H])(C([H])(OC(=O)C([H])([H])[H])C([H])([H])C3([H])C([H])([H])[H])C1(O[H])C2(C([H])([H])[H])C1([H])C([H])([H])C2([H])N3C([H])=C([H])N=C4C([H])([H])C3(C([H])([H])[H])C3([H])C([H])([H])C2(C([H])([H])[H])C4(C([H])([H])[H])C3([H])C1([H])[H]

$$$$
78:0:1
     RDKit          3D

 85 92  0  0  1  0  0  0  0  0999 V2000
    3.2059   -1.7695   -2.5222 C   0  0  0  0  0  0  0  0  0  0  0  0
    4.6666   -2.0666   -2.1830 C   0  0  0  0  0  0  0  0  0  0  0  0
    5.4147   -2.5746   -3.0590 O   0  0  0  0  0  0  0  0  0  0  0  0
    5.1069   -1.8693   -0.8991 O   0  0  0  0  0  0  0  0  0  0  0  0
    4.2414   -1.5176    0.1863 C   0  0  2  0  0  0  0  0  0  0  0  0
    5.0223   -0.7050    1.2883 C   0  0  0  0  0  0  0  0  0  0  0  0
    5.3950   -1.3553    2.6605 C   0  0  1  0  0  0  0  0  0  0  0  0
    5.7295   -0.2525    3.6988 C   0  0  0  0  0  0  0  0  0  0  0  0
    4.3388   -2.3501    3.2148 C   0  0  1  0  0  0  0  0  0  0  0  0
    2.9351   -1.6605    3.0871 C   0  0  0  0  0  0  0  0  0  0  0  0
    2.2908   -1.7139    1.6850 C   0  0  0  0  0  0  0  0  0  0  0  0
    3.0406   -2.5101    0.5875 C   0  0  2  0  0  0  0  0  0  0  0  0
    3.2214   -4.1531    0.7848 C   0  0  1  0  0  0  0  0  0  0  0  0
    2.2333   -4.8252    0.0111 O   0  0  0  0  0  0  0  0  0  0  0  0
    4.6373   -4.7234    0.4464 C   0  0  1  0  0  0  0  0  0  0  0  0
    5.2207   -4.5521   -0.8215 O   0  0  0  0  0  0  0  0  0  0  0  0
    5.3648   -4.0594    1.6053 C   0  0  0  0  0  0  0  0  0  0  0  0
    4.4554   -3.7724    2.5625 C   0  0  0  0  0  0  0  0  0  0  0  0
    3.2224   -4.6376    2.2951 C   0  0  1  0  0  0  0  0  0  0  0  0
    1.8831   -4.4190    3.0525 C   0  0  0  0  0  0  0  0  0  0  0  0
    3.6166   -6.1680    2.6318 C   0  0  2  0  0  0  0  0  0  0  0  0
    2.8473   -7.2366    1.8495 C   0  0  0  0  0  0  0  0  0  0  0  0
    2.7381   -8.5303    2.6599 C   0  0  2  0  0  0  0  0  0  0  0  0
    1.5632   -8.4340    3.6405 N   0  0  0  0  0  0  0  0  0  0  0  0
    0.5413   -9.2303    3.1672 C   0  0  0  0  0  0  0  0  0  0  0  0
    0.6704  -10.5830    2.9932 C   0  0  0  0  0  0  0  0  0  0  0  0
    1.8986  -11.2372    3.2723 N   0  0  0  0  0  0  0  0  0  0  0  0
    2.5618  -10.7732    4.2570 C   0  0  0  0  0  0  0  0  0  0  0  0
    1.8443  -10.1780    5.4503 C   0  0  0  0  0  0  0  0  0  0  0  0
    1.8583   -8.6584    5.1442 C   0  0  2  0  0  0  0  0  0  0  0  0
    0.7523   -7.9812    5.9775 C   0  0  0  0  0  0  0  0  0  0  0  0
    3.3309   -8.2461    5.6976 C   0  0  1  0  0  0  0  0  0  0  0  0
    4.4730   -9.1321    5.2468 C   0  0  0  0  0  0  0  0  0  0  0  0
    4.1807   -8.9695    3.3695 C   0  0  2  0  0  0  0  0  0  0  0  0
    5.4163   -9.0325    2.3696 C   0  0  0  0  0  0  0  0  0  0  0  0
    3.9661   -9.9834    4.0631 C   0  0  2  0  0  0  0  0  0  0  0  0
    5.0756  -11.1546    3.9373 C   0  0  0  0  0  0  0  0  0  0  0  0
    4.1490   -8.0469    4.5383 C   0  0  1  0  0  0  0  0  0  0  0  0
    3.5691   -6.5625    4.1194 C   0  0  0  0  0  0  0  0  0  0  0  0
    2.5852   -2.4749   -1.9913 H   0  0  0  0  0  0  0  0  0  0  0  0
    2.9997   -1.8932   -3.5960 H   0  0  0  0  0  0  0  0  0  0  0  0
    2.9653   -0.7305   -2.2224 H   0  0  0  0  0  0  0  0  0  0  0  0
    3.7178   -0.6731   -0.2519 H   0  0  0  0  0  0  0  0  0  0  0  0
    5.9280   -0.2708    0.8510 H   0  0  0  0  0  0  0  0  0  0  0  0
    4.4162    0.1794    1.5093 H   0  0  0  0  0  0  0  0  0  0  0  0
    6.3393   -1.8671    2.5275 H   0  0  0  0  0  0  0  0  0  0  0  0
    4.8931    0.4043    3.9159 H   0  0  0  0  0  0  0  0  0  0  0  0
    6.5534    0.3624    3.3551 H   0  0  0  0  0  0  0  0  0  0  0  0
    6.0444   -0.6822    4.6492 H   0  0  0  0  0  0  0  0  0  0  0  0
    4.5103   -2.5117    4.2710 H   0  0  0  0  0  0  0  0  0  0  0  0
    2.2150   -2.0266    3.8189 H   0  0  0  0  0  0  0  0  0  0  0  0
    3.0016   -0.5988    3.3508 H   0  0  0  0  0  0  0  0  0  0  0  0
    1.2431   -1.9947    1.7079 H   0  0  0  0  0  0  0  0  0  0  0  0
    2.1737   -0.6899    1.3214 H   0  0  0  0  0  0  0  0  0  0  0  0
    2.2770   -2.4288   -0.1458 H   0  0  0  0  0  0  0  0  0  0  0  0
    2.5158   -4.8566   -0.8932 H   0  0  0  0  0  0  0  0  0  0  0  0
    4.6874   -5.8080    0.4876 H   0  0  0  0  0  0  0  0  0  0  0  0
    4.6198   -4.8768   -1.4719 H   0  0  0  0  0  0  0  0  0  0  0  0
    6.2644   -3.5188    1.3523 H   0  0  0  0  0  0  0  0  0  0  0  0
    1.3049   -5.3368    3.0901 H   0  0  0  0  0  0  0  0  0  0  0  0
    1.1678   -3.7512    2.5974 H   0  0  0  0  0  0  0  0  0  0  0  0
    2.0583   -4.1187    4.0845 H   0  0  0  0  0  0  0  0  0  0  0  0
    4.6710   -6.3029    2.4307 H   0  0  0  0  0  0  0  0  0  0  0  0
    1.8525   -6.9116    1.5759 H   0  0  0  0  0  0  0  0  0  0  0  0
    3.3556   -7.4473    0.9136 H   0  0  0  0  0  0  0  0  0  0  0  0
    2.5512   -9.2861    1.8973 H   0  0  0  0  0  0  0  0  0  0  0  0
   -0.3731   -8.7028    2.9481 H   0  0  0  0  0  0  0  0  0  0  0  0
   -0.1317  -11.1778    2.6235 H   0  0  0  0  0  0  0  0  0  0  0  0
    0.8329  -10.5839    5.5513 H   0  0  0  0  0  0  0  0  0  0  0  0
    2.3432  -10.4409    6.3843 H   0  0  0  0  0  0  0  0  0  0  0  0
    0.8993   -8.1436    7.0412 H   0  0  0  0  0  0  0  0  0  0  0  0
   -0.2135   -8.4013    5.7129 H   0  0  0  0  0  0  0  0  0  0  0  0
    0.7109   -6.9148    5.7784 H   0  0  0  0  0  0  0  0  0  0  0  0
    3.4924   -7.5672    6.5258 H   0  0  0  0  0  0  0  0  0  0  0  0
    5.5435   -9.0145    5.6597 H   0  0  0  0  0  0  0  0  0  0  0  0
    4.3787   -9.9692    6.0364 H   0  0  0  0  0  0  0  0  0  0  0  0
    6.3850   -9.0543    2.8755 H   0  0  0  0  0  0  0  0  0  0  0  0
    5.4549   -8.1626    1.7248 H   0  0  0  0  0  0  0  0  0  0  0  0
    5.3552   -9.8830    1.6892 H   0  0  0  0  0  0  0  0  0  0  0  0
    6.1131  -10.8478    4.0582 H   0  0  0  0  0  0  0  0  0  0  0  0
    4.9762  -11.6806    2.9888 H   0  0  0  0  0  0  0  0  0  0  0  0
    4.9141  -11.9217    4.6981 H   0  0  0  0  0  0  0  0  0  0  0  0
    5.1691   -7.4161    4.5241 H   0  0  0  0  0  0  0  0  0  0  0  0
    4.1380   -5.8094    4.6564 H   0  0  0  0  0  0  0  0  0  0  0  0
    2.5756   -6.3739    4.5089 H   0  0  0  0  0  0  0  0  0  0  0  0
  1  2  1  0
  1 40  1  0
  1 41  1  0
  1 42  1  0
  2  3  2  0
  2  4  1  0
  4  5  1  0
  5 12  1  0
  5  6  1  0
  5 43  1  6
  6  7  1  0
  6 44  1  0
  6 45  1  0
  7  8  1  0
  7  9  1  0
  7 46  1  6
  8 47  1  0
  8 48  1  0
  8 49  1  0
  9 18  1  0
  9 10  1  0
  9 50  1  1
 10 11  1  0
 10 51  1  0
 10 52  1  0
 11 12  1  0
 11 53  1  0
 11 54  1  0
 12 13  1  0
 12 55  1  6
 13 19  1  0
 13 14  1  6
 13 15  1  0
 14 56  1  0
 15 16  1  0
 15 17  1  0
 15 57  1  1
 16 58  1  0
 17 18  2  0
 17 59  1  0
 18 19  1  0
 19 20  1  1
 19 21  1  0
 20 60  1  0
 20 61  1  0
 20 62  1  0
 21 39  1  0
 21 22  1  0
 21 63  1  6
 22 23  1  0
 22 64  1  0
 22 65  1  0
 23 34  1  0
 23 24  1  0
 23 66  1  6
 24 30  1  0
 24 25  1  0
 25 26  2  0
 25 67  1  0
 26 27  1  0
 26 68  1  0
 27 28  2  0
 28 36  1  0
 28 29  1  0
 29 30  1  0
 29 69  1  0
 29 70  1  0
 30 31  1  1
 30 32  1  0
 31 71  1  0
 31 72  1  0
 31 73  1  0
 32 38  1  0
 32 33  1  0
 32 74  1  1
 33 34  1  0
 33 75  1  0
 33 76  1  0
 34 35  1  6
 34 36  1  0
 35 77  1  0
 35 78  1  0
 35 79  1  0
 36 37  1  1
 36 38  1  0
 37 80  1  0
 37 81  1  0
 37 82  1  0
 38 39  1  0
 38 83  1  1
 39 84  1  0
 39 85  1  0
M  END
>  <i_m_ct_stereo_status>  (239) 
1

>  <s_m_source_file>  (239) 
/var/tmp/pbs.5076255.sched01/tmprae_yccg/80g5h6lheg.sdf

>  <i_m_source_file_index>  (239) 
27

>  <i_lp_mmshare_version>  (239) 
48012

>  <i_f3d_flags>  (239) 
0

>  <s_epik_input>  (239) 
W0NIM11DKD1PKU9bQ0BASF0oW0NASF0xW0NAQF0yM1tPSF0pW0NIMl1bQ0BASF0oW0NIM10pW0NAQEhdKFtDSDJdW0NIMl0xKUMoPVtDSF1bQ0BASF0yW09IXSlbQ0BdMyhbQ0gzXSlbQ0BIXShbQ0gyXTQpW0NIMl1bQ0BASF0oW0NAQEhdNVtDSDJdNilbQ0BAXShbQ0gzXSkoQyhbQ0gyXTcpPU5bQ0hdPVtDSF04KVtDQEBdNihbQ0gzXSlbQ0BIXTROOFtDQF01N1tDSDNd

>  <s_epik_cmdline>  (239) 
J2VwaWtfcHl0aG9uJywgJy1waHQnLCAnMi4wJywgJy1waCcsICc3LjAnLCAnLXRuJywgJzgnLCAnLW1hJywgJzIwMCcsICctaW1hZScsICc8aW5maWxlLm1hZT4nLCAnLW9tYWUnLCAnPG91dGZpbGUubWFlPic=

>  <r_lp_tautomer_probability>  (239) 
0.499993

>  <r_epik_Ionization_Penalty>  (239) 
0.000292899

>  <r_epik_Ionization_Penalty_Charging>  (239) 
0

>  <r_epik_Ionization_Penalty_Neutral>  (239) 
0.000292899

>  <r_epik_State_Penalty>  (239) 
0.452627

>  <r_epik_Charging_Adjusted_Penalty>  (239) 
0.452627

>  <i_epik_Tot_Q>  (239) 
0

>  <i_epik_Tot_abs_Q>  (239) 
0

>  <s_epik_Chemistry_Notes>  (239) 
This compound has an ester and may undergo hydrolysis at high or low pH. This compound has an imine and may undergo hydrolysis.

>  <s_lp_Force_Field>  (239) 
OPLS3e

>  <r_lp_Energy>  (239) 
782.949

>  <b_lp_Chiralities_Consistent>  (239) 
1

>  <s_lp_Variant>  (239) 
78:0-1

>  <s_i_glide_gridfile>  (239) 
pfpi4k_grid

>  <i_i_glide_lignum>  (239) 
27

>  <i_i_glide_rotatable_bonds>  (239) 
5

>  <r_i_docking_score>  (239) 
-3.42183

>  <r_i_glide_ligand_efficiency>  (239) 
-0.0877392

>  <r_i_glide_ligand_efficiency_sa>  (239) 
-0.297542

>  <r_i_glide_ligand_efficiency_ln>  (239) 
-0.733737

>  <r_i_glide_gscore>  (239) 
-3.42183

>  <r_i_glide_lipo>  (239) 
-0.596879

>  <r_i_glide_hbond>  (239) 
0

>  <r_i_glide_metal>  (239) 
-0

>  <r_i_glide_rewards>  (239) 
0

>  <r_i_glide_evdw>  (239) 
-38.6557

>  <r_i_glide_ecoul>  (239) 
-6.70743

>  <r_i_glide_erotb>  (239) 
0.144369

>  <r_i_glide_esite>  (239) 
-0.0304181

>  <r_i_glide_emodel>  (239) 
-49.8996

>  <r_i_glide_energy>  (239) 
-45.3631

>  <r_i_glide_einternal>  (239) 
7.18269

>  <r_i_glide_intrahb_reward>  (239) 
-0

>  <i_i_glide_confnum>  (239) 
1

>  <i_i_glide_posenum>  (239) 
25

>  <r_i_glide_eff_state_penalty>  (239) 
0

>  <ligand_id>  (239) 
78

>  <original_smiles>  (239) 
CC(=O)OC1CC(C)C2CCC1C1(O)C(O)C=C2C1(C)C1CC2N3C=CN=C4CC3(C)C3CC2(C)C4(C)C3C1

>  <smiles>  (239) 
[H]OC1([H])C([H])=C2C3([H])C([H])([H])C([H])([H])C([H])(C([H])(OC(=O)C([H])([H])[H])C([H])([H])C3([H])C([H])([H])[H])C1(O[H])C2(C([H])([H])[H])C1([H])C([H])([H])C2([H])N3C([H])=C([H])N=C4C([H])([H])C3(C([H])([H])[H])C3([H])C([H])([H])C2(C([H])([H])[H])C4(C([H])([H])[H])C3([H])C1([H])[H]

$$$$
78:0:2
     RDKit          3D

 85 92  0  0  1  0  0  0  0  0999 V2000
    6.7842  -12.8145    2.6546 C   0  0  0  0  0  0  0  0  0  0  0  0
    5.5745  -12.4917    3.5210 C   0  0  0  0  0  0  0  0  0  0  0  0
    5.0991  -13.3177    4.2960 O   0  0  0  0  0  0  0  0  0  0  0  0
    5.1451  -11.2266    3.3285 O   0  0  0  0  0  0  0  0  0  0  0  0
    4.1221  -10.6352    4.1206 C   0  0  2  0  0  0  0  0  0  0  0  0
    2.6881  -11.0720    3.6559 C   0  0  0  0  0  0  0  0  0  0  0  0
    1.7697  -10.1233    2.8304 C   0  0  1  0  0  0  0  0  0  0  0  0
    0.3139  -10.6218    2.8804 C   0  0  0  0  0  0  0  0  0  0  0  0
    1.8758   -8.6305    3.2381 C   0  0  1  0  0  0  0  0  0  0  0  0
    1.8409   -8.5708    4.8082 C   0  0  0  0  0  0  0  0  0  0  0  0
    3.1729   -8.8835    5.5595 C   0  0  0  0  0  0  0  0  0  0  0  0
    4.4063   -9.1585    4.6529 C   0  0  2  0  0  0  0  0  0  0  0  0
    4.9692   -7.9002    3.7442 C   0  0  1  0  0  0  0  0  0  0  0  0
    6.0423   -7.2727    4.4081 O   0  0  0  0  0  0  0  0  0  0  0  0
    5.3818   -8.3008    2.2934 C   0  0  1  0  0  0  0  0  0  0  0  0
    6.3043   -9.3455    2.0906 O   0  0  0  0  0  0  0  0  0  0  0  0
    3.9806   -8.5898    1.8049 C   0  0  0  0  0  0  0  0  0  0  0  0
    3.0938   -7.9203    2.5866 C   0  0  0  0  0  0  0  0  0  0  0  0
    3.8584   -6.8295    3.3233 C   0  0  1  0  0  0  0  0  0  0  0  0
    3.2154   -6.0029    4.4739 C   0  0  0  0  0  0  0  0  0  0  0  0
    4.2257   -5.6905    2.2263 C   0  0  2  0  0  0  0  0  0  0  0  0
    5.4505   -4.8143    2.5635 C   0  0  0  0  0  0  0  0  0  0  0  0
    5.3271   -3.4112    1.9265 C   0  0  2  0  0  0  0  0  0  0  0  0
    4.4671   -2.5027    2.8008 N   0  0  0  0  0  0  0  0  0  0  0  0
    5.3049   -1.5858    3.4478 C   0  0  0  0  0  0  0  0  0  0  0  0
    6.0338   -0.6804    2.7527 C   0  0  0  0  0  0  0  0  0  0  0  0
    6.0475   -0.6753    1.3148 N   0  0  0  0  0  0  0  0  0  0  0  0
    4.9249   -0.9534    0.8030 C   0  0  0  0  0  0  0  0  0  0  0  0
    3.6425   -0.5494    1.4595 C   0  0  0  0  0  0  0  0  0  0  0  0
    3.2309   -1.8493    2.1681 C   0  0  2  0  0  0  0  0  0  0  0  0
    2.2222   -1.4991    3.2885 C   0  0  0  0  0  0  0  0  0  0  0  0
    2.5114   -2.6522    0.9903 C   0  0  1  0  0  0  0  0  0  0  0  0
    3.2325   -2.7100   -0.3309 C   0  0  0  0  0  0  0  0  0  0  0  0
    4.8224   -3.4744    0.3387 C   0  0  2  0  0  0  0  0  0  0  0  0
    5.6825   -4.4307   -0.5615 C   0  0  0  0  0  0  0  0  0  0  0  0
    4.6851   -2.3026   -0.0496 C   0  0  2  0  0  0  0  0  0  0  0  0
    5.2899   -1.9933   -1.5233 C   0  0  0  0  0  0  0  0  0  0  0  0
    3.3853   -3.6771    0.5631 C   0  0  1  0  0  0  0  0  0  0  0  0
    3.0871   -4.7251    1.8161 C   0  0  0  0  0  0  0  0  0  0  0  0
    6.5212  -12.7181    1.6023 H   0  0  0  0  0  0  0  0  0  0  0  0
    7.1319  -13.8305    2.8438 H   0  0  0  0  0  0  0  0  0  0  0  0
    7.5988  -12.1238    2.8719 H   0  0  0  0  0  0  0  0  0  0  0  0
    4.2089  -11.2033    5.0491 H   0  0  0  0  0  0  0  0  0  0  0  0
    2.7626  -12.0203    3.1177 H   0  0  0  0  0  0  0  0  0  0  0  0
    2.1414  -11.3516    4.5598 H   0  0  0  0  0  0  0  0  0  0  0  0
    2.0115  -10.2365    1.7766 H   0  0  0  0  0  0  0  0  0  0  0  0
   -0.1044  -10.6349    3.8852 H   0  0  0  0  0  0  0  0  0  0  0  0
    0.2494  -11.6412    2.4961 H   0  0  0  0  0  0  0  0  0  0  0  0
   -0.3415  -10.0106    2.2564 H   0  0  0  0  0  0  0  0  0  0  0  0
    0.9968   -8.0999    2.8675 H   0  0  0  0  0  0  0  0  0  0  0  0
    1.4218   -7.6310    5.1603 H   0  0  0  0  0  0  0  0  0  0  0  0
    1.0893   -9.2695    5.1757 H   0  0  0  0  0  0  0  0  0  0  0  0
    3.3964   -8.1603    6.3406 H   0  0  0  0  0  0  0  0  0  0  0  0
    2.9847   -9.7677    6.1747 H   0  0  0  0  0  0  0  0  0  0  0  0
    5.2198   -9.3361    5.3615 H   0  0  0  0  0  0  0  0  0  0  0  0
    6.7203   -7.9115    4.5316 H   0  0  0  0  0  0  0  0  0  0  0  0
    5.8687   -7.4941    1.7605 H   0  0  0  0  0  0  0  0  0  0  0  0
    5.8879  -10.1573    2.3355 H   0  0  0  0  0  0  0  0  0  0  0  0
    3.8254   -9.5226    1.2922 H   0  0  0  0  0  0  0  0  0  0  0  0
    3.6557   -5.0110    4.5531 H   0  0  0  0  0  0  0  0  0  0  0  0
    3.3779   -6.3697    5.4734 H   0  0  0  0  0  0  0  0  0  0  0  0
    2.1543   -5.8316    4.3092 H   0  0  0  0  0  0  0  0  0  0  0  0
    4.4168   -6.1571    1.2651 H   0  0  0  0  0  0  0  0  0  0  0  0
    5.6028   -4.7105    3.6415 H   0  0  0  0  0  0  0  0  0  0  0  0
    6.3507   -5.3052    2.1856 H   0  0  0  0  0  0  0  0  0  0  0  0
    6.3704   -3.0665    1.9229 H   0  0  0  0  0  0  0  0  0  0  0  0
    5.2907   -1.6582    4.5283 H   0  0  0  0  0  0  0  0  0  0  0  0
    6.6870    0.0208    3.2381 H   0  0  0  0  0  0  0  0  0  0  0  0
    3.7872    0.2888    2.1430 H   0  0  0  0  0  0  0  0  0  0  0  0
    2.8969   -0.1943    0.7409 H   0  0  0  0  0  0  0  0  0  0  0  0
    1.3374   -0.9976    2.8884 H   0  0  0  0  0  0  0  0  0  0  0  0
    2.6812   -0.8193    4.0127 H   0  0  0  0  0  0  0  0  0  0  0  0
    1.9042   -2.3864    3.8361 H   0  0  0  0  0  0  0  0  0  0  0  0
    1.4433   -2.7792    1.0045 H   0  0  0  0  0  0  0  0  0  0  0  0
    2.7559   -3.1269   -1.2890 H   0  0  0  0  0  0  0  0  0  0  0  0
    2.9280   -1.7039   -0.7838 H   0  0  0  0  0  0  0  0  0  0  0  0
    5.1947   -4.6555   -1.5138 H   0  0  0  0  0  0  0  0  0  0  0  0
    5.8526   -5.4047   -0.1020 H   0  0  0  0  0  0  0  0  0  0  0  0
    6.6771   -4.0282   -0.7584 H   0  0  0  0  0  0  0  0  0  0  0  0
    4.9807   -2.6747   -2.3184 H   0  0  0  0  0  0  0  0  0  0  0  0
    6.3824   -1.9485   -1.4989 H   0  0  0  0  0  0  0  0  0  0  0  0
    4.9620   -1.0026   -1.8563 H   0  0  0  0  0  0  0  0  0  0  0  0
    3.0559   -4.6409   -0.0479 H   0  0  0  0  0  0  0  0  0  0  0  0
    2.2293   -5.3552    1.5489 H   0  0  0  0  0  0  0  0  0  0  0  0
    2.7105   -4.2362    2.7092 H   0  0  0  0  0  0  0  0  0  0  0  0
  1  2  1  0
  1 40  1  0
  1 41  1  0
  1 42  1  0
  2  3  2  0
  2  4  1  0
  4  5  1  0
  5 12  1  0
  5  6  1  0
  5 43  1  1
  6  7  1  0
  6 44  1  0
  6 45  1  0
  7  8  1  0
  7  9  1  0
  7 46  1  6
  8 47  1  0
  8 48  1  0
  8 49  1  0
  9 18  1  0
  9 10  1  0
  9 50  1  6
 10 11  1  0
 10 51  1  0
 10 52  1  0
 11 12  1  0
 11 53  1  0
 11 54  1  0
 12 13  1  0
 12 55  1  1
 13 19  1  0
 13 14  1  1
 13 15  1  0
 14 56  1  0
 15 16  1  0
 15 17  1  0
 15 57  1  6
 16 58  1  0
 17 18  2  0
 17 59  1  0
 18 19  1  0
 19 20  1  1
 19 21  1  0
 20 60  1  0
 20 61  1  0
 20 62  1  0
 21 39  1  0
 21 22  1  0
 21 63  1  6
 22 23  1  0
 22 64  1  0
 22 65  1  0
 23 34  1  0
 23 24  1  0
 23 66  1  6
 24 30  1  0
 24 25  1  0
 25 26  2  0
 25 67  1  0
 26 27  1  0
 26 68  1  0
 27 28  2  0
 28 36  1  0
 28 29  1  0
 29 30  1  0
 29 69  1  0
 29 70  1  0
 30 31  1  1
 30 32  1  0
 31 71  1  0
 31 72  1  0
 31 73  1  0
 32 38  1  0
 32 33  1  0
 32 74  1  6
 33 34  1  0
 33 75  1  0
 33 76  1  0
 34 35  1  6
 34 36  1  0
 35 77  1  0
 35 78  1  0
 35 79  1  0
 36 37  1  6
 36 38  1  0
 37 80  1  0
 37 81  1  0
 37 82  1  0
 38 39  1  0
 38 83  1  6
 39 84  1  0
 39 85  1  0
M  END
>  <i_m_ct_stereo_status>  (240) 
1

>  <s_m_source_file>  (240) 
/var/tmp/pbs.5076255.sched01/tmprae_yccg/80g5h6lheg.sdf

>  <i_m_source_file_index>  (240) 
27

>  <i_lp_mmshare_version>  (240) 
48012

>  <i_f3d_flags>  (240) 
0

>  <s_epik_input>  (240) 
W0NIM11DKD1PKU9bQ0BASF0oW0NASF0xW0NAQF0yM1tPSF0pW0NIMl1bQ0BASF0oW0NIM10pW0NAQEhdKFtDSDJdW0NIMl0xKUMoPVtDSF1bQ0BASF0yW09IXSlbQ0BdMyhbQ0gzXSlbQ0BIXShbQ0gyXTQpW0NIMl1bQ0BASF0oW0NAQEhdNVtDSDJdNilbQ0BAXShbQ0gzXSkoQyhbQ0gyXTcpPU5bQ0hdPVtDSF04KVtDQEBdNihbQ0gzXSlbQ0BIXTROOFtDQF01N1tDSDNd

>  <s_epik_cmdline>  (240) 
J2VwaWtfcHl0aG9uJywgJy1waHQnLCAnMi4wJywgJy1waCcsICc3LjAnLCAnLXRuJywgJzgnLCAnLW1hJywgJzIwMCcsICctaW1hZScsICc8aW5maWxlLm1hZT4nLCAnLW9tYWUnLCAnPG91dGZpbGUubWFlPic=

>  <r_lp_tautomer_probability>  (240) 
0.499993

>  <r_epik_Ionization_Penalty>  (240) 
0.000292899

>  <r_epik_Ionization_Penalty_Charging>  (240) 
0

>  <r_epik_Ionization_Penalty_Neutral>  (240) 
0.000292899

>  <r_epik_State_Penalty>  (240) 
0.452627

>  <r_epik_Charging_Adjusted_Penalty>  (240) 
0.452627

>  <i_epik_Tot_Q>  (240) 
0

>  <i_epik_Tot_abs_Q>  (240) 
0

>  <s_epik_Chemistry_Notes>  (240) 
This compound has an ester and may undergo hydrolysis at high or low pH. This compound has an imine and may undergo hydrolysis.

>  <s_lp_Force_Field>  (240) 
OPLS3e

>  <r_lp_Energy>  (240) 
782.949

>  <b_lp_Chiralities_Consistent>  (240) 
1

>  <s_lp_Variant>  (240) 
78:0-1

>  <s_i_glide_gridfile>  (240) 
pfpi4k_grid

>  <i_i_glide_lignum>  (240) 
27

>  <i_i_glide_rotatable_bonds>  (240) 
5

>  <r_i_docking_score>  (240) 
-2.86076

>  <r_i_glide_ligand_efficiency>  (240) 
-0.0733528

>  <r_i_glide_ligand_efficiency_sa>  (240) 
-0.248755

>  <r_i_glide_ligand_efficiency_ln>  (240) 
-0.613428

>  <r_i_glide_gscore>  (240) 
-2.86076

>  <r_i_glide_lipo>  (240) 
-0.429394

>  <r_i_glide_hbond>  (240) 
0

>  <r_i_glide_metal>  (240) 
-0

>  <r_i_glide_rewards>  (240) 
-0.666831

>  <r_i_glide_evdw>  (240) 
-32.1509

>  <r_i_glide_ecoul>  (240) 
-1.81094

>  <r_i_glide_erotb>  (240) 
0.144369

>  <r_i_glide_esite>  (240) 
-0.0297178

>  <r_i_glide_emodel>  (240) 
-46.5917

>  <r_i_glide_energy>  (240) 
-33.9618

>  <r_i_glide_einternal>  (240) 
0.811186

>  <r_i_glide_intrahb_reward>  (240) 
-0.5

>  <i_i_glide_confnum>  (240) 
1

>  <i_i_glide_posenum>  (240) 
35

>  <r_i_glide_eff_state_penalty>  (240) 
0

>  <ligand_id>  (240) 
78

>  <original_smiles>  (240) 
CC(=O)OC1CC(C)C2CCC1C1(O)C(O)C=C2C1(C)C1CC2N3C=CN=C4CC3(C)C3CC2(C)C4(C)C3C1

>  <smiles>  (240) 
[H]OC1([H])C([H])=C2C3([H])C([H])([H])C([H])([H])C([H])(C([H])(OC(=O)C([H])([H])[H])C([H])([H])C3([H])C([H])([H])[H])C1(O[H])C2(C([H])([H])[H])C1([H])C([H])([H])C2([H])N3C([H])=C([H])N=C4C([H])([H])C3(C([H])([H])[H])C3([H])C([H])([H])C2(C([H])([H])[H])C4(C([H])([H])[H])C3([H])C1([H])[H]

$$$$
78:1:0
     RDKit          3D

 85 92  0  0  1  0  0  0  0  0999 V2000
    4.7685  -12.9247    3.3134 C   0  0  0  0  0  0  0  0  0  0  0  0
    3.9413  -12.0619    4.2620 C   0  0  0  0  0  0  0  0  0  0  0  0
    4.2432  -11.9388    5.4456 O   0  0  0  0  0  0  0  0  0  0  0  0
    2.9668  -11.3837    3.5993 O   0  0  0  0  0  0  0  0  0  0  0  0
    2.0826  -10.5020    4.2829 C   0  0  2  0  0  0  0  0  0  0  0  0
    0.6737  -10.5292    3.5863 C   0  0  0  0  0  0  0  0  0  0  0  0
    0.1688   -9.3541    2.6916 C   0  0  1  0  0  0  0  0  0  0  0  0
   -1.3628   -9.4301    2.4788 C   0  0  0  0  0  0  0  0  0  0  0  0
    0.6019   -7.9518    3.1940 C   0  0  1  0  0  0  0  0  0  0  0  0
    0.3127   -7.9291    4.7403 C   0  0  0  0  0  0  0  0  0  0  0  0
    1.3831   -8.5925    5.6637 C   0  0  0  0  0  0  0  0  0  0  0  0
    2.6408   -9.1532    4.9394 C   0  0  2  0  0  0  0  0  0  0  0  0
    3.6453   -8.0691    4.1983 C   0  0  1  0  0  0  0  0  0  0  0  0
    4.7308   -7.7675    5.0488 O   0  0  0  0  0  0  0  0  0  0  0  0
    4.1722   -8.5524    2.8074 C   0  0  1  0  0  0  0  0  0  0  0  0
    4.8411   -9.7715    2.6258 O   0  0  0  0  0  0  0  0  0  0  0  0
    2.8510   -8.4308    2.0820 C   0  0  0  0  0  0  0  0  0  0  0  0
    2.0519   -7.5820    2.7709 C   0  0  0  0  0  0  0  0  0  0  0  0
    2.9339   -6.7292    3.6865 C   0  0  1  0  0  0  0  0  0  0  0  0
    2.2602   -5.8026    4.7627 C   0  0  0  0  0  0  0  0  0  0  0  0
    3.7555   -5.6901    2.7455 C   0  0  2  0  0  0  0  0  0  0  0  0
    4.8311   -4.7706    3.4128 C   0  0  0  0  0  0  0  0  0  0  0  0
    4.9609   -3.4274    2.6512 C   0  0  2  0  0  0  0  0  0  0  0  0
    3.7756   -2.5283    2.9999 N   0  0  0  0  0  0  0  0  0  0  0  0
    4.3613   -1.4558    3.8711 C   0  0  0  0  0  0  0  0  0  0  0  0
    5.5468   -0.6316    3.2623 C   0  0  0  0  0  0  0  0  0  0  0  0
    5.8091   -0.5181    2.0259 N   0  0  0  0  0  0  0  0  0  0  0  0
    4.8961   -1.1490    1.1800 C   0  0  0  0  0  0  0  0  0  0  0  0
    3.6225   -0.7819    1.3439 C   0  0  0  0  0  0  0  0  0  0  0  0
    2.9021   -1.9935    1.8210 C   0  0  2  0  0  0  0  0  0  0  0  0
    1.5222   -1.5948    2.3915 C   0  0  0  0  0  0  0  0  0  0  0  0
    2.7713   -2.9239    0.5002 C   0  0  1  0  0  0  0  0  0  0  0  0
    4.0176   -3.0583   -0.3287 C   0  0  0  0  0  0  0  0  0  0  0  0
    5.1342   -3.7079    1.0428 C   0  0  2  0  0  0  0  0  0  0  0  0
    6.3163   -4.7022    0.7233 C   0  0  0  0  0  0  0  0  0  0  0  0
    5.1643   -2.5798    0.5589 C   0  0  2  0  0  0  0  0  0  0  0  0
    6.3952   -2.3515   -0.4690 C   0  0  0  0  0  0  0  0  0  0  0  0
    3.7221   -3.9379    0.6557 C   0  0  1  0  0  0  0  0  0  0  0  0
    2.9056   -4.8318    1.7846 C   0  0  0  0  0  0  0  0  0  0  0  0
    4.1428  -13.6931    2.8647 H   0  0  0  0  0  0  0  0  0  0  0  0
    5.6006  -13.3901    3.8391 H   0  0  0  0  0  0  0  0  0  0  0  0
    5.1823  -12.3199    2.5070 H   0  0  0  0  0  0  0  0  0  0  0  0
    1.8513  -11.1192    5.1562 H   0  0  0  0  0  0  0  0  0  0  0  0
    0.5930  -11.4560    3.0183 H   0  0  0  0  0  0  0  0  0  0  0  0
   -0.0643  -10.6654    4.3767 H   0  0  0  0  0  0  0  0  0  0  0  0
    0.5465   -9.5091    1.6892 H   0  0  0  0  0  0  0  0  0  0  0  0
   -1.9322   -9.3602    3.4084 H   0  0  0  0  0  0  0  0  0  0  0  0
   -1.6329  -10.3733    2.0189 H   0  0  0  0  0  0  0  0  0  0  0  0
   -1.7252   -8.6549    1.8070 H   0  0  0  0  0  0  0  0  0  0  0  0
   -0.0413   -7.2079    2.7284 H   0  0  0  0  0  0  0  0  0  0  0  0
    0.0838   -6.9274    5.0870 H   0  0  0  0  0  0  0  0  0  0  0  0
   -0.6447   -8.4046    4.9510 H   0  0  0  0  0  0  0  0  0  0  0  0
    1.6547   -7.9804    6.5183 H   0  0  0  0  0  0  0  0  0  0  0  0
    0.8832   -9.4081    6.1890 H   0  0  0  0  0  0  0  0  0  0  0  0
    3.2433   -9.5350    5.7601 H   0  0  0  0  0  0  0  0  0  0  0  0
    5.1265   -8.5900    5.2978 H   0  0  0  0  0  0  0  0  0  0  0  0
    4.9794   -7.9346    2.4401 H   0  0  0  0  0  0  0  0  0  0  0  0
    4.2273  -10.4421    2.3540 H   0  0  0  0  0  0  0  0  0  0  0  0
    2.5328   -9.2815    1.4920 H   0  0  0  0  0  0  0  0  0  0  0  0
    2.7922   -4.9064    5.0410 H   0  0  0  0  0  0  0  0  0  0  0  0
    2.1922   -6.2532    5.7414 H   0  0  0  0  0  0  0  0  0  0  0  0
    1.2988   -5.4106    4.4191 H   0  0  0  0  0  0  0  0  0  0  0  0
    4.2810   -6.1939    1.9508 H   0  0  0  0  0  0  0  0  0  0  0  0
    4.7190   -4.5199    4.4645 H   0  0  0  0  0  0  0  0  0  0  0  0
    5.7788   -5.3221    3.3933 H   0  0  0  0  0  0  0  0  0  0  0  0
    5.9017   -3.0425    3.0224 H   0  0  0  0  0  0  0  0  0  0  0  0
    3.5906   -0.7608    4.1952 H   0  0  0  0  0  0  0  0  0  0  0  0
    6.1790   -0.1613    4.0294 H   0  0  0  0  0  0  0  0  0  0  0  0
    3.3314    0.1392    1.8274 H   0  0  0  0  0  0  0  0  0  0  0  0
    4.7392   -1.9268    4.7718 H   0  0  0  0  0  0  0  0  0  0  0  0
    0.8929   -1.1517    1.6194 H   0  0  0  0  0  0  0  0  0  0  0  0
    1.5967   -0.8498    3.1850 H   0  0  0  0  0  0  0  0  0  0  0  0
    0.9817   -2.4507    2.7995 H   0  0  0  0  0  0  0  0  0  0  0  0
    1.8181   -3.1867    0.0399 H   0  0  0  0  0  0  0  0  0  0  0  0
    4.0288   -3.5964   -1.3397 H   0  0  0  0  0  0  0  0  0  0  0  0
    3.9345   -2.0910   -0.9325 H   0  0  0  0  0  0  0  0  0  0  0  0
    6.3427   -4.9948   -0.3215 H   0  0  0  0  0  0  0  0  0  0  0  0
    6.2267   -5.6420    1.2575 H   0  0  0  0  0  0  0  0  0  0  0  0
    7.2904   -4.3024    1.0128 H   0  0  0  0  0  0  0  0  0  0  0  0
    6.4963   -3.0710   -1.2827 H   0  0  0  0  0  0  0  0  0  0  0  0
    7.3375   -2.2846    0.0765 H   0  0  0  0  0  0  0  0  0  0  0  0
    6.2768   -1.3803   -0.9480 H   0  0  0  0  0  0  0  0  0  0  0  0
    3.7041   -4.9572    0.0539 H   0  0  0  0  0  0  0  0  0  0  0  0
    2.2698   -5.5024    1.2085 H   0  0  0  0  0  0  0  0  0  0  0  0
    2.1643   -4.3118    2.3868 H   0  0  0  0  0  0  0  0  0  0  0  0
  1  2  1  0
  1 40  1  0
  1 41  1  0
  1 42  1  0
  2  3  2  0
  2  4  1  0
  4  5  1  0
  5 12  1  0
  5  6  1  0
  5 43  1  1
  6  7  1  0
  6 44  1  0
  6 45  1  0
  7  8  1  0
  7  9  1  0
  7 46  1  6
  8 47  1  0
  8 48  1  0
  8 49  1  0
  9 18  1  0
  9 10  1  0
  9 50  1  6
 10 11  1  0
 10 51  1  0
 10 52  1  0
 11 12  1  0
 11 53  1  0
 11 54  1  0
 12 13  1  0
 12 55  1  1
 13 19  1  0
 13 14  1  1
 13 15  1  0
 14 56  1  0
 15 16  1  0
 15 17  1  0
 15 57  1  6
 16 58  1  0
 17 18  2  0
 17 59  1  0
 18 19  1  0
 19 20  1  1
 19 21  1  0
 20 60  1  0
 20 61  1  0
 20 62  1  0
 21 39  1  0
 21 22  1  0
 21 63  1  6
 22 23  1  0
 22 64  1  0
 22 65  1  0
 23 34  1  0
 23 24  1  0
 23 66  1  1
 24 30  1  0
 24 25  1  0
 25 67  1  0
 25 70  1  0
 25 26  1  0
 26 68  1  0
 26 27  2  0
 27 28  1  0
 28 36  1  0
 28 29  2  0
 29 30  1  0
 29 69  1  0
 30 31  1  1
 30 32  1  0
 31 71  1  0
 31 72  1  0
 31 73  1  0
 32 38  1  0
 32 33  1  0
 32 74  1  6
 33 34  1  0
 33 75  1  0
 33 76  1  0
 34 35  1  1
 34 36  1  0
 35 77  1  0
 35 78  1  0
 35 79  1  0
 36 37  1  6
 36 38  1  0
 37 80  1  0
 37 81  1  0
 37 82  1  0
 38 39  1  0
 38 83  1  6
 39 84  1  0
 39 85  1  0
M  END
>  <i_m_ct_stereo_status>  (241) 
1

>  <s_m_source_file>  (241) 
/var/tmp/pbs.5076255.sched01/tmprae_yccg/80g5h6lheg.sdf

>  <i_m_source_file_index>  (241) 
28

>  <i_lp_mmshare_version>  (241) 
48012

>  <i_f3d_flags>  (241) 
0

>  <s_epik_input>  (241) 
W0NIM11DKD1PKU9bQ0BASF0oW0NASF0xW0NAQF0yM1tPSF0pW0NIMl1bQ0BASF0oW0NIM10pW0NAQEhdKFtDSDJdW0NIMl0xKUMoPVtDSF1bQ0BASF0yW09IXSlbQ0BdMyhbQ0gzXSlbQ0BIXShbQ0gyXTQpW0NIMl1bQ0BASF0oW0NAQEhdNVtDSDJdNilbQ0BAXShbQ0gzXSkoQyhbQ0gyXTcpPU5bQ0hdPVtDSF04KVtDQEBdNihbQ0gzXSlbQ0BIXTROOFtDQF01N1tDSDNd

>  <s_epik_cmdline>  (241) 
J2VwaWtfcHl0aG9uJywgJy1waHQnLCAnMi4wJywgJy1waCcsICc3LjAnLCAnLXRuJywgJzgnLCAnLW1hJywgJzIwMCcsICctaW1hZScsICc8aW5maWxlLm1hZT4nLCAnLW9tYWUnLCAnPG91dGZpbGUubWFlPic=

>  <r_lp_tautomer_probability>  (241) 
0.499993

>  <r_epik_Ionization_Penalty>  (241) 
0.0907622

>  <r_epik_Ionization_Penalty_Charging>  (241) 
0

>  <r_epik_Ionization_Penalty_Neutral>  (241) 
0.0907622

>  <r_epik_State_Penalty>  (241) 
0.452627

>  <r_epik_Charging_Adjusted_Penalty>  (241) 
0.452627

>  <i_epik_Tot_Q>  (241) 
0

>  <i_epik_Tot_abs_Q>  (241) 
0

>  <s_epik_Chemistry_Notes>  (241) 
This compound has an ester and may undergo hydrolysis at high or low pH. This compound has an imine and may undergo hydrolysis.

>  <s_lp_Force_Field>  (241) 
OPLS3e

>  <r_lp_Energy>  (241) 
756.928

>  <b_lp_Chiralities_Consistent>  (241) 
1

>  <s_lp_Variant>  (241) 
78:0-2

>  <s_i_glide_gridfile>  (241) 
pfpi4k_grid

>  <i_i_glide_lignum>  (241) 
28

>  <i_i_glide_rotatable_bonds>  (241) 
5

>  <r_i_docking_score>  (241) 
-3.30128

>  <r_i_glide_ligand_efficiency>  (241) 
-0.0846482

>  <r_i_glide_ligand_efficiency_sa>  (241) 
-0.28706

>  <r_i_glide_ligand_efficiency_ln>  (241) 
-0.707888

>  <r_i_glide_gscore>  (241) 
-3.30128

>  <r_i_glide_lipo>  (241) 
-0.555414

>  <r_i_glide_hbond>  (241) 
-0.1054

>  <r_i_glide_metal>  (241) 
-0

>  <r_i_glide_rewards>  (241) 
-0.670408

>  <r_i_glide_evdw>  (241) 
-37.7029

>  <r_i_glide_ecoul>  (241) 
-1.40236

>  <r_i_glide_erotb>  (241) 
0.144369

>  <r_i_glide_esite>  (241) 
-0.0189277

>  <r_i_glide_emodel>  (241) 
-48.4288

>  <r_i_glide_energy>  (241) 
-39.1052

>  <r_i_glide_einternal>  (241) 
4.69653

>  <r_i_glide_intrahb_reward>  (241) 
-0.5

>  <i_i_glide_confnum>  (241) 
1

>  <i_i_glide_posenum>  (241) 
16

>  <r_i_glide_eff_state_penalty>  (241) 
0

>  <ligand_id>  (241) 
78

>  <original_smiles>  (241) 
CC(=O)OC1CC(C)C2CCC1C1(O)C(O)C=C2C1(C)C1CC2N3C=CN=C4CC3(C)C3CC2(C)C4(C)C3C1

>  <smiles>  (241) 
[H]OC1([H])C([H])=C2C3([H])C([H])([H])C([H])([H])C([H])(C([H])(OC(=O)C([H])([H])[H])C([H])([H])C3([H])C([H])([H])[H])C1(O[H])C2(C([H])([H])[H])C1([H])C([H])([H])C2([H])N3C([H])([H])C([H])=NC4=C([H])C3(C([H])([H])[H])C3([H])C([H])([H])C2(C([H])([H])[H])C4(C([H])([H])[H])C3([H])C1([H])[H]

$$$$
78:1:1
     RDKit          3D

 85 92  0  0  1  0  0  0  0  0999 V2000
    4.1046  -11.9183    5.7609 C   0  0  0  0  0  0  0  0  0  0  0  0
    3.8959  -12.1033    4.2493 C   0  0  0  0  0  0  0  0  0  0  0  0
    4.6582  -12.8513    3.6161 O   0  0  0  0  0  0  0  0  0  0  0  0
    2.9430  -11.3595    3.6113 O   0  0  0  0  0  0  0  0  0  0  0  0
    2.0692  -10.4165    4.2260 C   0  0  2  0  0  0  0  0  0  0  0  0
    0.6445  -10.4847    3.5629 C   0  0  0  0  0  0  0  0  0  0  0  0
    0.1140   -9.3277    2.6900 C   0  0  1  0  0  0  0  0  0  0  0  0
   -1.4122   -9.4022    2.5108 C   0  0  0  0  0  0  0  0  0  0  0  0
    0.5724   -7.9157    3.1226 C   0  0  1  0  0  0  0  0  0  0  0  0
    0.3150   -7.8456    4.6737 C   0  0  0  0  0  0  0  0  0  0  0  0
    1.4137   -8.4804    5.5704 C   0  0  0  0  0  0  0  0  0  0  0  0
    2.6689   -9.0534    4.8512 C   0  0  2  0  0  0  0  0  0  0  0  0
    3.6490   -7.9997    4.0152 C   0  0  1  0  0  0  0  0  0  0  0  0
    4.7727   -7.6990    4.8066 O   0  0  0  0  0  0  0  0  0  0  0  0
    4.1361   -8.5545    2.6274 C   0  0  1  0  0  0  0  0  0  0  0  0
    4.7711   -9.8186    2.5368 O   0  0  0  0  0  0  0  0  0  0  0  0
    2.7894   -8.4399    1.9475 C   0  0  0  0  0  0  0  0  0  0  0  0
    2.0140   -7.5586    2.6322 C   0  0  0  0  0  0  0  0  0  0  0  0
    2.9268   -6.6739    3.4946 C   0  0  1  0  0  0  0  0  0  0  0  0
    2.3142   -5.7124    4.5813 C   0  0  0  0  0  0  0  0  0  0  0  0
    3.7376   -5.6858    2.5141 C   0  0  2  0  0  0  0  0  0  0  0  0
    4.8681   -4.7939    3.1431 C   0  0  0  0  0  0  0  0  0  0  0  0
    4.9848   -3.4585    2.3516 C   0  0  2  0  0  0  0  0  0  0  0  0
    3.8363   -2.5331    2.7477 N   0  0  0  0  0  0  0  0  0  0  0  0
    4.4836   -1.4603    3.5601 C   0  0  0  0  0  0  0  0  0  0  0  0
    5.6461   -0.6740    2.8804 C   0  0  0  0  0  0  0  0  0  0  0  0
    5.8412   -0.5790    1.6300 N   0  0  0  0  0  0  0  0  0  0  0  0
    4.8674   -1.1861    0.8312 C   0  0  0  0  0  0  0  0  0  0  0  0
    3.6054   -0.8071    1.0685 C   0  0  0  0  0  0  0  0  0  0  0  0
    2.9058   -1.9998    1.6104 C   0  0  2  0  0  0  0  0  0  0  0  0
    1.5677   -1.5660    2.2465 C   0  0  0  0  0  0  0  0  0  0  0  0
    2.6910   -2.9442    0.3062 C   0  0  1  0  0  0  0  0  0  0  0  0
    3.8802   -3.1099   -0.5904 C   0  0  0  0  0  0  0  0  0  0  0  0
    5.0553   -3.7594    0.7367 C   0  0  2  0  0  0  0  0  0  0  0  0
    6.1918   -4.7806    0.3557 C   0  0  0  0  0  0  0  0  0  0  0  0
    5.0860   -2.6394    0.2309 C   0  0  2  0  0  0  0  0  0  0  0  0
    6.2554   -2.4567   -0.8736 C   0  0  0  0  0  0  0  0  0  0  0  0
    3.6266   -3.9739    0.4211 C   0  0  1  0  0  0  0  0  0  0  0  0
    2.8452   -4.8169    1.6052 C   0  0  0  0  0  0  0  0  0  0  0  0
    4.4818  -10.9340    5.9660 H   0  0  0  0  0  0  0  0  0  0  0  0
    4.8117  -12.6783    6.1548 H   0  0  0  0  0  0  0  0  0  0  0  0
    3.1585  -12.0976    6.2983 H   0  0  0  0  0  0  0  0  0  0  0  0
    1.7771  -10.9824    5.0976 H   0  0  0  0  0  0  0  0  0  0  0  0
    0.5496  -11.4382    3.0427 H   0  0  0  0  0  0  0  0  0  0  0  0
   -0.0563  -10.5943    4.3898 H   0  0  0  0  0  0  0  0  0  0  0  0
    0.4802   -9.5261    1.6944 H   0  0  0  0  0  0  0  0  0  0  0  0
   -1.9399   -9.3290    3.4654 H   0  0  0  0  0  0  0  0  0  0  0  0
   -1.6928  -10.3404    2.0517 H   0  0  0  0  0  0  0  0  0  0  0  0
   -1.7893   -8.6267    1.8484 H   0  0  0  0  0  0  0  0  0  0  0  0
   -0.0883   -7.1848    2.6594 H   0  0  0  0  0  0  0  0  0  0  0  0
    0.1064   -6.8384    5.0148 H   0  0  0  0  0  0  0  0  0  0  0  0
   -0.6255   -8.3307    4.9326 H   0  0  0  0  0  0  0  0  0  0  0  0
    1.7087   -7.8587    6.4011 H   0  0  0  0  0  0  0  0  0  0  0  0
    0.9492   -9.2946    6.1230 H   0  0  0  0  0  0  0  0  0  0  0  0
    3.2279   -9.3118    5.7246 H   0  0  0  0  0  0  0  0  0  0  0  0
    5.1948   -8.5178    5.0296 H   0  0  0  0  0  0  0  0  0  0  0  0
    4.9190   -7.9418    2.2004 H   0  0  0  0  0  0  0  0  0  0  0  0
    4.3221  -10.3977    1.9248 H   0  0  0  0  0  0  0  0  0  0  0  0
    2.4349   -9.3237    1.4293 H   0  0  0  0  0  0  0  0  0  0  0  0
    2.8745   -4.8288    4.7957 H   0  0  0  0  0  0  0  0  0  0  0  0
    2.2622   -6.1665    5.5659 H   0  0  0  0  0  0  0  0  0  0  0  0
    1.3118   -5.3674    4.2697 H   0  0  0  0  0  0  0  0  0  0  0  0
    4.1947   -6.2378    1.7094 H   0  0  0  0  0  0  0  0  0  0  0  0
    4.7827   -4.5362    4.1890 H   0  0  0  0  0  0  0  0  0  0  0  0
    5.8053   -5.3679    3.0239 H   0  0  0  0  0  0  0  0  0  0  0  0
    5.9631   -3.0739    2.6308 H   0  0  0  0  0  0  0  0  0  0  0  0
    3.7406   -0.7561    3.9124 H   0  0  0  0  0  0  0  0  0  0  0  0
    6.3154   -0.2083    3.6136 H   0  0  0  0  0  0  0  0  0  0  0  0
    3.3687    0.1198    1.5676 H   0  0  0  0  0  0  0  0  0  0  0  0
    4.9065   -1.9365    4.4312 H   0  0  0  0  0  0  0  0  0  0  0  0
    0.9104   -1.1155    1.4994 H   0  0  0  0  0  0  0  0  0  0  0  0
    1.7088   -0.8113    3.0229 H   0  0  0  0  0  0  0  0  0  0  0  0
    1.0392   -2.4122    2.6882 H   0  0  0  0  0  0  0  0  0  0  0  0
    1.7298   -3.1644   -0.1432 H   0  0  0  0  0  0  0  0  0  0  0  0
    3.8166   -3.6590   -1.5971 H   0  0  0  0  0  0  0  0  0  0  0  0
    3.7789   -2.1404   -1.1991 H   0  0  0  0  0  0  0  0  0  0  0  0
    6.1258   -5.0534   -0.6968 H   0  0  0  0  0  0  0  0  0  0  0  0
    6.1095   -5.7192    0.8966 H   0  0  0  0  0  0  0  0  0  0  0  0
    7.1865   -4.3877    0.5861 H   0  0  0  0  0  0  0  0  0  0  0  0
    6.2837   -3.1897   -1.6833 H   0  0  0  0  0  0  0  0  0  0  0  0
    7.2211   -2.4109   -0.3725 H   0  0  0  0  0  0  0  0  0  0  0  0
    6.1208   -1.4892   -1.3538 H   0  0  0  0  0  0  0  0  0  0  0  0
    3.5437   -5.0038   -0.1615 H   0  0  0  0  0  0  0  0  0  0  0  0
    2.1719   -5.4825    1.0645 H   0  0  0  0  0  0  0  0  0  0  0  0
    2.1469   -4.2804    2.2518 H   0  0  0  0  0  0  0  0  0  0  0  0
  1  2  1  0
  1 40  1  0
  1 41  1  0
  1 42  1  0
  2  3  2  0
  2  4  1  0
  4  5  1  0
  5 12  1  0
  5  6  1  0
  5 43  1  1
  6  7  1  0
  6 44  1  0
  6 45  1  0
  7  8  1  0
  7  9  1  0
  7 46  1  6
  8 47  1  0
  8 48  1  0
  8 49  1  0
  9 18  1  0
  9 10  1  0
  9 50  1  6
 10 11  1  0
 10 51  1  0
 10 52  1  0
 11 12  1  0
 11 53  1  0
 11 54  1  0
 12 13  1  0
 12 55  1  1
 13 19  1  0
 13 14  1  1
 13 15  1  0
 14 56  1  0
 15 16  1  0
 15 17  1  0
 15 57  1  6
 16 58  1  0
 17 18  2  0
 17 59  1  0
 18 19  1  0
 19 20  1  1
 19 21  1  0
 20 60  1  0
 20 61  1  0
 20 62  1  0
 21 39  1  0
 21 22  1  0
 21 63  1  6
 22 23  1  0
 22 64  1  0
 22 65  1  0
 23 34  1  0
 23 24  1  0
 23 66  1  1
 24 30  1  0
 24 25  1  0
 25 67  1  0
 25 70  1  0
 25 26  1  0
 26 68  1  0
 26 27  2  0
 27 28  1  0
 28 36  1  0
 28 29  2  0
 29 30  1  0
 29 69  1  0
 30 31  1  1
 30 32  1  0
 31 71  1  0
 31 72  1  0
 31 73  1  0
 32 38  1  0
 32 33  1  0
 32 74  1  6
 33 34  1  0
 33 75  1  0
 33 76  1  0
 34 35  1  1
 34 36  1  0
 35 77  1  0
 35 78  1  0
 35 79  1  0
 36 37  1  6
 36 38  1  0
 37 80  1  0
 37 81  1  0
 37 82  1  0
 38 39  1  0
 38 83  1  6
 39 84  1  0
 39 85  1  0
M  END
>  <i_m_ct_stereo_status>  (242) 
1

>  <s_m_source_file>  (242) 
/var/tmp/pbs.5076255.sched01/tmprae_yccg/80g5h6lheg.sdf

>  <i_m_source_file_index>  (242) 
28

>  <i_lp_mmshare_version>  (242) 
48012

>  <i_f3d_flags>  (242) 
0

>  <s_epik_input>  (242) 
W0NIM11DKD1PKU9bQ0BASF0oW0NASF0xW0NAQF0yM1tPSF0pW0NIMl1bQ0BASF0oW0NIM10pW0NAQEhdKFtDSDJdW0NIMl0xKUMoPVtDSF1bQ0BASF0yW09IXSlbQ0BdMyhbQ0gzXSlbQ0BIXShbQ0gyXTQpW0NIMl1bQ0BASF0oW0NAQEhdNVtDSDJdNilbQ0BAXShbQ0gzXSkoQyhbQ0gyXTcpPU5bQ0hdPVtDSF04KVtDQEBdNihbQ0gzXSlbQ0BIXTROOFtDQF01N1tDSDNd

>  <s_epik_cmdline>  (242) 
J2VwaWtfcHl0aG9uJywgJy1waHQnLCAnMi4wJywgJy1waCcsICc3LjAnLCAnLXRuJywgJzgnLCAnLW1hJywgJzIwMCcsICctaW1hZScsICc8aW5maWxlLm1hZT4nLCAnLW9tYWUnLCAnPG91dGZpbGUubWFlPic=

>  <r_lp_tautomer_probability>  (242) 
0.499993

>  <r_epik_Ionization_Penalty>  (242) 
0.0907622

>  <r_epik_Ionization_Penalty_Charging>  (242) 
0

>  <r_epik_Ionization_Penalty_Neutral>  (242) 
0.0907622

>  <r_epik_State_Penalty>  (242) 
0.452627

>  <r_epik_Charging_Adjusted_Penalty>  (242) 
0.452627

>  <i_epik_Tot_Q>  (242) 
0

>  <i_epik_Tot_abs_Q>  (242) 
0

>  <s_epik_Chemistry_Notes>  (242) 
This compound has an ester and may undergo hydrolysis at high or low pH. This compound has an imine and may undergo hydrolysis.

>  <s_lp_Force_Field>  (242) 
OPLS3e

>  <r_lp_Energy>  (242) 
756.928

>  <b_lp_Chiralities_Consistent>  (242) 
1

>  <s_lp_Variant>  (242) 
78:0-2

>  <s_i_glide_gridfile>  (242) 
pfpi4k_grid

>  <i_i_glide_lignum>  (242) 
28

>  <i_i_glide_rotatable_bonds>  (242) 
5

>  <r_i_docking_score>  (242) 
-2.70061

>  <r_i_glide_ligand_efficiency>  (242) 
-0.0692465

>  <r_i_glide_ligand_efficiency_sa>  (242) 
-0.234829

>  <r_i_glide_ligand_efficiency_ln>  (242) 
-0.579088

>  <r_i_glide_gscore>  (242) 
-2.70061

>  <r_i_glide_lipo>  (242) 
-0.546543

>  <r_i_glide_hbond>  (242) 
-0.0503457

>  <r_i_glide_metal>  (242) 
-0

>  <r_i_glide_rewards>  (242) 
-0.134467

>  <r_i_glide_evdw>  (242) 
-37.1422

>  <r_i_glide_ecoul>  (242) 
-1.57742

>  <r_i_glide_erotb>  (242) 
0.144369

>  <r_i_glide_esite>  (242) 
-0.0199047

>  <r_i_glide_emodel>  (242) 
-38.7602

>  <r_i_glide_energy>  (242) 
-38.7196

>  <r_i_glide_einternal>  (242) 
9.07469

>  <r_i_glide_intrahb_reward>  (242) 
-0

>  <i_i_glide_confnum>  (242) 
4

>  <i_i_glide_posenum>  (242) 
12

>  <r_i_glide_eff_state_penalty>  (242) 
0

>  <ligand_id>  (242) 
78

>  <original_smiles>  (242) 
CC(=O)OC1CC(C)C2CCC1C1(O)C(O)C=C2C1(C)C1CC2N3C=CN=C4CC3(C)C3CC2(C)C4(C)C3C1

>  <smiles>  (242) 
[H]OC1([H])C([H])=C2C3([H])C([H])([H])C([H])([H])C([H])(C([H])(OC(=O)C([H])([H])[H])C([H])([H])C3([H])C([H])([H])[H])C1(O[H])C2(C([H])([H])[H])C1([H])C([H])([H])C2([H])N3C([H])([H])C([H])=NC4=C([H])C3(C([H])([H])[H])C3([H])C([H])([H])C2(C([H])([H])[H])C4(C([H])([H])[H])C3([H])C1([H])[H]

$$$$
78:1:2
     RDKit          3D

 85 92  0  0  1  0  0  0  0  0999 V2000
    4.9882  -13.0042    6.5040 C   0  0  0  0  0  0  0  0  0  0  0  0
    5.7046  -12.3983    5.2991 C   0  0  0  0  0  0  0  0  0  0  0  0
    6.7508  -12.8932    4.8909 O   0  0  0  0  0  0  0  0  0  0  0  0
    5.1418  -11.3076    4.7048 O   0  0  0  0  0  0  0  0  0  0  0  0
    3.9506  -10.6432    5.1118 C   0  0  2  0  0  0  0  0  0  0  0  0
    2.7272  -11.2439    4.3545 C   0  0  0  0  0  0  0  0  0  0  0  0
    2.0187  -10.4383    3.2404 C   0  0  1  0  0  0  0  0  0  0  0  0
    0.6250  -11.0400    2.9729 C   0  0  0  0  0  0  0  0  0  0  0  0
    1.9480   -8.9147    3.5449 C   0  0  1  0  0  0  0  0  0  0  0  0
    1.4961   -8.7580    5.0453 C   0  0  0  0  0  0  0  0  0  0  0  0
    2.5954   -8.9034    6.1415 C   0  0  0  0  0  0  0  0  0  0  0  0
    4.0360   -9.1320    5.6031 C   0  0  2  0  0  0  0  0  0  0  0  0
    4.7506   -7.9023    4.7751 C   0  0  1  0  0  0  0  0  0  0  0  0
    5.5873   -7.1626    5.6430 O   0  0  0  0  0  0  0  0  0  0  0  0
    5.5620   -8.3852    3.5459 C   0  0  1  0  0  0  0  0  0  0  0  0
    6.5489   -9.3682    3.7153 O   0  0  0  0  0  0  0  0  0  0  0  0
    4.3572   -8.8093    2.7200 C   0  0  0  0  0  0  0  0  0  0  0  0
    3.2598   -8.1594    3.1724 C   0  0  0  0  0  0  0  0  0  0  0  0
    3.7392   -6.9601    3.9937 C   0  0  1  0  0  0  0  0  0  0  0  0
    2.7420   -6.1254    4.8598 C   0  0  0  0  0  0  0  0  0  0  0  0
    4.3195   -5.8736    2.9509 C   0  0  2  0  0  0  0  0  0  0  0  0
    5.2305   -4.7679    3.5426 C   0  0  0  0  0  0  0  0  0  0  0  0
    5.1471   -3.4570    2.7217 C   0  0  2  0  0  0  0  0  0  0  0  0
    3.8832   -2.7046    3.1298 N   0  0  0  0  0  0  0  0  0  0  0  0
    4.3857   -1.5319    3.9111 C   0  0  0  0  0  0  0  0  0  0  0  0
    5.3941   -0.5691    3.1874 C   0  0  0  0  0  0  0  0  0  0  0  0
    5.5146   -0.4643    1.9206 N   0  0  0  0  0  0  0  0  0  0  0  0
    4.6500   -1.2642    1.1828 C   0  0  0  0  0  0  0  0  0  0  0  0
    3.3566   -1.0822    1.4381 C   0  0  0  0  0  0  0  0  0  0  0  0
    2.8572   -2.3621    2.0115 C   0  0  2  0  0  0  0  0  0  0  0  0
    1.4886   -2.1433    2.6835 C   0  0  0  0  0  0  0  0  0  0  0  0
    2.7588   -3.3597    0.7373 C   0  0  1  0  0  0  0  0  0  0  0  0
    3.9454   -3.3478   -0.1888 C   0  0  0  0  0  0  0  0  0  0  0  0
    5.2483   -3.7707    1.1099 C   0  0  2  0  0  0  0  0  0  0  0  0
    6.5337   -4.5951    0.7278 C   0  0  0  0  0  0  0  0  0  0  0  0
    5.0828   -2.6755    0.5859 C   0  0  2  0  0  0  0  0  0  0  0  0
    6.1723   -2.3125   -0.5515 C   0  0  0  0  0  0  0  0  0  0  0  0
    3.8619   -4.2160    0.8415 C   0  0  1  0  0  0  0  0  0  0  0  0
    3.2795   -5.1884    2.0427 C   0  0  0  0  0  0  0  0  0  0  0  0
    4.9822  -12.2942    7.3282 H   0  0  0  0  0  0  0  0  0  0  0  0
    5.4664  -13.9225    6.8648 H   0  0  0  0  0  0  0  0  0  0  0  0
    3.9670  -13.2551    6.2254 H   0  0  0  0  0  0  0  0  0  0  0  0
    3.7158  -11.0437    6.0877 H   0  0  0  0  0  0  0  0  0  0  0  0
    3.0074  -12.2209    3.9576 H   0  0  0  0  0  0  0  0  0  0  0  0
    1.9893  -11.5012    5.1166 H   0  0  0  0  0  0  0  0  0  0  0  0
    2.5410  -10.6134    2.3053 H   0  0  0  0  0  0  0  0  0  0  0  0
   -0.0359  -11.0008    3.8398 H   0  0  0  0  0  0  0  0  0  0  0  0
    0.7103  -12.0906    2.6918 H   0  0  0  0  0  0  0  0  0  0  0  0
    0.1320  -10.5266    2.1469 H   0  0  0  0  0  0  0  0  0  0  0  0
    1.1696   -8.4812    2.9248 H   0  0  0  0  0  0  0  0  0  0  0  0
    0.9439   -7.8380    5.2017 H   0  0  0  0  0  0  0  0  0  0  0  0
    0.7145   -9.4870    5.2675 H   0  0  0  0  0  0  0  0  0  0  0  0
    2.5647   -8.1250    6.8966 H   0  0  0  0  0  0  0  0  0  0  0  0
    2.2955   -9.7525    6.7630 H   0  0  0  0  0  0  0  0  0  0  0  0
    4.6493   -9.2307    6.4926 H   0  0  0  0  0  0  0  0  0  0  0  0
    6.2019   -7.7750    6.0217 H   0  0  0  0  0  0  0  0  0  0  0  0
    6.1527   -7.5943    3.0988 H   0  0  0  0  0  0  0  0  0  0  0  0
    6.9785   -9.5023    2.8847 H   0  0  0  0  0  0  0  0  0  0  0  0
    4.3870   -9.7950    2.2808 H   0  0  0  0  0  0  0  0  0  0  0  0
    3.0360   -5.0865    4.9603 H   0  0  0  0  0  0  0  0  0  0  0  0
    2.6758   -6.4138    5.8955 H   0  0  0  0  0  0  0  0  0  0  0  0
    1.7540   -6.0726    4.4089 H   0  0  0  0  0  0  0  0  0  0  0  0
    4.8823   -6.3685    2.1658 H   0  0  0  0  0  0  0  0  0  0  0  0
    5.0362   -4.5524    4.5962 H   0  0  0  0  0  0  0  0  0  0  0  0
    6.2563   -5.1455    3.5360 H   0  0  0  0  0  0  0  0  0  0  0  0
    6.0509   -2.9241    2.9850 H   0  0  0  0  0  0  0  0  0  0  0  0
    3.5473   -0.9364    4.2716 H   0  0  0  0  0  0  0  0  0  0  0  0
    6.0053    0.0127    3.8879 H   0  0  0  0  0  0  0  0  0  0  0  0
    2.9662   -0.1937    1.9159 H   0  0  0  0  0  0  0  0  0  0  0  0
    4.8979   -1.9071    4.7905 H   0  0  0  0  0  0  0  0  0  0  0  0
    0.7514   -1.8239    1.9478 H   0  0  0  0  0  0  0  0  0  0  0  0
    1.5182   -1.3652    3.4474 H   0  0  0  0  0  0  0  0  0  0  0  0
    1.1140   -3.0574    3.1556 H   0  0  0  0  0  0  0  0  0  0  0  0
    1.8222   -3.7867    0.3773 H   0  0  0  0  0  0  0  0  0  0  0  0
    3.9530   -3.9199   -1.1825 H   0  0  0  0  0  0  0  0  0  0  0  0
    3.6741   -2.4340   -0.8122 H   0  0  0  0  0  0  0  0  0  0  0  0
    6.5186   -4.9201   -0.3094 H   0  0  0  0  0  0  0  0  0  0  0  0
    6.6272   -5.5134    1.2949 H   0  0  0  0  0  0  0  0  0  0  0  0
    7.4535   -4.0398    0.9125 H   0  0  0  0  0  0  0  0  0  0  0  0
    6.3036   -3.0484   -1.3461 H   0  0  0  0  0  0  0  0  0  0  0  0
    7.1362   -2.0936   -0.0922 H   0  0  0  0  0  0  0  0  0  0  0  0
    5.8726   -1.3923   -1.0515 H   0  0  0  0  0  0  0  0  0  0  0  0
    3.9496   -5.2567    0.2805 H   0  0  0  0  0  0  0  0  0  0  0  0
    2.7037   -5.9791    1.5661 H   0  0  0  0  0  0  0  0  0  0  0  0
    2.5285   -4.7344    2.6826 H   0  0  0  0  0  0  0  0  0  0  0  0
  1  2  1  0
  1 40  1  0
  1 41  1  0
  1 42  1  0
  2  3  2  0
  2  4  1  0
  4  5  1  0
  5 12  1  0
  5  6  1  0
  5 43  1  1
  6  7  1  0
  6 44  1  0
  6 45  1  0
  7  8  1  0
  7  9  1  0
  7 46  1  6
  8 47  1  0
  8 48  1  0
  8 49  1  0
  9 18  1  0
  9 10  1  0
  9 50  1  6
 10 11  1  0
 10 51  1  0
 10 52  1  0
 11 12  1  0
 11 53  1  0
 11 54  1  0
 12 13  1  0
 12 55  1  1
 13 19  1  0
 13 14  1  1
 13 15  1  0
 14 56  1  0
 15 16  1  0
 15 17  1  0
 15 57  1  6
 16 58  1  0
 17 18  2  0
 17 59  1  0
 18 19  1  0
 19 20  1  1
 19 21  1  0
 20 60  1  0
 20 61  1  0
 20 62  1  0
 21 39  1  0
 21 22  1  0
 21 63  1  6
 22 23  1  0
 22 64  1  0
 22 65  1  0
 23 34  1  0
 23 24  1  0
 23 66  1  1
 24 30  1  0
 24 25  1  0
 25 67  1  0
 25 70  1  0
 25 26  1  0
 26 68  1  0
 26 27  2  0
 27 28  1  0
 28 36  1  0
 28 29  2  0
 29 30  1  0
 29 69  1  0
 30 31  1  1
 30 32  1  0
 31 71  1  0
 31 72  1  0
 31 73  1  0
 32 38  1  0
 32 33  1  0
 32 74  1  6
 33 34  1  0
 33 75  1  0
 33 76  1  0
 34 35  1  1
 34 36  1  0
 35 77  1  0
 35 78  1  0
 35 79  1  0
 36 37  1  6
 36 38  1  0
 37 80  1  0
 37 81  1  0
 37 82  1  0
 38 39  1  0
 38 83  1  6
 39 84  1  0
 39 85  1  0
M  END
>  <i_m_ct_stereo_status>  (243) 
1

>  <s_m_source_file>  (243) 
/var/tmp/pbs.5076255.sched01/tmprae_yccg/80g5h6lheg.sdf

>  <i_m_source_file_index>  (243) 
28

>  <i_lp_mmshare_version>  (243) 
48012

>  <i_f3d_flags>  (243) 
0

>  <s_epik_input>  (243) 
W0NIM11DKD1PKU9bQ0BASF0oW0NASF0xW0NAQF0yM1tPSF0pW0NIMl1bQ0BASF0oW0NIM10pW0NAQEhdKFtDSDJdW0NIMl0xKUMoPVtDSF1bQ0BASF0yW09IXSlbQ0BdMyhbQ0gzXSlbQ0BIXShbQ0gyXTQpW0NIMl1bQ0BASF0oW0NAQEhdNVtDSDJdNilbQ0BAXShbQ0gzXSkoQyhbQ0gyXTcpPU5bQ0hdPVtDSF04KVtDQEBdNihbQ0gzXSlbQ0BIXTROOFtDQF01N1tDSDNd

>  <s_epik_cmdline>  (243) 
J2VwaWtfcHl0aG9uJywgJy1waHQnLCAnMi4wJywgJy1waCcsICc3LjAnLCAnLXRuJywgJzgnLCAnLW1hJywgJzIwMCcsICctaW1hZScsICc8aW5maWxlLm1hZT4nLCAnLW9tYWUnLCAnPG91dGZpbGUubWFlPic=

>  <r_lp_tautomer_probability>  (243) 
0.499993

>  <r_epik_Ionization_Penalty>  (243) 
0.0907622

>  <r_epik_Ionization_Penalty_Charging>  (243) 
0

>  <r_epik_Ionization_Penalty_Neutral>  (243) 
0.0907622

>  <r_epik_State_Penalty>  (243) 
0.452627

>  <r_epik_Charging_Adjusted_Penalty>  (243) 
0.452627

>  <i_epik_Tot_Q>  (243) 
0

>  <i_epik_Tot_abs_Q>  (243) 
0

>  <s_epik_Chemistry_Notes>  (243) 
This compound has an ester and may undergo hydrolysis at high or low pH. This compound has an imine and may undergo hydrolysis.

>  <s_lp_Force_Field>  (243) 
OPLS3e

>  <r_lp_Energy>  (243) 
756.928

>  <b_lp_Chiralities_Consistent>  (243) 
1

>  <s_lp_Variant>  (243) 
78:0-2

>  <s_i_glide_gridfile>  (243) 
pfpi4k_grid

>  <i_i_glide_lignum>  (243) 
28

>  <i_i_glide_rotatable_bonds>  (243) 
5

>  <r_i_docking_score>  (243) 
-2.50071

>  <r_i_glide_ligand_efficiency>  (243) 
-0.0641208

>  <r_i_glide_ligand_efficiency_sa>  (243) 
-0.217447

>  <r_i_glide_ligand_efficiency_ln>  (243) 
-0.536223

>  <r_i_glide_gscore>  (243) 
-2.50071

>  <r_i_glide_lipo>  (243) 
-0.486131

>  <r_i_glide_hbond>  (243) 
-0.107791

>  <r_i_glide_metal>  (243) 
-0

>  <r_i_glide_rewards>  (243) 
-0.177622

>  <r_i_glide_evdw>  (243) 
-31.5312

>  <r_i_glide_ecoul>  (243) 
-1.90888

>  <r_i_glide_erotb>  (243) 
0.144369

>  <r_i_glide_esite>  (243) 
-0.0106412

>  <r_i_glide_emodel>  (243) 
-36.4356

>  <r_i_glide_energy>  (243) 
-33.4401

>  <r_i_glide_einternal>  (243) 
5.62903

>  <r_i_glide_intrahb_reward>  (243) 
-0

>  <i_i_glide_confnum>  (243) 
3

>  <i_i_glide_posenum>  (243) 
25

>  <r_i_glide_eff_state_penalty>  (243) 
0

>  <ligand_id>  (243) 
78

>  <original_smiles>  (243) 
CC(=O)OC1CC(C)C2CCC1C1(O)C(O)C=C2C1(C)C1CC2N3C=CN=C4CC3(C)C3CC2(C)C4(C)C3C1

>  <smiles>  (243) 
[H]OC1([H])C([H])=C2C3([H])C([H])([H])C([H])([H])C([H])(C([H])(OC(=O)C([H])([H])[H])C([H])([H])C3([H])C([H])([H])[H])C1(O[H])C2(C([H])([H])[H])C1([H])C([H])([H])C2([H])N3C([H])([H])C([H])=NC4=C([H])C3(C([H])([H])[H])C3([H])C([H])([H])C2(C([H])([H])[H])C4(C([H])([H])[H])C3([H])C1([H])[H]

$$$$
78:2:0
     RDKit          3D

 86 93  0  0  1  0  0  0  0  0999 V2000
    4.0817  -11.9251    5.8048 C   0  0  0  0  0  0  0  0  0  0  0  0
    3.9800  -12.0211    4.2809 C   0  0  0  0  0  0  0  0  0  0  0  0
    4.7837  -12.7238    3.6576 O   0  0  0  0  0  0  0  0  0  0  0  0
    3.0529  -11.2506    3.6270 O   0  0  0  0  0  0  0  0  0  0  0  0
    2.1186  -10.3746    4.2530 C   0  0  2  0  0  0  0  0  0  0  0  0
    0.7235  -10.4420    3.5340 C   0  0  0  0  0  0  0  0  0  0  0  0
    0.2000   -9.2600    2.6689 C   0  0  1  0  0  0  0  0  0  0  0  0
   -1.3285   -9.3610    2.4790 C   0  0  0  0  0  0  0  0  0  0  0  0
    0.6111   -7.8568    3.1993 C   0  0  1  0  0  0  0  0  0  0  0  0
    0.3047   -7.8525    4.7437 C   0  0  0  0  0  0  0  0  0  0  0  0
    1.3781   -8.5060    5.6533 C   0  0  0  0  0  0  0  0  0  0  0  0
    2.6526   -9.0241    4.9433 C   0  0  2  0  0  0  0  0  0  0  0  0
    3.6533   -7.9292    4.2072 C   0  0  1  0  0  0  0  0  0  0  0  0
    4.7060   -7.6086    5.0938 O   0  0  0  0  0  0  0  0  0  0  0  0
    4.1993   -8.4155    2.8129 C   0  0  1  0  0  0  0  0  0  0  0  0
    4.8582   -9.6496    2.6288 O   0  0  0  0  0  0  0  0  0  0  0  0
    2.8789   -8.2854    2.0836 C   0  0  0  0  0  0  0  0  0  0  0  0
    2.0634   -7.4606    2.7787 C   0  0  0  0  0  0  0  0  0  0  0  0
    2.9298   -6.6006    3.7103 C   0  0  1  0  0  0  0  0  0  0  0  0
    2.2624   -5.7010    4.8080 C   0  0  0  0  0  0  0  0  0  0  0  0
    3.7513   -5.5594    2.7949 C   0  0  2  0  0  0  0  0  0  0  0  0
    4.8352   -4.6779    3.4952 C   0  0  0  0  0  0  0  0  0  0  0  0
    4.9465   -3.3069    2.7854 C   0  0  2  0  0  0  0  0  0  0  0  0
    3.7338   -2.4067    3.1341 N   0  0  1  0  0  0  0  0  0  0  0  0
    4.2291   -1.3305    4.0782 C   0  0  0  0  0  0  0  0  0  0  0  0
    5.4033   -0.4609    3.5232 C   0  0  0  0  0  0  0  0  0  0  0  0
    5.6819   -0.3052    2.2897 N   0  0  0  0  0  0  0  0  0  0  0  0
    4.8007   -0.9377    1.3905 C   0  0  0  0  0  0  0  0  0  0  0  0
    3.5188   -0.6202    1.5126 C   0  0  0  0  0  0  0  0  0  0  0  0
    2.8248   -1.8657    1.9432 C   0  0  2  0  0  0  0  0  0  0  0  0
    1.4189   -1.5183    2.4739 C   0  0  0  0  0  0  0  0  0  0  0  0
    2.7646   -2.7432    0.5783 C   0  0  1  0  0  0  0  0  0  0  0  0
    4.0466   -2.8817   -0.2228 C   0  0  0  0  0  0  0  0  0  0  0  0
    5.1369   -3.5329    1.1597 C   0  0  2  0  0  0  0  0  0  0  0  0
    6.3284   -4.5002    0.7822 C   0  0  0  0  0  0  0  0  0  0  0  0
    5.1240   -2.3586    0.7445 C   0  0  2  0  0  0  0  0  0  0  0  0
    6.3912   -2.0593   -0.2128 C   0  0  0  0  0  0  0  0  0  0  0  0
    3.7017   -3.7454    0.7813 C   0  0  1  0  0  0  0  0  0  0  0  0
    2.8805   -4.6665    1.8853 C   0  0  0  0  0  0  0  0  0  0  0  0
    4.4194  -10.9281    6.0891 H   0  0  0  0  0  0  0  0  0  0  0  0
    4.7940  -12.6590    6.2054 H   0  0  0  0  0  0  0  0  0  0  0  0
    3.1133  -12.1415    6.2702 H   0  0  0  0  0  0  0  0  0  0  0  0
    1.8143  -10.9837    5.0954 H   0  0  0  0  0  0  0  0  0  0  0  0
    0.6601  -11.3719    2.9650 H   0  0  0  0  0  0  0  0  0  0  0  0
   -0.0097  -10.6061    4.3260 H   0  0  0  0  0  0  0  0  0  0  0  0
    0.5855   -9.3949    1.6786 H   0  0  0  0  0  0  0  0  0  0  0  0
   -1.8882   -9.3189    3.4120 H   0  0  0  0  0  0  0  0  0  0  0  0
   -1.5774  -10.3056    2.0053 H   0  0  0  0  0  0  0  0  0  0  0  0
   -1.6997   -8.5780    1.8181 H   0  0  0  0  0  0  0  0  0  0  0  0
   -0.0396   -7.1149    2.7404 H   0  0  0  0  0  0  0  0  0  0  0  0
    0.0678   -6.8597    5.1130 H   0  0  0  0  0  0  0  0  0  0  0  0
   -0.6380   -8.3604    4.9482 H   0  0  0  0  0  0  0  0  0  0  0  0
    1.6359   -7.9120    6.5218 H   0  0  0  0  0  0  0  0  0  0  0  0
    0.9036   -9.3472    6.1590 H   0  0  0  0  0  0  0  0  0  0  0  0
    3.2094   -9.3216    5.8315 H   0  0  0  0  0  0  0  0  0  0  0  0
    5.3523   -7.0866    4.6469 H   0  0  0  0  0  0  0  0  0  0  0  0
    4.9977   -7.7773    2.4520 H   0  0  0  0  0  0  0  0  0  0  0  0
    4.2442  -10.3785    2.6817 H   0  0  0  0  0  0  0  0  0  0  0  0
    2.5710   -9.1528    1.5033 H   0  0  0  0  0  0  0  0  0  0  0  0
    2.8095   -4.8073    5.0846 H   0  0  0  0  0  0  0  0  0  0  0  0
    2.1998   -6.1807    5.7739 H   0  0  0  0  0  0  0  0  0  0  0  0
    1.2795   -5.3461    4.4845 H   0  0  0  0  0  0  0  0  0  0  0  0
    4.2663   -6.0641    1.9890 H   0  0  0  0  0  0  0  0  0  0  0  0
    4.7260   -4.4866    4.5683 H   0  0  0  0  0  0  0  0  0  0  0  0
    5.7888   -5.2104    3.3847 H   0  0  0  0  0  0  0  0  0  0  0  0
    5.8869   -2.9155    3.1620 H   0  0  0  0  0  0  0  0  0  0  0  0
    3.4194   -0.6791    4.3987 H   0  0  0  0  0  0  0  0  0  0  0  0
    5.9845    0.0037    4.3390 H   0  0  0  0  0  0  0  0  0  0  0  0
    3.1895    0.2688    2.0347 H   0  0  0  0  0  0  0  0  0  0  0  0
    4.6007   -1.8232    4.9694 H   0  0  0  0  0  0  0  0  0  0  0  0
    0.8195   -1.0678    1.6781 H   0  0  0  0  0  0  0  0  0  0  0  0
    1.4518   -0.7909    3.2900 H   0  0  0  0  0  0  0  0  0  0  0  0
    0.8749   -2.3933    2.8418 H   0  0  0  0  0  0  0  0  0  0  0  0
    1.8161   -3.0391    0.1179 H   0  0  0  0  0  0  0  0  0  0  0  0
    4.0788   -3.4338   -1.2223 H   0  0  0  0  0  0  0  0  0  0  0  0
    4.0074   -1.9265   -0.8574 H   0  0  0  0  0  0  0  0  0  0  0  0
    6.3854   -4.6974   -0.2931 H   0  0  0  0  0  0  0  0  0  0  0  0
    6.2135   -5.4803    1.2385 H   0  0  0  0  0  0  0  0  0  0  0  0
    7.2934   -4.1214    1.1343 H   0  0  0  0  0  0  0  0  0  0  0  0
    6.5235   -2.7191   -1.0767 H   0  0  0  0  0  0  0  0  0  0  0  0
    7.3079   -2.0294    0.3803 H   0  0  0  0  0  0  0  0  0  0  0  0
    6.2726   -1.0554   -0.6202 H   0  0  0  0  0  0  0  0  0  0  0  0
    3.6850   -4.7724    0.1833 H   0  0  0  0  0  0  0  0  0  0  0  0
    2.2413   -5.3253    1.2900 H   0  0  0  0  0  0  0  0  0  0  0  0
    2.1329   -4.1804    2.5162 H   0  0  0  0  0  0  0  0  0  0  0  0
    3.1123   -3.0077    3.6642 H   0  0  0  0  0  0  0  0  0  0  0  0
  1  2  1  0
  1 40  1  0
  1 41  1  0
  1 42  1  0
  2  3  2  0
  2  4  1  0
  4  5  1  0
  5 12  1  0
  5  6  1  0
  5 43  1  1
  6  7  1  0
  6 44  1  0
  6 45  1  0
  7  8  1  0
  7  9  1  0
  7 46  1  6
  8 47  1  0
  8 48  1  0
  8 49  1  0
  9 18  1  0
  9 10  1  0
  9 50  1  6
 10 11  1  0
 10 51  1  0
 10 52  1  0
 11 12  1  0
 11 53  1  0
 11 54  1  0
 12 13  1  0
 12 55  1  1
 13 19  1  0
 13 14  1  1
 13 15  1  0
 14 56  1  0
 15 16  1  0
 15 17  1  0
 15 57  1  6
 16 58  1  0
 17 18  2  0
 17 59  1  0
 18 19  1  0
 19 20  1  1
 19 21  1  0
 20 60  1  0
 20 61  1  0
 20 62  1  0
 21 39  1  0
 21 22  1  0
 21 63  1  6
 22 23  1  0
 22 64  1  0
 22 65  1  0
 23 34  1  0
 23 24  1  0
 23 66  1  1
 24 30  1  0
 24 25  1  0
 24 86  1  1
 25 67  1  0
 25 70  1  0
 25 26  1  0
 26 68  1  0
 26 27  2  0
 27 28  1  0
 28 36  1  0
 28 29  2  0
 29 30  1  0
 29 69  1  0
 30 31  1  1
 30 32  1  0
 31 71  1  0
 31 72  1  0
 31 73  1  0
 32 38  1  0
 32 33  1  0
 32 74  1  6
 33 34  1  0
 33 75  1  0
 33 76  1  0
 34 35  1  1
 34 36  1  0
 35 77  1  0
 35 78  1  0
 35 79  1  0
 36 37  1  6
 36 38  1  0
 37 80  1  0
 37 81  1  0
 37 82  1  0
 38 39  1  0
 38 83  1  6
 39 84  1  0
 39 85  1  0
M  CHG  1  24   1
M  END
>  <i_m_ct_stereo_status>  (244) 
1

>  <s_m_source_file>  (244) 
/var/tmp/pbs.5076255.sched01/tmprae_yccg/80g5h6lheg.sdf

>  <i_m_source_file_index>  (244) 
29

>  <i_lp_mmshare_version>  (244) 
48012

>  <i_f3d_flags>  (244) 
0

>  <s_epik_input>  (244) 
W0NIM11DKD1PKU9bQ0BASF0oW0NASF0xW0NAQF0yM1tPSF0pW0NIMl1bQ0BASF0oW0NIM10pW0NAQEhdKFtDSDJdW0NIMl0xKUMoPVtDSF1bQ0BASF0yW09IXSlbQ0BdMyhbQ0gzXSlbQ0BIXShbQ0gyXTQpW0NIMl1bQ0BASF0oW0NAQEhdNVtDSDJdNilbQ0BAXShbQ0gzXSkoQyhbQ0gyXTcpPU5bQ0hdPVtDSF04KVtDQEBdNihbQ0gzXSlbQ0BIXTROOFtDQF01N1tDSDNd

>  <s_epik_cmdline>  (244) 
J2VwaWtfcHl0aG9uJywgJy1waHQnLCAnMi4wJywgJy1waCcsICc3LjAnLCAnLXRuJywgJzgnLCAnLW1hJywgJzIwMCcsICctaW1hZScsICc8aW5maWxlLm1hZT4nLCAnLW9tYWUnLCAnPG91dGZpbGUubWFlPic=

>  <r_epik_Ionization_Penalty>  (244) 
1.15636

>  <r_epik_Ionization_Penalty_Charging>  (244) 
1.15636

>  <r_epik_Ionization_Penalty_Neutral>  (244) 
1.15582e-07

>  <r_epik_State_Penalty>  (244) 
1.5897

>  <r_epik_Charging_Adjusted_Penalty>  (244) 
2.74606

>  <i_epik_Tot_Q>  (244) 
1

>  <i_epik_Tot_abs_Q>  (244) 
1

>  <s_epik_Chemistry_Notes>  (244) 
This compound has an ester and may undergo hydrolysis at high or low pH. This compound has an imine and may undergo hydrolysis.

>  <s_lp_Force_Field>  (244) 
OPLS3e

>  <r_lp_Energy>  (244) 
750.855

>  <b_lp_Chiralities_Consistent>  (244) 
1

>  <s_lp_Variant>  (244) 
78:0-3

>  <s_i_glide_gridfile>  (244) 
pfpi4k_grid

>  <i_i_glide_lignum>  (244) 
29

>  <i_i_glide_rotatable_bonds>  (244) 
5

>  <r_i_docking_score>  (244) 
-3.69809

>  <r_i_glide_ligand_efficiency>  (244) 
-0.0948229

>  <r_i_glide_ligand_efficiency_sa>  (244) 
-0.321565

>  <r_i_glide_ligand_efficiency_ln>  (244) 
-0.792977

>  <r_i_glide_gscore>  (244) 
-3.69809

>  <r_i_glide_lipo>  (244) 
-0.578409

>  <r_i_glide_hbond>  (244) 
-0.209882

>  <r_i_glide_metal>  (244) 
-0

>  <r_i_glide_rewards>  (244) 
-0.684234

>  <r_i_glide_evdw>  (244) 
-36.7588

>  <r_i_glide_ecoul>  (244) 
-3.42463

>  <r_i_glide_erotb>  (244) 
0.143869

>  <r_i_glide_esite>  (244) 
-0.0178025

>  <r_i_glide_emodel>  (244) 
-49.3102

>  <r_i_glide_energy>  (244) 
-40.1835

>  <r_i_glide_einternal>  (244) 
8.3233

>  <r_i_glide_intrahb_reward>  (244) 
-0.5

>  <i_i_glide_confnum>  (244) 
1

>  <i_i_glide_posenum>  (244) 
11

>  <r_i_glide_eff_state_penalty>  (244) 
0

>  <ligand_id>  (244) 
78

>  <original_smiles>  (244) 
CC(=O)OC1CC(C)C2CCC1C1(O)C(O)C=C2C1(C)C1CC2N3C=CN=C4CC3(C)C3CC2(C)C4(C)C3C1

>  <smiles>  (244) 
[H]OC1([H])C([H])=C2C3([H])C([H])([H])C([H])([H])C([H])(C([H])(OC(=O)C([H])([H])[H])C([H])([H])C3([H])C([H])([H])[H])C1(O[H])C2(C([H])([H])[H])C1([H])C([H])([H])C2([H])C3([H])C([H])([H])C4(C([H])([H])[H])C2(C([H])([H])[H])C2=C([H])C3(C([H])([H])[H])[N+]([H])(C([H])([H])C([H])=N2)C4([H])C1([H])[H]

$$$$
78:2:1
     RDKit          3D

 86 93  0  0  1  0  0  0  0  0999 V2000
    4.5008    0.0771    3.0263 C   0  0  0  0  0  0  0  0  0  0  0  0
    3.4025    0.2784    1.9911 C   0  0  0  0  0  0  0  0  0  0  0  0
    2.4651    1.0406    2.1938 O   0  0  0  0  0  0  0  0  0  0  0  0
    3.4674   -0.5039    0.8561 O   0  0  0  0  0  0  0  0  0  0  0  0
    4.6297   -1.2291    0.4274 C   0  0  2  0  0  0  0  0  0  0  0  0
    4.5365   -1.5615   -1.1308 C   0  0  0  0  0  0  0  0  0  0  0  0
    4.2455   -3.0087   -1.6546 C   0  0  1  0  0  0  0  0  0  0  0  0
    4.6503   -3.1524   -3.1400 C   0  0  0  0  0  0  0  0  0  0  0  0
    4.8920   -4.1395   -0.7920 C   0  0  1  0  0  0  0  0  0  0  0  0
    6.3816   -3.7301   -0.5190 C   0  0  0  0  0  0  0  0  0  0  0  0
    6.6087   -2.6912    0.6215 C   0  0  0  0  0  0  0  0  0  0  0  0
    5.3649   -2.2434    1.4281 C   0  0  2  0  0  0  0  0  0  0  0  0
    4.5475   -3.3843    2.3212 C   0  0  1  0  0  0  0  0  0  0  0  0
    5.0074   -3.3118    3.6470 O   0  0  0  0  0  0  0  0  0  0  0  0
    2.9790   -3.3381    2.2067 C   0  0  1  0  0  0  0  0  0  0  0  0
    2.2039   -2.2030    2.4725 O   0  0  0  0  0  0  0  0  0  0  0  0
    2.8950   -3.8219    0.7790 C   0  0  0  0  0  0  0  0  0  0  0  0
    4.0389   -4.4781    0.4682 C   0  0  0  0  0  0  0  0  0  0  0  0
    4.6964   -4.8765    1.7875 C   0  0  1  0  0  0  0  0  0  0  0  0
    6.1308   -5.4723    1.8432 C   0  0  0  0  0  0  0  0  0  0  0  0
    3.7861   -6.0356    2.4586 C   0  0  2  0  0  0  0  0  0  0  0  0
    4.0161   -6.2936    3.9669 C   0  0  0  0  0  0  0  0  0  0  0  0
    3.7341   -7.7754    4.3250 C   0  0  2  0  0  0  0  0  0  0  0  0
    4.9321   -8.6582    3.8814 N   0  0  1  0  0  0  0  0  0  0  0  0
    5.6581   -9.0896    5.1434 C   0  0  0  0  0  0  0  0  0  0  0  0
    4.7952   -9.8575    6.1899 C   0  0  0  0  0  0  0  0  0  0  0  0
    3.7011  -10.4893    5.9137 N   0  0  0  0  0  0  0  0  0  0  0  0
    3.3493  -10.5027    4.5607 C   0  0  0  0  0  0  0  0  0  0  0  0
    4.2507  -10.9743    3.7082 C   0  0  0  0  0  0  0  0  0  0  0  0
    4.6506   -9.8347    2.8414 C   0  0  2  0  0  0  0  0  0  0  0  0
    5.9565  -10.1797    2.0712 C   0  0  0  0  0  0  0  0  0  0  0  0
    3.3817   -9.6716    1.8309 C   0  0  1  0  0  0  0  0  0  0  0  0
    1.9961   -9.6442    2.4604 C   0  0  0  0  0  0  0  0  0  0  0  0
    2.2894   -8.2652    3.6857 C   0  0  2  0  0  0  0  0  0  0  0  0
    1.0598   -7.3414    4.0832 C   0  0  0  0  0  0  0  0  0  0  0  0
    2.2764   -9.4716    3.9645 C   0  0  2  0  0  0  0  0  0  0  0  0
    0.8938   -9.9220    4.6813 C   0  0  0  0  0  0  0  0  0  0  0  0
    2.7325   -8.5212    2.2793 C   0  0  1  0  0  0  0  0  0  0  0  0
    3.7987   -7.3844    1.7208 C   0  0  0  0  0  0  0  0  0  0  0  0
    4.4438   -0.9899    3.2872 H   0  0  0  0  0  0  0  0  0  0  0  0
    4.3914    0.6646    3.8993 H   0  0  0  0  0  0  0  0  0  0  0  0
    5.5325    0.2044    2.5713 H   0  0  0  0  0  0  0  0  0  0  0  0
    5.3411   -0.4048    0.3685 H   0  0  0  0  0  0  0  0  0  0  0  0
    3.8280   -0.8796   -1.6057 H   0  0  0  0  0  0  0  0  0  0  0  0
    5.4847   -1.2563   -1.5787 H   0  0  0  0  0  0  0  0  0  0  0  0
    3.1669   -3.1495   -1.7008 H   0  0  0  0  0  0  0  0  0  0  0  0
    5.7171   -3.0071   -3.3108 H   0  0  0  0  0  0  0  0  0  0  0  0
    4.1206   -2.4306   -3.7598 H   0  0  0  0  0  0  0  0  0  0  0  0
    4.3977   -4.1443   -3.5185 H   0  0  0  0  0  0  0  0  0  0  0  0
    4.9088   -5.0699   -1.3676 H   0  0  0  0  0  0  0  0  0  0  0  0
    7.0162   -4.5942   -0.3292 H   0  0  0  0  0  0  0  0  0  0  0  0
    6.8254   -3.3159   -1.4293 H   0  0  0  0  0  0  0  0  0  0  0  0
    7.4246   -3.0010    1.2598 H   0  0  0  0  0  0  0  0  0  0  0  0
    7.0618   -1.8161    0.1550 H   0  0  0  0  0  0  0  0  0  0  0  0
    5.8460   -1.6270    2.1779 H   0  0  0  0  0  0  0  0  0  0  0  0
    4.4918   -3.8630    4.1898 H   0  0  0  0  0  0  0  0  0  0  0  0
    2.5146   -3.9851    2.9433 H   0  0  0  0  0  0  0  0  0  0  0  0
    2.4242   -1.5023    1.8600 H   0  0  0  0  0  0  0  0  0  0  0  0
    2.2999   -3.2145    0.1155 H   0  0  0  0  0  0  0  0  0  0  0  0
    6.2865   -6.1405    2.6837 H   0  0  0  0  0  0  0  0  0  0  0  0
    6.9165   -4.7556    2.0254 H   0  0  0  0  0  0  0  0  0  0  0  0
    6.3515   -6.0785    0.9637 H   0  0  0  0  0  0  0  0  0  0  0  0
    2.7303   -5.8286    2.3380 H   0  0  0  0  0  0  0  0  0  0  0  0
    5.0063   -6.0218    4.3230 H   0  0  0  0  0  0  0  0  0  0  0  0
    3.3333   -5.6588    4.5332 H   0  0  0  0  0  0  0  0  0  0  0  0
    3.6048   -7.7442    5.4119 H   0  0  0  0  0  0  0  0  0  0  0  0
    6.5451   -9.6740    4.8994 H   0  0  0  0  0  0  0  0  0  0  0  0
    5.1924   -9.8103    7.2065 H   0  0  0  0  0  0  0  0  0  0  0  0
    5.0746  -11.5998    4.0353 H   0  0  0  0  0  0  0  0  0  0  0  0
    6.0200   -8.1820    5.6342 H   0  0  0  0  0  0  0  0  0  0  0  0
    5.8057  -11.0421    1.4226 H   0  0  0  0  0  0  0  0  0  0  0  0
    6.7653  -10.4436    2.7608 H   0  0  0  0  0  0  0  0  0  0  0  0
    6.3149   -9.3529    1.4576 H   0  0  0  0  0  0  0  0  0  0  0  0
    3.4801   -9.8012    0.7580 H   0  0  0  0  0  0  0  0  0  0  0  0
    1.0428   -9.6063    1.8269 H   0  0  0  0  0  0  0  0  0  0  0  0
    1.7731  -10.7804    2.5235 H   0  0  0  0  0  0  0  0  0  0  0  0
    0.1390   -7.6338    3.5740 H   0  0  0  0  0  0  0  0  0  0  0  0
    1.2273   -6.3048    3.8015 H   0  0  0  0  0  0  0  0  0  0  0  0
    0.8840   -7.3340    5.1604 H   0  0  0  0  0  0  0  0  0  0  0  0
   -0.0308   -9.7004    4.1386 H   0  0  0  0  0  0  0  0  0  0  0  0
    0.8368   -9.5084    5.6885 H   0  0  0  0  0  0  0  0  0  0  0  0
    0.8897  -11.0036    4.8242 H   0  0  0  0  0  0  0  0  0  0  0  0
    2.0052   -7.8855    1.5846 H   0  0  0  0  0  0  0  0  0  0  0  0
    3.5465   -7.1679    0.6777 H   0  0  0  0  0  0  0  0  0  0  0  0
    4.8294   -7.7001    1.6134 H   0  0  0  0  0  0  0  0  0  0  0  0
    5.5468   -8.0278    3.3833 H   0  0  0  0  0  0  0  0  0  0  0  0
  1  2  1  0
  1 40  1  0
  1 41  1  0
  1 42  1  0
  2  3  2  0
  2  4  1  0
  4  5  1  0
  5 12  1  0
  5  6  1  0
  5 43  1  6
  6  7  1  0
  6 44  1  0
  6 45  1  0
  7  8  1  0
  7  9  1  0
  7 46  1  6
  8 47  1  0
  8 48  1  0
  8 49  1  0
  9 18  1  0
  9 10  1  0
  9 50  1  6
 10 11  1  0
 10 51  1  0
 10 52  1  0
 11 12  1  0
 11 53  1  0
 11 54  1  0
 12 13  1  0
 12 55  1  1
 13 19  1  0
 13 14  1  1
 13 15  1  0
 14 56  1  0
 15 16  1  0
 15 17  1  0
 15 57  1  1
 16 58  1  0
 17 18  2  0
 17 59  1  0
 18 19  1  0
 19 20  1  6
 19 21  1  0
 20 60  1  0
 20 61  1  0
 20 62  1  0
 21 39  1  0
 21 22  1  0
 21 63  1  1
 22 23  1  0
 22 64  1  0
 22 65  1  0
 23 34  1  0
 23 24  1  0
 23 66  1  1
 24 30  1  0
 24 25  1  0
 24 86  1  6
 25 67  1  0
 25 70  1  0
 25 26  1  0
 26 68  1  0
 26 27  2  0
 27 28  1  0
 28 36  1  0
 28 29  2  0
 29 30  1  0
 29 69  1  0
 30 31  1  6
 30 32  1  0
 31 71  1  0
 31 72  1  0
 31 73  1  0
 32 38  1  0
 32 33  1  0
 32 74  1  6
 33 34  1  0
 33 75  1  0
 33 76  1  0
 34 35  1  1
 34 36  1  0
 35 77  1  0
 35 78  1  0
 35 79  1  0
 36 37  1  6
 36 38  1  0
 37 80  1  0
 37 81  1  0
 37 82  1  0
 38 39  1  0
 38 83  1  6
 39 84  1  0
 39 85  1  0
M  CHG  1  24   1
M  END
>  <i_m_ct_stereo_status>  (245) 
1

>  <s_m_source_file>  (245) 
/var/tmp/pbs.5076255.sched01/tmprae_yccg/80g5h6lheg.sdf

>  <i_m_source_file_index>  (245) 
29

>  <i_lp_mmshare_version>  (245) 
48012

>  <i_f3d_flags>  (245) 
0

>  <s_epik_input>  (245) 
W0NIM11DKD1PKU9bQ0BASF0oW0NASF0xW0NAQF0yM1tPSF0pW0NIMl1bQ0BASF0oW0NIM10pW0NAQEhdKFtDSDJdW0NIMl0xKUMoPVtDSF1bQ0BASF0yW09IXSlbQ0BdMyhbQ0gzXSlbQ0BIXShbQ0gyXTQpW0NIMl1bQ0BASF0oW0NAQEhdNVtDSDJdNilbQ0BAXShbQ0gzXSkoQyhbQ0gyXTcpPU5bQ0hdPVtDSF04KVtDQEBdNihbQ0gzXSlbQ0BIXTROOFtDQF01N1tDSDNd

>  <s_epik_cmdline>  (245) 
J2VwaWtfcHl0aG9uJywgJy1waHQnLCAnMi4wJywgJy1waCcsICc3LjAnLCAnLXRuJywgJzgnLCAnLW1hJywgJzIwMCcsICctaW1hZScsICc8aW5maWxlLm1hZT4nLCAnLW9tYWUnLCAnPG91dGZpbGUubWFlPic=

>  <r_epik_Ionization_Penalty>  (245) 
1.15636

>  <r_epik_Ionization_Penalty_Charging>  (245) 
1.15636

>  <r_epik_Ionization_Penalty_Neutral>  (245) 
1.15582e-07

>  <r_epik_State_Penalty>  (245) 
1.5897

>  <r_epik_Charging_Adjusted_Penalty>  (245) 
2.74606

>  <i_epik_Tot_Q>  (245) 
1

>  <i_epik_Tot_abs_Q>  (245) 
1

>  <s_epik_Chemistry_Notes>  (245) 
This compound has an ester and may undergo hydrolysis at high or low pH. This compound has an imine and may undergo hydrolysis.

>  <s_lp_Force_Field>  (245) 
OPLS3e

>  <r_lp_Energy>  (245) 
750.855

>  <b_lp_Chiralities_Consistent>  (245) 
1

>  <s_lp_Variant>  (245) 
78:0-3

>  <s_i_glide_gridfile>  (245) 
pfpi4k_grid

>  <i_i_glide_lignum>  (245) 
29

>  <i_i_glide_rotatable_bonds>  (245) 
5

>  <r_i_docking_score>  (245) 
-2.57778

>  <r_i_glide_ligand_efficiency>  (245) 
-0.0660969

>  <r_i_glide_ligand_efficiency_sa>  (245) 
-0.224148

>  <r_i_glide_ligand_efficiency_ln>  (245) 
-0.552749

>  <r_i_glide_gscore>  (245) 
-2.57778

>  <r_i_glide_lipo>  (245) 
-0.696459

>  <r_i_glide_hbond>  (245) 
0

>  <r_i_glide_metal>  (245) 
-0

>  <r_i_glide_rewards>  (245) 
-0.0652182

>  <r_i_glide_evdw>  (245) 
-39.8661

>  <r_i_glide_ecoul>  (245) 
0.276457

>  <r_i_glide_erotb>  (245) 
0.143869

>  <r_i_glide_esite>  (245) 
-0.00813114

>  <r_i_glide_emodel>  (245) 
-40.6608

>  <r_i_glide_energy>  (245) 
-39.5897

>  <r_i_glide_einternal>  (245) 
7.2849

>  <r_i_glide_intrahb_reward>  (245) 
-0

>  <i_i_glide_confnum>  (245) 
1

>  <i_i_glide_posenum>  (245) 
16

>  <r_i_glide_eff_state_penalty>  (245) 
0

>  <ligand_id>  (245) 
78

>  <original_smiles>  (245) 
CC(=O)OC1CC(C)C2CCC1C1(O)C(O)C=C2C1(C)C1CC2N3C=CN=C4CC3(C)C3CC2(C)C4(C)C3C1

>  <smiles>  (245) 
[H]OC1([H])C([H])=C2C3([H])C([H])([H])C([H])([H])C([H])(C([H])(OC(=O)C([H])([H])[H])C([H])([H])C3([H])C([H])([H])[H])C1(O[H])C2(C([H])([H])[H])C1([H])C([H])([H])C2([H])C3([H])C([H])([H])C4(C([H])([H])[H])C2(C([H])([H])[H])C2=C([H])C3(C([H])([H])[H])[N+]([H])(C([H])([H])C([H])=N2)C4([H])C1([H])[H]

$$$$
78:2:2
     RDKit          3D

 86 93  0  0  1  0  0  0  0  0999 V2000
    4.4537    4.4885    5.9505 C   0  0  0  0  0  0  0  0  0  0  0  0
    3.3892    4.2166    4.8948 C   0  0  0  0  0  0  0  0  0  0  0  0
    2.8180    5.1339    4.3086 O   0  0  0  0  0  0  0  0  0  0  0  0
    3.1709    2.8933    4.7246 O   0  0  0  0  0  0  0  0  0  0  0  0
    2.2241    2.3805    3.7960 C   0  0  2  0  0  0  0  0  0  0  0  0
    0.7873    2.3194    4.4369 C   0  0  0  0  0  0  0  0  0  0  0  0
    0.1619    0.9801    4.9354 C   0  0  1  0  0  0  0  0  0  0  0  0
   -1.3669    1.1349    5.1100 C   0  0  0  0  0  0  0  0  0  0  0  0
    0.5210   -0.2407    4.0407 C   0  0  1  0  0  0  0  0  0  0  0  0
    0.3375    0.2116    2.5478 C   0  0  0  0  0  0  0  0  0  0  0  0
    1.4878    1.0258    1.8930 C   0  0  0  0  0  0  0  0  0  0  0  0
    2.7367    1.2519    2.7865 C   0  0  2  0  0  0  0  0  0  0  0  0
    3.6230   -0.0873    3.1980 C   0  0  1  0  0  0  0  0  0  0  0  0
    4.6939   -0.2716    2.2927 O   0  0  0  0  0  0  0  0  0  0  0  0
    4.1145   -0.0787    4.6754 C   0  0  1  0  0  0  0  0  0  0  0  0
    4.8333    1.0252    5.1699 O   0  0  0  0  0  0  0  0  0  0  0  0
    2.7451   -0.2853    5.2960 C   0  0  0  0  0  0  0  0  0  0  0  0
    1.9161   -0.8315    4.3691 C   0  0  0  0  0  0  0  0  0  0  0  0
    2.8012   -1.4434    3.2854 C   0  0  1  0  0  0  0  0  0  0  0  0
    2.2118   -1.9714    1.9448 C   0  0  0  0  0  0  0  0  0  0  0  0
    3.4928   -2.7644    3.9078 C   0  0  2  0  0  0  0  0  0  0  0  0
    4.7688   -3.2588    3.1904 C   0  0  0  0  0  0  0  0  0  0  0  0
    4.9476   -4.7898    3.3194 C   0  0  2  0  0  0  0  0  0  0  0  0
    4.0119   -5.5139    2.3158 N   0  0  1  0  0  0  0  0  0  0  0  0
    4.8861   -6.0723    1.2097 C   0  0  0  0  0  0  0  0  0  0  0  0
    6.0083   -7.0591    1.6784 C   0  0  0  0  0  0  0  0  0  0  0  0
    5.9806   -7.7133    2.7847 N   0  0  0  0  0  0  0  0  0  0  0  0
    4.8392   -7.5362    3.5608 C   0  0  0  0  0  0  0  0  0  0  0  0
    3.6771   -7.8109    2.9630 C   0  0  0  0  0  0  0  0  0  0  0  0
    2.9260   -6.5305    2.8955 C   0  0  2  0  0  0  0  0  0  0  0  0
    1.7443   -6.6615    1.9055 C   0  0  0  0  0  0  0  0  0  0  0  0
    2.4144   -6.3073    4.4204 C   0  0  1  0  0  0  0  0  0  0  0  0
    3.4375   -6.4792    5.5355 C   0  0  0  0  0  0  0  0  0  0  0  0
    4.7310   -5.2768    4.8842 C   0  0  2  0  0  0  0  0  0  0  0  0
    5.6427   -4.5163    5.9290 C   0  0  0  0  0  0  0  0  0  0  0  0
    4.7844   -6.5114    4.7833 C   0  0  2  0  0  0  0  0  0  0  0  0
    5.8168   -7.1611    5.8513 C   0  0  0  0  0  0  0  0  0  0  0  0
    3.2240   -5.2864    4.9079 C   0  0  1  0  0  0  0  0  0  0  0  0
    2.5702   -3.9894    4.1137 C   0  0  0  0  0  0  0  0  0  0  0  0
    4.1338    4.0956    6.9152 H   0  0  0  0  0  0  0  0  0  0  0  0
    4.6283    5.5591    6.0547 H   0  0  0  0  0  0  0  0  0  0  0  0
    5.3953    4.0104    5.6773 H   0  0  0  0  0  0  0  0  0  0  0  0
    2.0931    3.2157    3.1043 H   0  0  0  0  0  0  0  0  0  0  0  0
    0.7402    3.0353    5.2590 H   0  0  0  0  0  0  0  0  0  0  0  0
    0.1028    2.7471    3.7022 H   0  0  0  0  0  0  0  0  0  0  0  0
    0.4941    0.7957    5.9535 H   0  0  0  0  0  0  0  0  0  0  0  0
   -1.8820    1.3731    4.1788 H   0  0  0  0  0  0  0  0  0  0  0  0
   -1.5966    1.9355    5.8128 H   0  0  0  0  0  0  0  0  0  0  0  0
   -1.8179    0.2240    5.5038 H   0  0  0  0  0  0  0  0  0  0  0  0
   -0.1910   -1.0424    4.2350 H   0  0  0  0  0  0  0  0  0  0  0  0
    0.1239   -0.6321    1.9070 H   0  0  0  0  0  0  0  0  0  0  0  0
   -0.5835    0.7872    2.4472 H   0  0  0  0  0  0  0  0  0  0  0  0
    1.7510    0.6506    0.9079 H   0  0  0  0  0  0  0  0  0  0  0  0
    1.0636    1.9940    1.6145 H   0  0  0  0  0  0  0  0  0  0  0  0
    3.4182    1.8164    2.1538 H   0  0  0  0  0  0  0  0  0  0  0  0
    4.3421   -0.2396    1.4148 H   0  0  0  0  0  0  0  0  0  0  0  0
    4.8114   -0.8800    4.8898 H   0  0  0  0  0  0  0  0  0  0  0  0
    4.3544    1.8164    4.9469 H   0  0  0  0  0  0  0  0  0  0  0  0
    2.4685    0.3643    6.1093 H   0  0  0  0  0  0  0  0  0  0  0  0
    2.7936   -2.7821    1.5172 H   0  0  0  0  0  0  0  0  0  0  0  0
    2.2073   -1.2737    1.1230 H   0  0  0  0  0  0  0  0  0  0  0  0
    1.2216   -2.3904    2.0898 H   0  0  0  0  0  0  0  0  0  0  0  0
    3.7628   -2.5911    4.9452 H   0  0  0  0  0  0  0  0  0  0  0  0
    4.8096   -2.9691    2.1402 H   0  0  0  0  0  0  0  0  0  0  0  0
    5.6255   -2.7575    3.6432 H   0  0  0  0  0  0  0  0  0  0  0  0
    6.0035   -4.9328    3.0901 H   0  0  0  0  0  0  0  0  0  0  0  0
    4.2841   -6.5531    0.4367 H   0  0  0  0  0  0  0  0  0  0  0  0
    6.8451   -7.1402    0.9785 H   0  0  0  0  0  0  0  0  0  0  0  0
    3.6153   -8.4282    2.0751 H   0  0  0  0  0  0  0  0  0  0  0  0
    5.3839   -5.2345    0.7237 H   0  0  0  0  0  0  0  0  0  0  0  0
    1.0311   -7.4192    2.2366 H   0  0  0  0  0  0  0  0  0  0  0  0
    2.0815   -6.9672    0.9123 H   0  0  0  0  0  0  0  0  0  0  0  0
    1.1988   -5.7255    1.7819 H   0  0  0  0  0  0  0  0  0  0  0  0
    1.3543   -6.2514    4.6755 H   0  0  0  0  0  0  0  0  0  0  0  0
    3.1570   -6.4004    6.6402 H   0  0  0  0  0  0  0  0  0  0  0  0
    3.3841   -7.6082    5.7097 H   0  0  0  0  0  0  0  0  0  0  0  0
    5.4141   -4.7861    6.9620 H   0  0  0  0  0  0  0  0  0  0  0  0
    5.5025   -3.4392    5.8847 H   0  0  0  0  0  0  0  0  0  0  0  0
    6.7065   -4.6811    5.7494 H   0  0  0  0  0  0  0  0  0  0  0  0
    5.6424   -6.9214    6.9029 H   0  0  0  0  0  0  0  0  0  0  0  0
    6.8483   -6.9120    5.5911 H   0  0  0  0  0  0  0  0  0  0  0  0
    5.7715   -8.2504    5.7949 H   0  0  0  0  0  0  0  0  0  0  0  0
    2.9238   -4.6019    5.8349 H   0  0  0  0  0  0  0  0  0  0  0  0
    1.7058   -3.6384    4.6870 H   0  0  0  0  0  0  0  0  0  0  0  0
    2.0874   -4.2247    3.1724 H   0  0  0  0  0  0  0  0  0  0  0  0
    3.4646   -4.7685    1.9029 H   0  0  0  0  0  0  0  0  0  0  0  0
  1  2  1  0
  1 40  1  0
  1 41  1  0
  1 42  1  0
  2  3  2  0
  2  4  1  0
  4  5  1  0
  5 12  1  0
  5  6  1  0
  5 43  1  6
  6  7  1  0
  6 44  1  0
  6 45  1  0
  7  8  1  0
  7  9  1  0
  7 46  1  1
  8 47  1  0
  8 48  1  0
  8 49  1  0
  9 18  1  0
  9 10  1  0
  9 50  1  1
 10 11  1  0
 10 51  1  0
 10 52  1  0
 11 12  1  0
 11 53  1  0
 11 54  1  0
 12 13  1  0
 12 55  1  6
 13 19  1  0
 13 14  1  6
 13 15  1  0
 14 56  1  0
 15 16  1  0
 15 17  1  0
 15 57  1  6
 16 58  1  0
 17 18  2  0
 17 59  1  0
 18 19  1  0
 19 20  1  6
 19 21  1  0
 20 60  1  0
 20 61  1  0
 20 62  1  0
 21 39  1  0
 21 22  1  0
 21 63  1  1
 22 23  1  0
 22 64  1  0
 22 65  1  0
 23 34  1  0
 23 24  1  0
 23 66  1  6
 24 30  1  0
 24 25  1  0
 24 86  1  6
 25 67  1  0
 25 70  1  0
 25 26  1  0
 26 68  1  0
 26 27  2  0
 27 28  1  0
 28 36  1  0
 28 29  2  0
 29 30  1  0
 29 69  1  0
 30 31  1  6
 30 32  1  0
 31 71  1  0
 31 72  1  0
 31 73  1  0
 32 38  1  0
 32 33  1  0
 32 74  1  1
 33 34  1  0
 33 75  1  0
 33 76  1  0
 34 35  1  1
 34 36  1  0
 35 77  1  0
 35 78  1  0
 35 79  1  0
 36 37  1  1
 36 38  1  0
 37 80  1  0
 37 81  1  0
 37 82  1  0
 38 39  1  0
 38 83  1  1
 39 84  1  0
 39 85  1  0
M  CHG  1  24   1
M  END
>  <i_m_ct_stereo_status>  (246) 
1

>  <s_m_source_file>  (246) 
/var/tmp/pbs.5076255.sched01/tmprae_yccg/80g5h6lheg.sdf

>  <i_m_source_file_index>  (246) 
29

>  <i_lp_mmshare_version>  (246) 
48012

>  <i_f3d_flags>  (246) 
0

>  <s_epik_input>  (246) 
W0NIM11DKD1PKU9bQ0BASF0oW0NASF0xW0NAQF0yM1tPSF0pW0NIMl1bQ0BASF0oW0NIM10pW0NAQEhdKFtDSDJdW0NIMl0xKUMoPVtDSF1bQ0BASF0yW09IXSlbQ0BdMyhbQ0gzXSlbQ0BIXShbQ0gyXTQpW0NIMl1bQ0BASF0oW0NAQEhdNVtDSDJdNilbQ0BAXShbQ0gzXSkoQyhbQ0gyXTcpPU5bQ0hdPVtDSF04KVtDQEBdNihbQ0gzXSlbQ0BIXTROOFtDQF01N1tDSDNd

>  <s_epik_cmdline>  (246) 
J2VwaWtfcHl0aG9uJywgJy1waHQnLCAnMi4wJywgJy1waCcsICc3LjAnLCAnLXRuJywgJzgnLCAnLW1hJywgJzIwMCcsICctaW1hZScsICc8aW5maWxlLm1hZT4nLCAnLW9tYWUnLCAnPG91dGZpbGUubWFlPic=

>  <r_epik_Ionization_Penalty>  (246) 
1.15636

>  <r_epik_Ionization_Penalty_Charging>  (246) 
1.15636

>  <r_epik_Ionization_Penalty_Neutral>  (246) 
1.15582e-07

>  <r_epik_State_Penalty>  (246) 
1.5897

>  <r_epik_Charging_Adjusted_Penalty>  (246) 
2.74606

>  <i_epik_Tot_Q>  (246) 
1

>  <i_epik_Tot_abs_Q>  (246) 
1

>  <s_epik_Chemistry_Notes>  (246) 
This compound has an ester and may undergo hydrolysis at high or low pH. This compound has an imine and may undergo hydrolysis.

>  <s_lp_Force_Field>  (246) 
OPLS3e

>  <r_lp_Energy>  (246) 
750.855

>  <b_lp_Chiralities_Consistent>  (246) 
1

>  <s_lp_Variant>  (246) 
78:0-3

>  <s_i_glide_gridfile>  (246) 
pfpi4k_grid

>  <i_i_glide_lignum>  (246) 
29

>  <i_i_glide_rotatable_bonds>  (246) 
5

>  <r_i_docking_score>  (246) 
-2.51168

>  <r_i_glide_ligand_efficiency>  (246) 
-0.064402

>  <r_i_glide_ligand_efficiency_sa>  (246) 
-0.218401

>  <r_i_glide_ligand_efficiency_ln>  (246) 
-0.538575

>  <r_i_glide_gscore>  (246) 
-2.51168

>  <r_i_glide_lipo>  (246) 
-0.130932

>  <r_i_glide_hbond>  (246) 
0

>  <r_i_glide_metal>  (246) 
-0

>  <r_i_glide_rewards>  (246) 
-0.609016

>  <r_i_glide_evdw>  (246) 
-29.059

>  <r_i_glide_ecoul>  (246) 
-3.05434

>  <r_i_glide_erotb>  (246) 
0.143869

>  <r_i_glide_esite>  (246) 
-0.004496

>  <r_i_glide_emodel>  (246) 
-43.3179

>  <r_i_glide_energy>  (246) 
-32.1134

>  <r_i_glide_einternal>  (246) 
0.187576

>  <r_i_glide_intrahb_reward>  (246) 
-0.5

>  <i_i_glide_confnum>  (246) 
2

>  <i_i_glide_posenum>  (246) 
21

>  <r_i_glide_eff_state_penalty>  (246) 
0

>  <ligand_id>  (246) 
78

>  <original_smiles>  (246) 
CC(=O)OC1CC(C)C2CCC1C1(O)C(O)C=C2C1(C)C1CC2N3C=CN=C4CC3(C)C3CC2(C)C4(C)C3C1

>  <smiles>  (246) 
[H]OC1([H])C([H])=C2C3([H])C([H])([H])C([H])([H])C([H])(C([H])(OC(=O)C([H])([H])[H])C([H])([H])C3([H])C([H])([H])[H])C1(O[H])C2(C([H])([H])[H])C1([H])C([H])([H])C2([H])C3([H])C([H])([H])C4(C([H])([H])[H])C2(C([H])([H])[H])C2=C([H])C3(C([H])([H])[H])[N+]([H])(C([H])([H])C([H])=N2)C4([H])C1([H])[H]

$$$$
79:0:0
     RDKit          3D

 66 70  0  0  1  0  0  0  0  0999 V2000
    1.4506   -5.2712    6.4807 C   0  0  0  0  0  0  0  0  0  0  0  0
    2.9190   -5.4271    6.1552 C   0  0  0  0  0  0  0  0  0  0  0  0
    3.4033   -6.1525    5.1110 C   0  0  0  0  0  0  0  0  0  0  0  0
    2.6141   -6.9473    4.3311 O   0  0  0  0  0  0  0  0  0  0  0  0
    3.4608   -7.8680    3.6321 C   0  0  2  0  0  0  0  0  0  0  0  0
    4.7448   -7.8971    4.4646 C   0  0  0  0  0  0  0  0  0  0  0  0
    4.8492   -6.4235    4.7903 C   0  0  2  0  0  0  0  0  0  0  0  0
    5.6946   -6.1265    6.0254 C   0  0  0  0  0  0  0  0  0  0  0  0
    5.2636   -5.3834    7.0888 C   0  0  0  0  0  0  0  0  0  0  0  0
    3.8892   -4.8798    7.1257 C   0  0  0  0  0  0  0  0  0  0  0  0
    3.5525   -4.0320    7.9717 O   0  0  0  0  0  0  0  0  0  0  0  0
    5.3151   -5.5735    3.5172 C   0  0  0  0  0  0  0  0  0  0  0  0
    5.3204   -4.0699    3.9806 C   0  0  0  0  0  0  0  0  0  0  0  0
    6.8113   -5.8709    3.1935 C   0  0  0  0  0  0  0  0  0  0  0  0
    4.4615   -5.9677    2.1831 C   0  0  1  0  0  0  0  0  0  0  0  0
    3.7222   -7.3639    2.1950 C   0  0  1  0  0  0  0  0  0  0  0  0
    4.5384   -8.4212    1.4039 C   0  0  0  0  0  0  0  0  0  0  0  0
    2.3897   -7.1454    1.4509 C   0  0  0  0  0  0  0  0  0  0  0  0
    2.6358   -5.9404    0.5577 C   0  0  1  0  0  0  0  0  0  0  0  0
    1.4118   -5.4632   -0.0143 O   0  0  0  0  0  0  0  0  0  0  0  0
    3.5018   -4.9593    1.4024 C   0  0  1  0  0  0  0  0  0  0  0  0
    2.5580   -4.1433    2.3589 C   0  0  0  0  0  0  0  0  0  0  0  0
    4.2752   -4.0085    0.4272 C   0  0  2  0  0  0  0  0  0  0  0  0
    5.2467   -3.1037    1.1314 C   0  0  0  0  0  0  0  0  0  0  0  0
    5.4941   -1.8441    0.3715 C   0  0  1  0  0  0  0  0  0  0  0  0
    5.8142   -0.6608    1.3007 C   0  0  0  0  0  0  0  0  0  0  0  0
    6.5833   -2.0692   -0.5070 O   0  0  0  0  0  0  0  0  0  0  0  0
    4.1831   -1.6677   -0.4066 C   0  0  0  0  0  0  0  0  0  0  0  0
    3.3718   -2.9704   -0.2633 C   0  0  1  0  0  0  0  0  0  0  0  0
    2.8599   -3.4396   -1.4930 O   0  0  0  0  0  0  0  0  0  0  0  0
    1.2426   -5.5855    7.5094 H   0  0  0  0  0  0  0  0  0  0  0  0
    0.8300   -5.8746    5.8140 H   0  0  0  0  0  0  0  0  0  0  0  0
    1.1545   -4.2252    6.3768 H   0  0  0  0  0  0  0  0  0  0  0  0
    2.9875   -8.8483    3.6105 H   0  0  0  0  0  0  0  0  0  0  0  0
    4.5871   -8.4680    5.3761 H   0  0  0  0  0  0  0  0  0  0  0  0
    5.6124   -8.3144    3.9693 H   0  0  0  0  0  0  0  0  0  0  0  0
    6.7066   -6.4984    6.0444 H   0  0  0  0  0  0  0  0  0  0  0  0
    5.9208   -5.1999    7.9212 H   0  0  0  0  0  0  0  0  0  0  0  0
    5.8035   -3.4217    3.3578 H   0  0  0  0  0  0  0  0  0  0  0  0
    6.0077   -3.9290    4.8316 H   0  0  0  0  0  0  0  0  0  0  0  0
    4.3286   -3.7242    4.3011 H   0  0  0  0  0  0  0  0  0  0  0  0
    7.1779   -5.2624    2.3697 H   0  0  0  0  0  0  0  0  0  0  0  0
    6.9937   -6.9046    2.9027 H   0  0  0  0  0  0  0  0  0  0  0  0
    7.4654   -5.6446    4.0315 H   0  0  0  0  0  0  0  0  0  0  0  0
    5.2334   -6.1096    1.4224 H   0  0  0  0  0  0  0  0  0  0  0  0
    4.6224   -8.1640    0.3470 H   0  0  0  0  0  0  0  0  0  0  0  0
    4.0699   -9.4037    1.4553 H   0  0  0  0  0  0  0  0  0  0  0  0
    5.5565   -8.5301    1.7790 H   0  0  0  0  0  0  0  0  0  0  0  0
    2.0726   -8.0214    0.8827 H   0  0  0  0  0  0  0  0  0  0  0  0
    1.5753   -6.9112    2.1320 H   0  0  0  0  0  0  0  0  0  0  0  0
    3.2377   -6.2795   -0.2805 H   0  0  0  0  0  0  0  0  0  0  0  0
    1.6770   -5.0121   -0.8291 H   0  0  0  0  0  0  0  0  0  0  0  0
    1.6585   -3.8010    1.8330 H   0  0  0  0  0  0  0  0  0  0  0  0
    2.9997   -3.2190    2.7301 H   0  0  0  0  0  0  0  0  0  0  0  0
    2.2066   -4.7331    3.2176 H   0  0  0  0  0  0  0  0  0  0  0  0
    4.8359   -4.5928   -0.3095 H   0  0  0  0  0  0  0  0  0  0  0  0
    4.7288   -2.7166    2.0058 H   0  0  0  0  0  0  0  0  0  0  0  0
    6.1846   -3.6175    1.4158 H   0  0  0  0  0  0  0  0  0  0  0  0
    5.0084   -0.4400    2.0082 H   0  0  0  0  0  0  0  0  0  0  0  0
    5.9813    0.2319    0.7042 H   0  0  0  0  0  0  0  0  0  0  0  0
    6.7157   -0.8453    1.8979 H   0  0  0  0  0  0  0  0  0  0  0  0
    6.3907   -2.8913   -0.9298 H   0  0  0  0  0  0  0  0  0  0  0  0
    3.5900   -0.8523    0.0229 H   0  0  0  0  0  0  0  0  0  0  0  0
    4.3904   -1.4436   -1.4481 H   0  0  0  0  0  0  0  0  0  0  0  0
    2.5160   -2.7010    0.3490 H   0  0  0  0  0  0  0  0  0  0  0  0
    2.2257   -2.7944   -1.7659 H   0  0  0  0  0  0  0  0  0  0  0  0
  1  2  1  0
  1 31  1  0
  1 32  1  0
  1 33  1  0
  2 10  1  0
  2  3  2  0
  3  7  1  0
  3  4  1  0
  4  5  1  0
  5 16  1  0
  5  6  1  0
  5 34  1  6
  6  7  1  0
  6 35  1  0
  6 36  1  0
  7  8  1  0
  7 12  1  6
  8  9  2  0
  8 37  1  0
  9 10  1  0
  9 38  1  0
 10 11  2  0
 12 13  1  0
 12 14  1  0
 12 15  1  0
 13 39  1  0
 13 40  1  0
 13 41  1  0
 14 42  1  0
 14 43  1  0
 14 44  1  0
 15 21  1  0
 15 16  1  0
 15 45  1  6
 16 17  1  6
 16 18  1  0
 17 46  1  0
 17 47  1  0
 17 48  1  0
 18 19  1  0
 18 49  1  0
 18 50  1  0
 19 20  1  0
 19 21  1  0
 19 51  1  6
 20 52  1  0
 21 22  1  1
 21 23  1  0
 22 53  1  0
 22 54  1  0
 22 55  1  0
 23 29  1  0
 23 24  1  0
 23 56  1  6
 24 25  1  0
 24 57  1  0
 24 58  1  0
 25 26  1  0
 25 27  1  6
 25 28  1  0
 26 59  1  0
 26 60  1  0
 26 61  1  0
 27 62  1  0
 28 29  1  0
 28 63  1  0
 28 64  1  0
 29 30  1  0
 29 65  1  1
 30 66  1  0
M  END
>  <i_m_ct_stereo_status>  (247) 
1

>  <s_m_source_file>  (247) 
/var/tmp/pbs.5076255.sched01/tmprae_yccg/80g5h6lheg.sdf

>  <i_m_source_file_index>  (247) 
30

>  <i_lp_mmshare_version>  (247) 
48012

>  <i_f3d_flags>  (247) 
0

>  <s_epik_input>  (247) 
W0NIXTE9W0NIXUMoPU8pQyhbQ0gzXSk9QyhbQ0BAXTEyMylPW0NASF0oW0NIMl0yKVtDQF00KFtDSDNdKVtDQEhdKEMzKFtDSDNdKVtDSDNdKVtDQF0oW0NIM10pKFtDQEBIXShbQ0gyXTQpW09IXSlbQ0BASF0oW0NAQEhdKFtDSDJdNSlbT0hdKVtDSDJdW0NAQF01KFtDSDNdKVtPSF0=

>  <s_epik_cmdline>  (247) 
J2VwaWtfcHl0aG9uJywgJy1waHQnLCAnMi4wJywgJy1waCcsICc3LjAnLCAnLXRuJywgJzgnLCAnLW1hJywgJzIwMCcsICctaW1hZScsICc8aW5maWxlLm1hZT4nLCAnLW9tYWUnLCAnPG91dGZpbGUubWFlPic=

>  <r_lp_tautomer_probability>  (247) 
1

>  <r_epik_Ionization_Penalty>  (247) 
3.03584e-06

>  <r_epik_Ionization_Penalty_Charging>  (247) 
0

>  <r_epik_Ionization_Penalty_Neutral>  (247) 
3.03584e-06

>  <r_epik_State_Penalty>  (247) 
-0

>  <r_epik_Charging_Adjusted_Penalty>  (247) 
0

>  <i_epik_Tot_Q>  (247) 
0

>  <i_epik_Tot_abs_Q>  (247) 
0

>  <s_lp_Force_Field>  (247) 
OPLS3e

>  <r_lp_Energy>  (247) 
67.3003

>  <b_lp_Chiralities_Consistent>  (247) 
1

>  <s_lp_Variant>  (247) 
79:0-1

>  <s_i_glide_gridfile>  (247) 
pfpi4k_grid

>  <i_i_glide_lignum>  (247) 
30

>  <i_i_glide_rotatable_bonds>  (247) 
4

>  <r_i_docking_score>  (247) 
-3.42444

>  <r_i_glide_ligand_efficiency>  (247) 
-0.114148

>  <r_i_glide_ligand_efficiency_sa>  (247) 
-0.354685

>  <r_i_glide_ligand_efficiency_ln>  (247) 
-0.778071

>  <r_i_glide_gscore>  (247) 
-3.42444

>  <r_i_glide_lipo>  (247) 
-0.268172

>  <r_i_glide_hbond>  (247) 
-0.0881739

>  <r_i_glide_metal>  (247) 
-0

>  <r_i_glide_rewards>  (247) 
-1.06897

>  <r_i_glide_evdw>  (247) 
-20.4366

>  <r_i_glide_ecoul>  (247) 
-7.2744

>  <r_i_glide_erotb>  (247) 
0.113864

>  <r_i_glide_esite>  (247) 
0

>  <r_i_glide_emodel>  (247) 
-36.5311

>  <r_i_glide_energy>  (247) 
-27.711

>  <r_i_glide_einternal>  (247) 
1.89318

>  <r_i_glide_intrahb_reward>  (247) 
-0.5

>  <i_i_glide_confnum>  (247) 
3

>  <i_i_glide_posenum>  (247) 
4

>  <r_i_glide_eff_state_penalty>  (247) 
0

>  <ligand_id>  (247) 
79

>  <original_smiles>  (247) 
CC1=C2OC3CC2(C=CC1=O)C(C)(C)C1C3(C)CC(O)C1(C)C1CC(C)(O)CC1O

>  <smiles>  (247) 
[H]OC1([H])C([H])([H])C(O[H])(C([H])([H])[H])C([H])([H])C1([H])C1(C([H])([H])[H])C([H])(O[H])C([H])([H])C2(C([H])([H])[H])C3([H])OC4=C(C([H])([H])[H])C(=O)C([H])=C([H])C4(C3([H])[H])C(C([H])([H])[H])(C([H])([H])[H])C21[H]

$$$$
79:0:1
     RDKit          3D

 66 70  0  0  1  0  0  0  0  0999 V2000
    0.0799   -7.3576    1.2927 C   0  0  0  0  0  0  0  0  0  0  0  0
    0.8740   -6.9885    2.5111 C   0  0  0  0  0  0  0  0  0  0  0  0
    2.1958   -6.8045    2.5643 C   0  0  0  0  0  0  0  0  0  0  0  0
    3.0322   -7.0918    1.4922 O   0  0  0  0  0  0  0  0  0  0  0  0
    4.3621   -7.1933    1.9864 C   0  0  2  0  0  0  0  0  0  0  0  0
    4.1863   -7.4467    3.4857 C   0  0  0  0  0  0  0  0  0  0  0  0
    3.0483   -6.4881    3.7680 C   0  0  2  0  0  0  0  0  0  0  0  0
    2.2425   -6.8712    5.0175 C   0  0  0  0  0  0  0  0  0  0  0  0
    0.9015   -7.0452    5.0405 C   0  0  0  0  0  0  0  0  0  0  0  0
    0.1123   -6.9566    3.7978 C   0  0  0  0  0  0  0  0  0  0  0  0
   -1.1182   -6.8899    3.8145 O   0  0  0  0  0  0  0  0  0  0  0  0
    3.5181   -4.9695    3.7538 C   0  0  0  0  0  0  0  0  0  0  0  0
    2.2240   -4.1149    4.0042 C   0  0  0  0  0  0  0  0  0  0  0  0
    4.3940   -4.6926    5.0165 C   0  0  0  0  0  0  0  0  0  0  0  0
    4.4360   -4.6281    2.4615 C   0  0  1  0  0  0  0  0  0  0  0  0
    5.1193   -5.8649    1.7346 C   0  0  1  0  0  0  0  0  0  0  0  0
    6.6088   -6.0231    2.1558 C   0  0  0  0  0  0  0  0  0  0  0  0
    5.1051   -5.5256    0.2278 C   0  0  0  0  0  0  0  0  0  0  0  0
    5.0390   -4.0088    0.1772 C   0  0  1  0  0  0  0  0  0  0  0  0
    4.7323   -3.5970   -1.1635 O   0  0  0  0  0  0  0  0  0  0  0  0
    4.0572   -3.5990    1.3111 C   0  0  1  0  0  0  0  0  0  0  0  0
    2.5847   -3.7610    0.8069 C   0  0  0  0  0  0  0  0  0  0  0  0
    4.3474   -2.1136    1.7237 C   0  0  2  0  0  0  0  0  0  0  0  0
    3.4669   -1.6150    2.8470 C   0  0  0  0  0  0  0  0  0  0  0  0
    3.3230   -0.1334    2.7718 C   0  0  1  0  0  0  0  0  0  0  0  0
    1.9616    0.3558    3.3034 C   0  0  0  0  0  0  0  0  0  0  0  0
    4.3451    0.4621    3.5451 O   0  0  0  0  0  0  0  0  0  0  0  0
    3.5330    0.1685    1.2753 C   0  0  0  0  0  0  0  0  0  0  0  0
    4.0536   -1.0972    0.5988 C   0  0  1  0  0  0  0  0  0  0  0  0
    5.2105   -0.7934   -0.1662 O   0  0  0  0  0  0  0  0  0  0  0  0
   -0.4998   -8.2643    1.4491 H   0  0  0  0  0  0  0  0  0  0  0  0
    0.7484   -7.5432    0.4438 H   0  0  0  0  0  0  0  0  0  0  0  0
   -0.6001   -6.5625    0.9985 H   0  0  0  0  0  0  0  0  0  0  0  0
    4.8700   -8.0250    1.5006 H   0  0  0  0  0  0  0  0  0  0  0  0
    3.8695   -8.4870    3.6516 H   0  0  0  0  0  0  0  0  0  0  0  0
    5.0711   -7.2846    4.0954 H   0  0  0  0  0  0  0  0  0  0  0  0
    2.7862   -6.9401    5.9496 H   0  0  0  0  0  0  0  0  0  0  0  0
    0.3814   -7.2631    5.9559 H   0  0  0  0  0  0  0  0  0  0  0  0
    2.3928   -3.0939    4.1747 H   0  0  0  0  0  0  0  0  0  0  0  0
    1.7582   -4.4046    4.9273 H   0  0  0  0  0  0  0  0  0  0  0  0
    1.4792   -4.2772    3.2205 H   0  0  0  0  0  0  0  0  0  0  0  0
    4.6858   -3.6452    5.0670 H   0  0  0  0  0  0  0  0  0  0  0  0
    5.3274   -5.2676    5.0418 H   0  0  0  0  0  0  0  0  0  0  0  0
    3.8672   -4.8973    5.9486 H   0  0  0  0  0  0  0  0  0  0  0  0
    5.3058   -4.1265    2.8936 H   0  0  0  0  0  0  0  0  0  0  0  0
    7.2089   -5.1609    1.8560 H   0  0  0  0  0  0  0  0  0  0  0  0
    7.0642   -6.9016    1.6959 H   0  0  0  0  0  0  0  0  0  0  0  0
    6.7277   -6.1214    3.2333 H   0  0  0  0  0  0  0  0  0  0  0  0
    5.9756   -5.9044   -0.3120 H   0  0  0  0  0  0  0  0  0  0  0  0
    4.2285   -5.9392   -0.2712 H   0  0  0  0  0  0  0  0  0  0  0  0
    6.0335   -3.6235    0.3852 H   0  0  0  0  0  0  0  0  0  0  0  0
    3.9566   -4.0092   -1.4518 H   0  0  0  0  0  0  0  0  0  0  0  0
    2.4595   -3.3595   -0.2014 H   0  0  0  0  0  0  0  0  0  0  0  0
    1.8795   -3.2166    1.4074 H   0  0  0  0  0  0  0  0  0  0  0  0
    2.2738   -4.8024    0.7624 H   0  0  0  0  0  0  0  0  0  0  0  0
    5.3913   -2.0126    2.0388 H   0  0  0  0  0  0  0  0  0  0  0  0
    2.4617   -1.9844    2.6847 H   0  0  0  0  0  0  0  0  0  0  0  0
    3.8516   -1.9262    3.8415 H   0  0  0  0  0  0  0  0  0  0  0  0
    1.1264   -0.0639    2.7378 H   0  0  0  0  0  0  0  0  0  0  0  0
    1.8749    1.4390    3.2473 H   0  0  0  0  0  0  0  0  0  0  0  0
    1.8135    0.0565    4.3421 H   0  0  0  0  0  0  0  0  0  0  0  0
    4.3423    1.3912    3.3826 H   0  0  0  0  0  0  0  0  0  0  0  0
    2.5795    0.4480    0.8178 H   0  0  0  0  0  0  0  0  0  0  0  0
    4.2213    0.9957    1.1383 H   0  0  0  0  0  0  0  0  0  0  0  0
    3.2633   -1.4578   -0.0534 H   0  0  0  0  0  0  0  0  0  0  0  0
    4.9835   -0.0932   -0.7370 H   0  0  0  0  0  0  0  0  0  0  0  0
  1  2  1  0
  1 31  1  0
  1 32  1  0
  1 33  1  0
  2 10  1  0
  2  3  2  0
  3  7  1  0
  3  4  1  0
  4  5  1  0
  5 16  1  0
  5  6  1  0
  5 34  1  6
  6  7  1  0
  6 35  1  0
  6 36  1  0
  7  8  1  0
  7 12  1  1
  8  9  2  0
  8 37  1  0
  9 10  1  0
  9 38  1  0
 10 11  2  0
 12 13  1  0
 12 14  1  0
 12 15  1  0
 13 39  1  0
 13 40  1  0
 13 41  1  0
 14 42  1  0
 14 43  1  0
 14 44  1  0
 15 21  1  0
 15 16  1  0
 15 45  1  1
 16 17  1  1
 16 18  1  0
 17 46  1  0
 17 47  1  0
 17 48  1  0
 18 19  1  0
 18 49  1  0
 18 50  1  0
 19 20  1  0
 19 21  1  0
 19 51  1  1
 20 52  1  0
 21 22  1  6
 21 23  1  0
 22 53  1  0
 22 54  1  0
 22 55  1  0
 23 29  1  0
 23 24  1  0
 23 56  1  1
 24 25  1  0
 24 57  1  0
 24 58  1  0
 25 26  1  0
 25 27  1  1
 25 28  1  0
 26 59  1  0
 26 60  1  0
 26 61  1  0
 27 62  1  0
 28 29  1  0
 28 63  1  0
 28 64  1  0
 29 30  1  0
 29 65  1  6
 30 66  1  0
M  END
>  <i_m_ct_stereo_status>  (248) 
1

>  <s_m_source_file>  (248) 
/var/tmp/pbs.5076255.sched01/tmprae_yccg/80g5h6lheg.sdf

>  <i_m_source_file_index>  (248) 
30

>  <i_lp_mmshare_version>  (248) 
48012

>  <i_f3d_flags>  (248) 
0

>  <s_epik_input>  (248) 
W0NIXTE9W0NIXUMoPU8pQyhbQ0gzXSk9QyhbQ0BAXTEyMylPW0NASF0oW0NIMl0yKVtDQF00KFtDSDNdKVtDQEhdKEMzKFtDSDNdKVtDSDNdKVtDQF0oW0NIM10pKFtDQEBIXShbQ0gyXTQpW09IXSlbQ0BASF0oW0NAQEhdKFtDSDJdNSlbT0hdKVtDSDJdW0NAQF01KFtDSDNdKVtPSF0=

>  <s_epik_cmdline>  (248) 
J2VwaWtfcHl0aG9uJywgJy1waHQnLCAnMi4wJywgJy1waCcsICc3LjAnLCAnLXRuJywgJzgnLCAnLW1hJywgJzIwMCcsICctaW1hZScsICc8aW5maWxlLm1hZT4nLCAnLW9tYWUnLCAnPG91dGZpbGUubWFlPic=

>  <r_lp_tautomer_probability>  (248) 
1

>  <r_epik_Ionization_Penalty>  (248) 
3.03584e-06

>  <r_epik_Ionization_Penalty_Charging>  (248) 
0

>  <r_epik_Ionization_Penalty_Neutral>  (248) 
3.03584e-06

>  <r_epik_State_Penalty>  (248) 
-0

>  <r_epik_Charging_Adjusted_Penalty>  (248) 
0

>  <i_epik_Tot_Q>  (248) 
0

>  <i_epik_Tot_abs_Q>  (248) 
0

>  <s_lp_Force_Field>  (248) 
OPLS3e

>  <r_lp_Energy>  (248) 
67.3003

>  <b_lp_Chiralities_Consistent>  (248) 
1

>  <s_lp_Variant>  (248) 
79:0-1

>  <s_i_glide_gridfile>  (248) 
pfpi4k_grid

>  <i_i_glide_lignum>  (248) 
30

>  <i_i_glide_rotatable_bonds>  (248) 
4

>  <r_i_docking_score>  (248) 
-3.26908

>  <r_i_glide_ligand_efficiency>  (248) 
-0.108969

>  <r_i_glide_ligand_efficiency_sa>  (248) 
-0.338593

>  <r_i_glide_ligand_efficiency_ln>  (248) 
-0.742771

>  <r_i_glide_gscore>  (248) 
-3.26908

>  <r_i_glide_lipo>  (248) 
-0.309891

>  <r_i_glide_hbond>  (248) 
-0.199614

>  <r_i_glide_metal>  (248) 
-0

>  <r_i_glide_rewards>  (248) 
-0.568975

>  <r_i_glide_evdw>  (248) 
-27.1779

>  <r_i_glide_ecoul>  (248) 
-6.03195

>  <r_i_glide_erotb>  (248) 
0.113864

>  <r_i_glide_esite>  (248) 
-0.0407739

>  <r_i_glide_emodel>  (248) 
-37.9926

>  <r_i_glide_energy>  (248) 
-33.2099

>  <r_i_glide_einternal>  (248) 
0.728204

>  <r_i_glide_intrahb_reward>  (248) 
-0

>  <i_i_glide_confnum>  (248) 
3

>  <i_i_glide_posenum>  (248) 
14

>  <r_i_glide_eff_state_penalty>  (248) 
0

>  <ligand_id>  (248) 
79

>  <original_smiles>  (248) 
CC1=C2OC3CC2(C=CC1=O)C(C)(C)C1C3(C)CC(O)C1(C)C1CC(C)(O)CC1O

>  <smiles>  (248) 
[H]OC1([H])C([H])([H])C(O[H])(C([H])([H])[H])C([H])([H])C1([H])C1(C([H])([H])[H])C([H])(O[H])C([H])([H])C2(C([H])([H])[H])C3([H])OC4=C(C([H])([H])[H])C(=O)C([H])=C([H])C4(C3([H])[H])C(C([H])([H])[H])(C([H])([H])[H])C21[H]

$$$$
79:0:2
     RDKit          3D

 66 70  0  0  1  0  0  0  0  0999 V2000
   -0.1481   -7.4763    1.6815 C   0  0  0  0  0  0  0  0  0  0  0  0
    0.6490   -7.0442    2.8934 C   0  0  0  0  0  0  0  0  0  0  0  0
    1.9895   -6.9540    2.9488 C   0  0  0  0  0  0  0  0  0  0  0  0
    2.8070   -7.4033    1.9392 O   0  0  0  0  0  0  0  0  0  0  0  0
    4.1243   -7.5511    2.4673 C   0  0  2  0  0  0  0  0  0  0  0  0
    3.9076   -7.6392    3.9795 C   0  0  0  0  0  0  0  0  0  0  0  0
    2.8371   -6.5783    4.1405 C   0  0  2  0  0  0  0  0  0  0  0  0
    1.9928   -6.7757    5.4091 C   0  0  0  0  0  0  0  0  0  0  0  0
    0.6469   -6.8489    5.4177 C   0  0  0  0  0  0  0  0  0  0  0  0
   -0.1284   -6.8299    4.1510 C   0  0  0  0  0  0  0  0  0  0  0  0
   -1.3349   -6.6728    4.1441 O   0  0  0  0  0  0  0  0  0  0  0  0
    3.4209   -5.1071    3.9900 C   0  0  0  0  0  0  0  0  0  0  0  0
    2.1863   -4.1638    4.1249 C   0  0  0  0  0  0  0  0  0  0  0  0
    4.2995   -4.7684    5.2335 C   0  0  0  0  0  0  0  0  0  0  0  0
    4.3768   -4.9613    2.6866 C   0  0  1  0  0  0  0  0  0  0  0  0
    4.9768   -6.3113    2.1004 C   0  0  1  0  0  0  0  0  0  0  0  0
    6.4475   -6.5351    2.5654 C   0  0  0  0  0  0  0  0  0  0  0  0
    5.0067   -6.1249    0.5676 C   0  0  0  0  0  0  0  0  0  0  0  0
    5.0533   -4.6177    0.3714 C   0  0  1  0  0  0  0  0  0  0  0  0
    4.8113   -4.2794   -0.9962 O   0  0  0  0  0  0  0  0  0  0  0  0
    4.0791   -4.0259    1.4352 C   0  0  1  0  0  0  0  0  0  0  0  0
    2.6185   -4.1463    0.9091 C   0  0  0  0  0  0  0  0  0  0  0  0
    4.4880   -2.5316    1.6938 C   0  0  2  0  0  0  0  0  0  0  0  0
    3.6324   -1.8448    2.7495 C   0  0  0  0  0  0  0  0  0  0  0  0
    3.6058   -0.3731    2.4990 C   0  0  1  0  0  0  0  0  0  0  0  0
    2.2657    0.2641    2.9309 C   0  0  0  0  0  0  0  0  0  0  0  0
    4.6386    0.2519    3.2546 O   0  0  0  0  0  0  0  0  0  0  0  0
    3.8958   -0.2311    0.9988 C   0  0  0  0  0  0  0  0  0  0  0  0
    4.3169   -1.6076    0.4690 C   0  0  1  0  0  0  0  0  0  0  0  0
    5.4983   -1.5757   -0.3089 O   0  0  0  0  0  0  0  0  0  0  0  0
   -0.7913   -8.3230    1.9263 H   0  0  0  0  0  0  0  0  0  0  0  0
    0.5126   -7.7952    0.8739 H   0  0  0  0  0  0  0  0  0  0  0  0
   -0.7744   -6.6664    1.3135 H   0  0  0  0  0  0  0  0  0  0  0  0
    4.5745   -8.4621    2.0759 H   0  0  0  0  0  0  0  0  0  0  0  0
    3.5137   -8.6327    4.2409 H   0  0  0  0  0  0  0  0  0  0  0  0
    4.7956   -7.4816    4.5886 H   0  0  0  0  0  0  0  0  0  0  0  0
    2.5200   -6.7892    6.3514 H   0  0  0  0  0  0  0  0  0  0  0  0
    0.0964   -6.9336    6.3406 H   0  0  0  0  0  0  0  0  0  0  0  0
    2.4269   -3.1104    4.2002 H   0  0  0  0  0  0  0  0  0  0  0  0
    1.6891   -4.3102    5.0671 H   0  0  0  0  0  0  0  0  0  0  0  0
    1.4459   -4.3320    3.3518 H   0  0  0  0  0  0  0  0  0  0  0  0
    4.6668   -3.7455    5.1860 H   0  0  0  0  0  0  0  0  0  0  0  0
    5.1876   -5.4040    5.3358 H   0  0  0  0  0  0  0  0  0  0  0  0
    3.7478   -4.8404    6.1723 H   0  0  0  0  0  0  0  0  0  0  0  0
    5.2779   -4.4854    3.0862 H   0  0  0  0  0  0  0  0  0  0  0  0
    7.1140   -5.7537    2.1950 H   0  0  0  0  0  0  0  0  0  0  0  0
    6.8419   -7.4856    2.2041 H   0  0  0  0  0  0  0  0  0  0  0  0
    6.5446   -6.5340    3.6499 H   0  0  0  0  0  0  0  0  0  0  0  0
    5.8505   -6.6244    0.0895 H   0  0  0  0  0  0  0  0  0  0  0  0
    4.1079   -6.5215    0.0938 H   0  0  0  0  0  0  0  0  0  0  0  0
    6.0771   -4.2944    0.5686 H   0  0  0  0  0  0  0  0  0  0  0  0
    4.0698   -4.7619   -1.3163 H   0  0  0  0  0  0  0  0  0  0  0  0
    2.5318   -3.8351   -0.1304 H   0  0  0  0  0  0  0  0  0  0  0  0
    1.9233   -3.4905    1.4447 H   0  0  0  0  0  0  0  0  0  0  0  0
    2.2311   -5.1600    0.9639 H   0  0  0  0  0  0  0  0  0  0  0  0
    5.5257   -2.4790    2.0431 H   0  0  0  0  0  0  0  0  0  0  0  0
    2.5942   -2.1470    2.5956 H   0  0  0  0  0  0  0  0  0  0  0  0
    3.9679   -2.0734    3.7627 H   0  0  0  0  0  0  0  0  0  0  0  0
    1.4141   -0.1512    2.3792 H   0  0  0  0  0  0  0  0  0  0  0  0
    2.2604    1.3361    2.7630 H   0  0  0  0  0  0  0  0  0  0  0  0
    2.0602    0.0825    3.9869 H   0  0  0  0  0  0  0  0  0  0  0  0
    4.5975    1.1419    3.1394 H   0  0  0  0  0  0  0  0  0  0  0  0
    2.9595    0.0480    0.5030 H   0  0  0  0  0  0  0  0  0  0  0  0
    4.6437    0.5353    0.7960 H   0  0  0  0  0  0  0  0  0  0  0  0
    3.5109   -1.9750   -0.1640 H   0  0  0  0  0  0  0  0  0  0  0  0
    5.5951   -2.4538   -0.6589 H   0  0  0  0  0  0  0  0  0  0  0  0
  1  2  1  0
  1 31  1  0
  1 32  1  0
  1 33  1  0
  2 10  1  0
  2  3  2  0
  3  7  1  0
  3  4  1  0
  4  5  1  0
  5 16  1  0
  5  6  1  0
  5 34  1  6
  6  7  1  0
  6 35  1  0
  6 36  1  0
  7  8  1  0
  7 12  1  6
  8  9  2  0
  8 37  1  0
  9 10  1  0
  9 38  1  0
 10 11  2  0
 12 13  1  0
 12 14  1  0
 12 15  1  0
 13 39  1  0
 13 40  1  0
 13 41  1  0
 14 42  1  0
 14 43  1  0
 14 44  1  0
 15 21  1  0
 15 16  1  0
 15 45  1  1
 16 17  1  1
 16 18  1  0
 17 46  1  0
 17 47  1  0
 17 48  1  0
 18 19  1  0
 18 49  1  0
 18 50  1  0
 19 20  1  0
 19 21  1  0
 19 51  1  1
 20 52  1  0
 21 22  1  6
 21 23  1  0
 22 53  1  0
 22 54  1  0
 22 55  1  0
 23 29  1  0
 23 24  1  0
 23 56  1  1
 24 25  1  0
 24 57  1  0
 24 58  1  0
 25 26  1  0
 25 27  1  1
 25 28  1  0
 26 59  1  0
 26 60  1  0
 26 61  1  0
 27 62  1  0
 28 29  1  0
 28 63  1  0
 28 64  1  0
 29 30  1  0
 29 65  1  6
 30 66  1  0
M  END
>  <i_m_ct_stereo_status>  (249) 
1

>  <s_m_source_file>  (249) 
/var/tmp/pbs.5076255.sched01/tmprae_yccg/80g5h6lheg.sdf

>  <i_m_source_file_index>  (249) 
30

>  <i_lp_mmshare_version>  (249) 
48012

>  <i_f3d_flags>  (249) 
0

>  <s_epik_input>  (249) 
W0NIXTE9W0NIXUMoPU8pQyhbQ0gzXSk9QyhbQ0BAXTEyMylPW0NASF0oW0NIMl0yKVtDQF00KFtDSDNdKVtDQEhdKEMzKFtDSDNdKVtDSDNdKVtDQF0oW0NIM10pKFtDQEBIXShbQ0gyXTQpW09IXSlbQ0BASF0oW0NAQEhdKFtDSDJdNSlbT0hdKVtDSDJdW0NAQF01KFtDSDNdKVtPSF0=

>  <s_epik_cmdline>  (249) 
J2VwaWtfcHl0aG9uJywgJy1waHQnLCAnMi4wJywgJy1waCcsICc3LjAnLCAnLXRuJywgJzgnLCAnLW1hJywgJzIwMCcsICctaW1hZScsICc8aW5maWxlLm1hZT4nLCAnLW9tYWUnLCAnPG91dGZpbGUubWFlPic=

>  <r_lp_tautomer_probability>  (249) 
1

>  <r_epik_Ionization_Penalty>  (249) 
3.03584e-06

>  <r_epik_Ionization_Penalty_Charging>  (249) 
0

>  <r_epik_Ionization_Penalty_Neutral>  (249) 
3.03584e-06

>  <r_epik_State_Penalty>  (249) 
-0

>  <r_epik_Charging_Adjusted_Penalty>  (249) 
0

>  <i_epik_Tot_Q>  (249) 
0

>  <i_epik_Tot_abs_Q>  (249) 
0

>  <s_lp_Force_Field>  (249) 
OPLS3e

>  <r_lp_Energy>  (249) 
67.3003

>  <b_lp_Chiralities_Consistent>  (249) 
1

>  <s_lp_Variant>  (249) 
79:0-1

>  <s_i_glide_gridfile>  (249) 
pfpi4k_grid

>  <i_i_glide_lignum>  (249) 
30

>  <i_i_glide_rotatable_bonds>  (249) 
4

>  <r_i_docking_score>  (249) 
-3.22654

>  <r_i_glide_ligand_efficiency>  (249) 
-0.107551

>  <r_i_glide_ligand_efficiency_sa>  (249) 
-0.334187

>  <r_i_glide_ligand_efficiency_ln>  (249) 
-0.733106

>  <r_i_glide_gscore>  (249) 
-3.22654

>  <r_i_glide_lipo>  (249) 
-0.33223

>  <r_i_glide_hbond>  (249) 
-0.27204

>  <r_i_glide_metal>  (249) 
-0

>  <r_i_glide_rewards>  (249) 
-0.568975

>  <r_i_glide_evdw>  (249) 
-26.9749

>  <r_i_glide_ecoul>  (249) 
-5.19096

>  <r_i_glide_erotb>  (249) 
0.113864

>  <r_i_glide_esite>  (249) 
-0.0397749

>  <r_i_glide_emodel>  (249) 
-37.2796

>  <r_i_glide_energy>  (249) 
-32.1658

>  <r_i_glide_einternal>  (249) 
0.587856

>  <r_i_glide_intrahb_reward>  (249) 
-0

>  <i_i_glide_confnum>  (249) 
3

>  <i_i_glide_posenum>  (249) 
16

>  <r_i_glide_eff_state_penalty>  (249) 
0

>  <ligand_id>  (249) 
79

>  <original_smiles>  (249) 
CC1=C2OC3CC2(C=CC1=O)C(C)(C)C1C3(C)CC(O)C1(C)C1CC(C)(O)CC1O

>  <smiles>  (249) 
[H]OC1([H])C([H])([H])C(O[H])(C([H])([H])[H])C([H])([H])C1([H])C1(C([H])([H])[H])C([H])(O[H])C([H])([H])C2(C([H])([H])[H])C3([H])OC4=C(C([H])([H])[H])C(=O)C([H])=C([H])C4(C3([H])[H])C(C([H])([H])[H])(C([H])([H])[H])C21[H]

$$$$
80:0:0
     RDKit          3D

 42 46  0  0  1  0  0  0  0  0999 V2000
    3.1775   -2.7715   -0.3462 C   0  0  0  0  0  0  0  0  0  0  0  0
    4.2617   -1.8665    0.2773 C   0  0  2  0  0  0  0  0  0  0  0  0
    5.1921   -1.3832   -0.8874 C   0  0  0  0  0  0  0  0  0  0  0  0
    6.3446   -2.3545   -0.8368 C   0  0  0  0  0  0  0  0  0  0  0  0
    6.3770   -2.9473    0.3529 C   0  0  0  0  0  0  0  0  0  0  0  0
    7.0982   -4.1660    0.8321 C   0  0  0  0  0  0  0  0  0  0  0  0
    5.9697   -4.9325    1.5347 C   0  0  2  0  0  0  0  0  0  0  0  0
    5.2317   -5.8992    0.5786 C   0  0  0  0  0  0  0  0  0  0  0  0
    4.0143   -6.5783    1.2344 C   0  0  0  0  0  0  0  0  0  0  0  0
    3.1953   -5.5411    1.9656 C   0  0  0  0  0  0  0  0  0  0  0  0
    3.6134   -4.3366    2.3275 C   0  0  0  0  0  0  0  0  0  0  0  0
    2.5411   -3.6277    3.0890 C   0  0  0  0  0  0  0  0  0  0  0  0
    1.4798   -4.5809    3.0797 O   0  0  0  0  0  0  0  0  0  0  0  0
    1.8187   -5.7123    2.4148 C   0  0  0  0  0  0  0  0  0  0  0  0
    1.0874   -6.6789    2.2178 O   0  0  0  0  0  0  0  0  0  0  0  0
    5.0308   -3.8268    2.1223 C   0  0  2  0  0  0  0  0  0  0  0  0
    5.2752   -2.5334    1.2692 C   0  0  2  0  0  0  0  0  0  0  0  0
    5.7264   -1.3427    2.1363 C   0  0  0  0  0  0  0  0  0  0  0  0
    4.4662   -0.5146    2.3450 C   0  0  0  0  0  0  0  0  0  0  0  0
    3.6360   -0.6915    1.0632 C   0  0  0  0  0  0  0  0  0  0  0  0
    2.6276   -2.2351   -1.1207 H   0  0  0  0  0  0  0  0  0  0  0  0
    2.4273   -3.0876    0.3725 H   0  0  0  0  0  0  0  0  0  0  0  0
    3.6024   -3.6555   -0.8189 H   0  0  0  0  0  0  0  0  0  0  0  0
    4.7020   -1.3784   -1.8622 H   0  0  0  0  0  0  0  0  0  0  0  0
    5.5808   -0.3798   -0.7039 H   0  0  0  0  0  0  0  0  0  0  0  0
    6.9764   -2.5858   -1.6813 H   0  0  0  0  0  0  0  0  0  0  0  0
    7.6054   -4.7219    0.0423 H   0  0  0  0  0  0  0  0  0  0  0  0
    7.8366   -3.8497    1.5674 H   0  0  0  0  0  0  0  0  0  0  0  0
    6.3849   -5.5315    2.3452 H   0  0  0  0  0  0  0  0  0  0  0  0
    4.9004   -5.3624   -0.3079 H   0  0  0  0  0  0  0  0  0  0  0  0
    5.9264   -6.6559    0.2262 H   0  0  0  0  0  0  0  0  0  0  0  0
    3.4089   -7.0797    0.4811 H   0  0  0  0  0  0  0  0  0  0  0  0
    4.3430   -7.3355    1.9492 H   0  0  0  0  0  0  0  0  0  0  0  0
    2.2517   -2.7001    2.6003 H   0  0  0  0  0  0  0  0  0  0  0  0
    2.8680   -3.4104    4.1032 H   0  0  0  0  0  0  0  0  0  0  0  0
    5.3901   -3.6412    3.1373 H   0  0  0  0  0  0  0  0  0  0  0  0
    6.2046   -1.6198    3.0734 H   0  0  0  0  0  0  0  0  0  0  0  0
    6.4513   -0.7354    1.5919 H   0  0  0  0  0  0  0  0  0  0  0  0
    3.9158   -0.9089    3.2006 H   0  0  0  0  0  0  0  0  0  0  0  0
    4.6860    0.5351    2.5518 H   0  0  0  0  0  0  0  0  0  0  0  0
    3.6346    0.2269    0.4762 H   0  0  0  0  0  0  0  0  0  0  0  0
    2.5923   -0.8850    1.3237 H   0  0  0  0  0  0  0  0  0  0  0  0
  2  1  1  6
  1 21  1  0
  1 22  1  0
  1 23  1  0
  2 17  1  0
  2 20  1  0
  2  3  1  0
  3  4  1  0
  3 24  1  0
  3 25  1  0
  4  5  2  0
  4 26  1  0
  5 17  1  0
  5  6  1  0
  6  7  1  0
  6 27  1  0
  6 28  1  0
  7 16  1  0
  7  8  1  0
  7 29  1  1
  8  9  1  0
  8 30  1  0
  8 31  1  0
  9 32  1  0
  9 33  1  0
  9 10  1  0
 10 11  2  0
 10 14  1  0
 11 16  1  0
 11 12  1  0
 12 13  1  0
 12 34  1  0
 12 35  1  0
 13 14  1  0
 14 15  2  0
 16 17  1  0
 16 36  1  1
 17 18  1  1
 18 19  1  0
 18 37  1  0
 18 38  1  0
 19 20  1  0
 19 39  1  0
 19 40  1  0
 20 41  1  0
 20 42  1  0
M  END
>  <i_m_ct_stereo_status>  (250) 
1

>  <s_m_source_file>  (250) 
/var/tmp/pbs.5076255.sched01/tmprae_yccg/80g5h6lheg.sdf

>  <i_m_source_file_index>  (250) 
31

>  <i_lp_mmshare_version>  (250) 
48012

>  <i_f3d_flags>  (250) 
0

>  <s_epik_input>  (250) 
W0NIMl0xW0NIMl1bQ0gyXVtDQEBdKFtDQF0xMjMpKFtDSDNdKVtDSDJdW0NIXT1DMltDSDJdW0NASF00W0NAQEhdM2M1YyhbQ0gyXVtDSDJdNCljKFtPSF0pb1tjSF01

>  <s_epik_cmdline>  (250) 
J2VwaWtfcHl0aG9uJywgJy1waHQnLCAnMi4wJywgJy1waCcsICc3LjAnLCAnLXRuJywgJzgnLCAnLW1hJywgJzIwMCcsICctaW1hZScsICc8aW5maWxlLm1hZT4nLCAnLW9tYWUnLCAnPG91dGZpbGUubWFlPic=

>  <r_lp_tautomer_probability>  (250) 
1

>  <r_epik_Ionization_Penalty>  (250) 
0

>  <r_epik_Ionization_Penalty_Charging>  (250) 
0

>  <r_epik_Ionization_Penalty_Neutral>  (250) 
0

>  <r_epik_State_Penalty>  (250) 
-0

>  <r_epik_Charging_Adjusted_Penalty>  (250) 
0

>  <i_epik_Tot_Q>  (250) 
0

>  <i_epik_Tot_abs_Q>  (250) 
0

>  <s_epik_Chemistry_Notes>  (250) 
This compound has an ester and may undergo hydrolysis at high or low pH.

>  <s_lp_Force_Field>  (250) 
OPLS3e

>  <r_lp_Energy>  (250) 
19.2467

>  <b_lp_Chiralities_Consistent>  (250) 
1

>  <s_lp_Variant>  (250) 
80:0-1

>  <s_i_glide_gridfile>  (250) 
pfpi4k_grid

>  <i_i_glide_lignum>  (250) 
31

>  <i_i_glide_rotatable_bonds>  (250) 
0

>  <r_i_docking_score>  (250) 
-3.52433

>  <r_i_glide_ligand_efficiency>  (250) 
-0.176216

>  <r_i_glide_ligand_efficiency_sa>  (250) 
-0.478325

>  <r_i_glide_ligand_efficiency_ln>  (250) 
-0.882022

>  <r_i_glide_gscore>  (250) 
-3.52433

>  <r_i_glide_lipo>  (250) 
-0.782572

>  <r_i_glide_hbond>  (250) 
0

>  <r_i_glide_metal>  (250) 
-0

>  <r_i_glide_rewards>  (250) 
-1.56569

>  <r_i_glide_evdw>  (250) 
-21.4599

>  <r_i_glide_ecoul>  (250) 
-0.504848

>  <r_i_glide_erotb>  (250) 
0

>  <r_i_glide_esite>  (250) 
-0.0273455

>  <r_i_glide_emodel>  (250) 
-26.7678

>  <r_i_glide_energy>  (250) 
-21.9648

>  <r_i_glide_einternal>  (250) 
0

>  <r_i_glide_intrahb_reward>  (250) 
-0

>  <i_i_glide_confnum>  (250) 
1

>  <i_i_glide_posenum>  (250) 
1

>  <r_i_glide_eff_state_penalty>  (250) 
0

>  <ligand_id>  (250) 
80

>  <original_smiles>  (250) 
CC12CC=C3CC4CCc5c(coc5O)C4C31CCC2

>  <smiles>  (250) 
[H]C1=C2C([H])([H])C3([H])C([H])([H])C([H])([H])C4=C(C([H])([H])OC4=O)C3([H])C23C([H])([H])C([H])([H])C([H])([H])C3(C([H])([H])[H])C1([H])[H]

$$$$
83:0:0
     RDKit          3D

 31 33  0  0  1  0  0  0  0  0999 V2000
    3.2824   -1.9954   -2.4414 C   0  0  0  0  0  0  0  0  0  0  0  0
    3.5605   -3.0658   -1.3743 C   0  0  2  0  0  0  0  0  0  0  0  0
    2.1960   -3.5792   -0.8660 C   0  0  0  0  0  0  0  0  0  0  0  0
    2.2910   -4.8724   -0.3146 O   0  0  0  0  0  0  0  0  0  0  0  0
    4.5901   -2.6562   -0.2382 C   0  0  1  0  0  0  0  0  0  0  0  0
    5.8170   -3.4959   -0.3507 C   0  0  0  0  0  0  0  0  0  0  0  0
    6.8963   -2.8982   -0.5575 N   0  0  0  0  0  0  0  0  0  0  0  0
    6.6584   -1.4941   -0.5643 O   0  0  0  0  0  0  0  0  0  0  0  0
    5.2604   -1.2654   -0.3809 C   0  0  2  0  0  0  0  0  0  0  0  0
    4.9530   -0.5661    0.9694 C   0  0  2  0  0  0  0  0  0  0  0  0
    5.7602   -1.1622    2.1422 C   0  0  0  0  0  0  0  0  0  0  0  0
    5.0725   -2.5239    2.3538 C   0  0  0  0  0  0  0  0  0  0  0  0
    4.0154   -2.5622    1.2310 C   0  0  1  0  0  0  0  0  0  0  0  0
    3.5558   -1.1041    1.2544 C   0  0  0  0  0  0  0  0  0  0  0  0
    2.8599   -1.0967   -1.9872 H   0  0  0  0  0  0  0  0  0  0  0  0
    2.5806   -2.3589   -3.1739 H   0  0  0  0  0  0  0  0  0  0  0  0
    4.2090   -1.7288   -2.9544 H   0  0  0  0  0  0  0  0  0  0  0  0
    3.9691   -3.8959   -1.9571 H   0  0  0  0  0  0  0  0  0  0  0  0
    1.7958   -2.8948   -0.1135 H   0  0  0  0  0  0  0  0  0  0  0  0
    1.4592   -3.6317   -1.6688 H   0  0  0  0  0  0  0  0  0  0  0  0
    2.6118   -5.4594   -1.0059 H   0  0  0  0  0  0  0  0  0  0  0  0
    5.7047   -4.5810   -0.2253 H   0  0  0  0  0  0  0  0  0  0  0  0
    4.8698   -0.6299   -1.1844 H   0  0  0  0  0  0  0  0  0  0  0  0
    5.0327    0.5210    0.9148 H   0  0  0  0  0  0  0  0  0  0  0  0
    6.8198   -1.2637    1.9076 H   0  0  0  0  0  0  0  0  0  0  0  0
    5.6653   -0.5445    3.0390 H   0  0  0  0  0  0  0  0  0  0  0  0
    5.7587   -3.3762    2.3608 H   0  0  0  0  0  0  0  0  0  0  0  0
    4.5618   -2.5313    3.3227 H   0  0  0  0  0  0  0  0  0  0  0  0
    3.2564   -3.3084    1.4909 H   0  0  0  0  0  0  0  0  0  0  0  0
    3.1355   -0.7770    2.2057 H   0  0  0  0  0  0  0  0  0  0  0  0
    2.8551   -0.8681    0.4580 H   0  0  0  0  0  0  0  0  0  0  0  0
  1  2  1  0
  1 15  1  0
  1 16  1  0
  1 17  1  0
  2  3  1  0
  2  5  1  0
  2 18  1  6
  3  4  1  0
  3 19  1  0
  3 20  1  0
  4 21  1  0
  5  9  1  0
  5 13  1  0
  5  6  1  1
  6  7  2  0
  6 22  1  0
  7  8  1  0
  8  9  1  0
  9 10  1  0
  9 23  1  6
 10 14  1  0
 10 11  1  0
 10 24  1  6
 11 12  1  0
 11 25  1  0
 11 26  1  0
 12 13  1  0
 12 27  1  0
 12 28  1  0
 13 14  1  0
 13 29  1  1
 14 30  1  0
 14 31  1  0
M  END
>  <i_m_ct_stereo_status>  (251) 
1

>  <s_m_source_file>  (251) 
/var/tmp/pbs.5076255.sched01/tmprae_yccg/80g5h6lheg.sdf

>  <i_m_source_file_index>  (251) 
34

>  <i_lp_mmshare_version>  (251) 
48012

>  <i_f3d_flags>  (251) 
0

>  <s_epik_input>  (251) 
W09IXVtDSDJdW0NAQEhdKFtDSDNdKVtDQF0xMltDQEhdKE9OPVtDSF0xKVtDQEBIXTNbQ0gyXVtDSDJdW0NASF0yW0NIMl0z

>  <s_epik_cmdline>  (251) 
J2VwaWtfcHl0aG9uJywgJy1waHQnLCAnMi4wJywgJy1waCcsICc3LjAnLCAnLXRuJywgJzgnLCAnLW1hJywgJzIwMCcsICctaW1hZScsICc8aW5maWxlLm1hZT4nLCAnLW9tYWUnLCAnPG91dGZpbGUubWFlPic=

>  <r_lp_tautomer_probability>  (251) 
1

>  <r_epik_Ionization_Penalty>  (251) 
3.47979e-07

>  <r_epik_Ionization_Penalty_Charging>  (251) 
0

>  <r_epik_Ionization_Penalty_Neutral>  (251) 
3.47979e-07

>  <r_epik_State_Penalty>  (251) 
-0

>  <r_epik_Charging_Adjusted_Penalty>  (251) 
0

>  <i_epik_Tot_Q>  (251) 
0

>  <i_epik_Tot_abs_Q>  (251) 
0

>  <s_epik_Chemistry_Notes>  (251) 
This compound has an imine and may undergo hydrolysis.

>  <s_lp_Force_Field>  (251) 
OPLS3e

>  <r_lp_Energy>  (251) 
25.6381

>  <b_lp_Chiralities_Consistent>  (251) 
1

>  <s_lp_Variant>  (251) 
83:0-1

>  <s_i_glide_gridfile>  (251) 
pfpi4k_grid

>  <i_i_glide_lignum>  (251) 
34

>  <i_i_glide_rotatable_bonds>  (251) 
3

>  <r_i_docking_score>  (251) 
-4.39331

>  <r_i_glide_ligand_efficiency>  (251) 
-0.313808

>  <r_i_glide_ligand_efficiency_sa>  (251) 
-0.756321

>  <r_i_glide_ligand_efficiency_ln>  (251) 
-1.20727

>  <r_i_glide_gscore>  (251) 
-4.39331

>  <r_i_glide_lipo>  (251) 
-0.332053

>  <r_i_glide_hbond>  (251) 
-0.32

>  <r_i_glide_metal>  (251) 
-0

>  <r_i_glide_rewards>  (251) 
-2.17212

>  <r_i_glide_evdw>  (251) 
-13.5011

>  <r_i_glide_ecoul>  (251) 
-8.14305

>  <r_i_glide_erotb>  (251) 
0.424967

>  <r_i_glide_esite>  (251) 
-0.0975877

>  <r_i_glide_emodel>  (251) 
-22.6188

>  <r_i_glide_energy>  (251) 
-21.6441

>  <r_i_glide_einternal>  (251) 
11.4074

>  <r_i_glide_intrahb_reward>  (251) 
-0

>  <i_i_glide_confnum>  (251) 
1

>  <i_i_glide_posenum>  (251) 
31

>  <r_i_glide_eff_state_penalty>  (251) 
0

>  <ligand_id>  (251) 
83

>  <original_smiles>  (251) 
CC(CO)C12C=NOC1C1CCC2C1

>  <smiles>  (251) 
[H]OC([H])([H])C([H])(C([H])([H])[H])C12C([H])=NOC1([H])C1([H])C([H])([H])C([H])([H])C2([H])C1([H])[H]

$$$$
83:0:1
     RDKit          3D

 31 33  0  0  1  0  0  0  0  0999 V2000
    3.2736   -1.7447   -2.6581 C   0  0  0  0  0  0  0  0  0  0  0  0
    3.2921   -3.1196   -1.9425 C   0  0  2  0  0  0  0  0  0  0  0  0
    1.8981   -3.3199   -1.2939 C   0  0  0  0  0  0  0  0  0  0  0  0
    1.6789   -4.6505   -0.8344 O   0  0  0  0  0  0  0  0  0  0  0  0
    4.5511   -3.3151   -0.9990 C   0  0  1  0  0  0  0  0  0  0  0  0
    5.8011   -3.2040   -1.8136 C   0  0  0  0  0  0  0  0  0  0  0  0
    6.5960   -2.2523   -1.4984 N   0  0  0  0  0  0  0  0  0  0  0  0
    6.0619   -1.5690   -0.3851 O   0  0  0  0  0  0  0  0  0  0  0  0
    4.8320   -2.2053    0.0045 C   0  0  2  0  0  0  0  0  0  0  0  0
    4.9172   -2.9244    1.3790 C   0  0  2  0  0  0  0  0  0  0  0  0
    6.1716   -3.8182    1.4996 C   0  0  0  0  0  0  0  0  0  0  0  0
    5.8385   -4.9831    0.5487 C   0  0  0  0  0  0  0  0  0  0  0  0
    4.4864   -4.5618   -0.0551 C   0  0  1  0  0  0  0  0  0  0  0  0
    3.8314   -3.9736    1.2308 C   0  0  0  0  0  0  0  0  0  0  0  0
    3.2185   -0.9173   -1.9512 H   0  0  0  0  0  0  0  0  0  0  0  0
    2.4008   -1.6557   -3.3039 H   0  0  0  0  0  0  0  0  0  0  0  0
    4.1495   -1.5864   -3.2862 H   0  0  0  0  0  0  0  0  0  0  0  0
    3.3707   -3.8493   -2.7507 H   0  0  0  0  0  0  0  0  0  0  0  0
    1.8139   -2.6534   -0.4400 H   0  0  0  0  0  0  0  0  0  0  0  0
    1.1183   -3.0811   -2.0137 H   0  0  0  0  0  0  0  0  0  0  0  0
    2.1413   -5.2558   -1.4097 H   0  0  0  0  0  0  0  0  0  0  0  0
    5.9653   -3.9139   -2.6344 H   0  0  0  0  0  0  0  0  0  0  0  0
    4.0356   -1.4610    0.0228 H   0  0  0  0  0  0  0  0  0  0  0  0
    4.7834   -2.2372    2.2149 H   0  0  0  0  0  0  0  0  0  0  0  0
    7.0983   -3.3012    1.2358 H   0  0  0  0  0  0  0  0  0  0  0  0
    6.2514   -4.1817    2.5253 H   0  0  0  0  0  0  0  0  0  0  0  0
    6.6249   -5.1978   -0.1711 H   0  0  0  0  0  0  0  0  0  0  0  0
    5.6933   -5.9036    1.1258 H   0  0  0  0  0  0  0  0  0  0  0  0
    3.9901   -5.4306   -0.5069 H   0  0  0  0  0  0  0  0  0  0  0  0
    3.8341   -4.6973    2.0566 H   0  0  0  0  0  0  0  0  0  0  0  0
    2.8582   -3.5055    1.1223 H   0  0  0  0  0  0  0  0  0  0  0  0
  1  2  1  0
  1 15  1  0
  1 16  1  0
  1 17  1  0
  2  3  1  0
  2  5  1  0
  2 18  1  6
  3  4  1  0
  3 19  1  0
  3 20  1  0
  4 21  1  0
  5  9  1  0
  5 13  1  0
  5  6  1  6
  6  7  2  0
  6 22  1  0
  7  8  1  0
  8  9  1  0
  9 10  1  0
  9 23  1  1
 10 14  1  0
 10 11  1  0
 10 24  1  1
 11 12  1  0
 11 25  1  0
 11 26  1  0
 12 13  1  0
 12 27  1  0
 12 28  1  0
 13 14  1  0
 13 29  1  6
 14 30  1  0
 14 31  1  0
M  END
>  <i_m_ct_stereo_status>  (252) 
1

>  <s_m_source_file>  (252) 
/var/tmp/pbs.5076255.sched01/tmprae_yccg/80g5h6lheg.sdf

>  <i_m_source_file_index>  (252) 
34

>  <i_lp_mmshare_version>  (252) 
48012

>  <i_f3d_flags>  (252) 
0

>  <s_epik_input>  (252) 
W09IXVtDSDJdW0NAQEhdKFtDSDNdKVtDQF0xMltDQEhdKE9OPVtDSF0xKVtDQEBIXTNbQ0gyXVtDSDJdW0NASF0yW0NIMl0z

>  <s_epik_cmdline>  (252) 
J2VwaWtfcHl0aG9uJywgJy1waHQnLCAnMi4wJywgJy1waCcsICc3LjAnLCAnLXRuJywgJzgnLCAnLW1hJywgJzIwMCcsICctaW1hZScsICc8aW5maWxlLm1hZT4nLCAnLW9tYWUnLCAnPG91dGZpbGUubWFlPic=

>  <r_lp_tautomer_probability>  (252) 
1

>  <r_epik_Ionization_Penalty>  (252) 
3.47979e-07

>  <r_epik_Ionization_Penalty_Charging>  (252) 
0

>  <r_epik_Ionization_Penalty_Neutral>  (252) 
3.47979e-07

>  <r_epik_State_Penalty>  (252) 
-0

>  <r_epik_Charging_Adjusted_Penalty>  (252) 
0

>  <i_epik_Tot_Q>  (252) 
0

>  <i_epik_Tot_abs_Q>  (252) 
0

>  <s_epik_Chemistry_Notes>  (252) 
This compound has an imine and may undergo hydrolysis.

>  <s_lp_Force_Field>  (252) 
OPLS3e

>  <r_lp_Energy>  (252) 
25.6381

>  <b_lp_Chiralities_Consistent>  (252) 
1

>  <s_lp_Variant>  (252) 
83:0-1

>  <s_i_glide_gridfile>  (252) 
pfpi4k_grid

>  <i_i_glide_lignum>  (252) 
34

>  <i_i_glide_rotatable_bonds>  (252) 
3

>  <r_i_docking_score>  (252) 
-4.34564

>  <r_i_glide_ligand_efficiency>  (252) 
-0.310403

>  <r_i_glide_ligand_efficiency_sa>  (252) 
-0.748115

>  <r_i_glide_ligand_efficiency_ln>  (252) 
-1.19417

>  <r_i_glide_gscore>  (252) 
-4.34564

>  <r_i_glide_lipo>  (252) 
-0.252655

>  <r_i_glide_hbond>  (252) 
-0.3275

>  <r_i_glide_metal>  (252) 
-0

>  <r_i_glide_rewards>  (252) 
-2.2645

>  <r_i_glide_evdw>  (252) 
-9.90731

>  <r_i_glide_ecoul>  (252) 
-8.83551

>  <r_i_glide_erotb>  (252) 
0.424967

>  <r_i_glide_esite>  (252) 
-0.105258

>  <r_i_glide_emodel>  (252) 
-23.2463

>  <r_i_glide_energy>  (252) 
-18.7428

>  <r_i_glide_einternal>  (252) 
3.64478

>  <r_i_glide_intrahb_reward>  (252) 
-0

>  <i_i_glide_confnum>  (252) 
3

>  <i_i_glide_posenum>  (252) 
1

>  <r_i_glide_eff_state_penalty>  (252) 
0

>  <ligand_id>  (252) 
83

>  <original_smiles>  (252) 
CC(CO)C12C=NOC1C1CCC2C1

>  <smiles>  (252) 
[H]OC([H])([H])C([H])(C([H])([H])[H])C12C([H])=NOC1([H])C1([H])C([H])([H])C([H])([H])C2([H])C1([H])[H]

$$$$
83:0:2
     RDKit          3D

 31 33  0  0  1  0  0  0  0  0999 V2000
    2.1196   -2.6790   -3.8164 C   0  0  0  0  0  0  0  0  0  0  0  0
    2.9121   -1.5483   -3.1178 C   0  0  2  0  0  0  0  0  0  0  0  0
    3.3756   -0.6290   -4.2803 C   0  0  0  0  0  0  0  0  0  0  0  0
    3.8127    0.6416   -3.9017 O   0  0  0  0  0  0  0  0  0  0  0  0
    4.0175   -2.0135   -2.0833 C   0  0  1  0  0  0  0  0  0  0  0  0
    4.3982   -0.9110   -1.1668 C   0  0  0  0  0  0  0  0  0  0  0  0
    4.2096   -1.0737    0.0738 N   0  0  0  0  0  0  0  0  0  0  0  0
    3.6643   -2.3573    0.2816 O   0  0  0  0  0  0  0  0  0  0  0  0
    3.5517   -2.9972   -0.9890 C   0  0  2  0  0  0  0  0  0  0  0  0
    4.5433   -4.1680   -1.1288 C   0  0  2  0  0  0  0  0  0  0  0  0
    5.9667   -3.7726   -0.6494 C   0  0  0  0  0  0  0  0  0  0  0  0
    6.4802   -2.8669   -1.7894 C   0  0  0  0  0  0  0  0  0  0  0  0
    5.2361   -2.7623   -2.7095 C   0  0  1  0  0  0  0  0  0  0  0  0
    4.7461   -4.1838   -2.6332 C   0  0  0  0  0  0  0  0  0  0  0  0
    2.7107   -3.1868   -4.5769 H   0  0  0  0  0  0  0  0  0  0  0  0
    1.2441   -2.2829   -4.3217 H   0  0  0  0  0  0  0  0  0  0  0  0
    1.7434   -3.4279   -3.1305 H   0  0  0  0  0  0  0  0  0  0  0  0
    2.2075   -0.9851   -2.5235 H   0  0  0  0  0  0  0  0  0  0  0  0
    4.1512   -1.0861   -4.8816 H   0  0  0  0  0  0  0  0  0  0  0  0
    2.5386   -0.4388   -4.9449 H   0  0  0  0  0  0  0  0  0  0  0  0
    3.1082    1.1262   -3.4813 H   0  0  0  0  0  0  0  0  0  0  0  0
    4.8211   -0.0223   -1.6241 H   0  0  0  0  0  0  0  0  0  0  0  0
    2.5209   -3.3169   -1.1120 H   0  0  0  0  0  0  0  0  0  0  0  0
    4.1743   -5.0999   -0.6917 H   0  0  0  0  0  0  0  0  0  0  0  0
    5.9729   -3.2826    0.3285 H   0  0  0  0  0  0  0  0  0  0  0  0
    6.5978   -4.6499   -0.5570 H   0  0  0  0  0  0  0  0  0  0  0  0
    6.8723   -1.9096   -1.4368 H   0  0  0  0  0  0  0  0  0  0  0  0
    7.2927   -3.3632   -2.3308 H   0  0  0  0  0  0  0  0  0  0  0  0
    5.4520   -2.4496   -3.7268 H   0  0  0  0  0  0  0  0  0  0  0  0
    5.4164   -4.9636   -2.9453 H   0  0  0  0  0  0  0  0  0  0  0  0
    3.8625   -4.2756   -3.2473 H   0  0  0  0  0  0  0  0  0  0  0  0
  1  2  1  0
  1 15  1  0
  1 16  1  0
  1 17  1  0
  2  3  1  0
  2  5  1  0
  2 18  1  1
  3  4  1  0
  3 19  1  0
  3 20  1  0
  4 21  1  0
  5  9  1  0
  5 13  1  0
  5  6  1  1
  6  7  2  0
  6 22  1  0
  7  8  1  0
  8  9  1  0
  9 10  1  0
  9 23  1  6
 10 14  1  0
 10 11  1  0
 10 24  1  1
 11 12  1  0
 11 25  1  0
 11 26  1  0
 12 13  1  0
 12 27  1  0
 12 28  1  0
 13 14  1  0
 13 29  1  6
 14 30  1  0
 14 31  1  0
M  END
>  <i_m_ct_stereo_status>  (253) 
1

>  <s_m_source_file>  (253) 
/var/tmp/pbs.5076255.sched01/tmprae_yccg/80g5h6lheg.sdf

>  <i_m_source_file_index>  (253) 
34

>  <i_lp_mmshare_version>  (253) 
48012

>  <i_f3d_flags>  (253) 
0

>  <s_epik_input>  (253) 
W09IXVtDSDJdW0NAQEhdKFtDSDNdKVtDQF0xMltDQEhdKE9OPVtDSF0xKVtDQEBIXTNbQ0gyXVtDSDJdW0NASF0yW0NIMl0z

>  <s_epik_cmdline>  (253) 
J2VwaWtfcHl0aG9uJywgJy1waHQnLCAnMi4wJywgJy1waCcsICc3LjAnLCAnLXRuJywgJzgnLCAnLW1hJywgJzIwMCcsICctaW1hZScsICc8aW5maWxlLm1hZT4nLCAnLW9tYWUnLCAnPG91dGZpbGUubWFlPic=

>  <r_lp_tautomer_probability>  (253) 
1

>  <r_epik_Ionization_Penalty>  (253) 
3.47979e-07

>  <r_epik_Ionization_Penalty_Charging>  (253) 
0

>  <r_epik_Ionization_Penalty_Neutral>  (253) 
3.47979e-07

>  <r_epik_State_Penalty>  (253) 
-0

>  <r_epik_Charging_Adjusted_Penalty>  (253) 
0

>  <i_epik_Tot_Q>  (253) 
0

>  <i_epik_Tot_abs_Q>  (253) 
0

>  <s_epik_Chemistry_Notes>  (253) 
This compound has an imine and may undergo hydrolysis.

>  <s_lp_Force_Field>  (253) 
OPLS3e

>  <r_lp_Energy>  (253) 
25.6381

>  <b_lp_Chiralities_Consistent>  (253) 
1

>  <s_lp_Variant>  (253) 
83:0-1

>  <s_i_glide_gridfile>  (253) 
pfpi4k_grid

>  <i_i_glide_lignum>  (253) 
34

>  <i_i_glide_rotatable_bonds>  (253) 
3

>  <r_i_docking_score>  (253) 
-4.11626

>  <r_i_glide_ligand_efficiency>  (253) 
-0.294019

>  <r_i_glide_ligand_efficiency_sa>  (253) 
-0.708627

>  <r_i_glide_ligand_efficiency_ln>  (253) 
-1.13113

>  <r_i_glide_gscore>  (253) 
-4.11626

>  <r_i_glide_lipo>  (253) 
-0.678229

>  <r_i_glide_hbond>  (253) 
-0.32

>  <r_i_glide_metal>  (253) 
-0

>  <r_i_glide_rewards>  (253) 
-2.07779

>  <r_i_glide_evdw>  (253) 
-13.9603

>  <r_i_glide_ecoul>  (253) 
-4.55009

>  <r_i_glide_erotb>  (253) 
0.424967

>  <r_i_glide_esite>  (253) 
-0.084687

>  <r_i_glide_emodel>  (253) 
-22.9558

>  <r_i_glide_energy>  (253) 
-18.5104

>  <r_i_glide_einternal>  (253) 
3.34799

>  <r_i_glide_intrahb_reward>  (253) 
-0

>  <i_i_glide_confnum>  (253) 
1

>  <i_i_glide_posenum>  (253) 
3

>  <r_i_glide_eff_state_penalty>  (253) 
0

>  <ligand_id>  (253) 
83

>  <original_smiles>  (253) 
CC(CO)C12C=NOC1C1CCC2C1

>  <smiles>  (253) 
[H]OC([H])([H])C([H])(C([H])([H])[H])C12C([H])=NOC1([H])C1([H])C([H])([H])C([H])([H])C2([H])C1([H])[H]

$$$$
84:0:0
     RDKit          3D

 59 64  0  0  1  0  0  0  0  0999 V2000
    3.4470   -6.6311    4.4444 C   0  0  0  0  0  0  0  0  0  0  0  0
    3.2167   -5.9748    3.0626 C   0  0  0  0  0  0  0  0  0  0  0  0
    3.4494   -7.0581    1.9881 C   0  0  0  0  0  0  0  0  0  0  0  0
    1.7909   -5.3940    2.8874 C   0  0  1  0  0  0  0  0  0  0  0  0
    0.7928   -5.9630    3.7124 O   0  0  0  0  0  0  0  0  0  0  0  0
    1.8761   -3.8801    3.1160 C   0  0  0  0  0  0  0  0  0  0  0  0
    3.2675   -3.4357    2.6383 C   0  0  1  0  0  0  0  0  0  0  0  0
    4.1438   -4.7262    2.9206 C   0  0  2  0  0  0  0  0  0  0  0  0
    5.5188   -4.9184    2.2059 C   0  0  0  0  0  0  0  0  0  0  0  0
    6.0283   -3.5500    1.9061 C   0  0  1  0  0  0  0  0  0  0  0  0
    7.0580   -3.0790    1.0595 O   0  0  0  0  0  0  0  0  0  0  0  0
    5.6937   -2.9384    0.5389 C   0  0  1  0  0  0  0  0  0  0  0  0
    5.7497   -3.5363   -0.8920 C   0  0  1  0  0  0  0  0  0  0  0  0
    5.2873   -4.8482   -0.8670 O   0  0  0  0  0  0  0  0  0  0  0  0
    5.0802   -2.7373   -2.0603 C   0  0  1  0  0  0  0  0  0  0  0  0
    5.1485   -3.2607   -3.5072 C   0  0  1  0  0  0  0  0  0  0  0  0
    4.6111   -4.5330   -3.7571 O   0  0  0  0  0  0  0  0  0  0  0  0
    4.3928   -2.3200   -4.2048 O   0  0  0  0  0  0  0  0  0  0  0  0
    3.2536   -1.9917   -3.4128 C   0  0  0  0  0  0  0  0  0  0  0  0
    3.6402   -2.3105   -1.9425 C   0  0  1  0  0  0  0  0  0  0  0  0
    2.6219   -3.2610   -1.3102 C   0  0  0  0  0  0  0  0  0  0  0  0
    2.7713   -3.6833    0.1611 C   0  0  0  0  0  0  0  0  0  0  0  0
    3.2595   -2.6793    1.2343 C   0  0  2  0  0  0  0  0  0  0  0  0
    4.6230   -1.9186    0.9026 C   0  0  1  0  0  0  0  0  0  0  0  0
    4.9778   -0.8732    2.0043 C   0  0  0  0  0  0  0  0  0  0  0  0
    4.6505   -0.9816   -0.1482 O   0  0  0  0  0  0  0  0  0  0  0  0
    3.6854   -1.0530   -1.1528 C   0  0  0  0  0  0  0  0  0  0  0  0
    2.8365   -7.5239    4.5729 H   0  0  0  0  0  0  0  0  0  0  0  0
    3.2256   -5.9517    5.2670 H   0  0  0  0  0  0  0  0  0  0  0  0
    4.4859   -6.9441    4.5547 H   0  0  0  0  0  0  0  0  0  0  0  0
    3.3441   -6.6635    0.9779 H   0  0  0  0  0  0  0  0  0  0  0  0
    2.7232   -7.8653    2.0912 H   0  0  0  0  0  0  0  0  0  0  0  0
    4.4408   -7.5063    2.0658 H   0  0  0  0  0  0  0  0  0  0  0  0
    1.4678   -5.5807    1.8646 H   0  0  0  0  0  0  0  0  0  0  0  0
    1.0768   -5.9111    4.6118 H   0  0  0  0  0  0  0  0  0  0  0  0
    1.0682   -3.3337    2.6294 H   0  0  0  0  0  0  0  0  0  0  0  0
    1.7962   -3.6713    4.1836 H   0  0  0  0  0  0  0  0  0  0  0  0
    3.5628   -2.6910    3.3745 H   0  0  0  0  0  0  0  0  0  0  0  0
    4.4723   -4.5240    3.9400 H   0  0  0  0  0  0  0  0  0  0  0  0
    6.2344   -5.4347    2.8520 H   0  0  0  0  0  0  0  0  0  0  0  0
    5.4373   -5.5373    1.3311 H   0  0  0  0  0  0  0  0  0  0  0  0
    6.0905   -2.9702    2.8066 H   0  0  0  0  0  0  0  0  0  0  0  0
    6.7994   -3.5919   -1.1598 H   0  0  0  0  0  0  0  0  0  0  0  0
    4.6060   -4.9581   -1.5047 H   0  0  0  0  0  0  0  0  0  0  0  0
    5.6760   -1.8206   -2.1346 H   0  0  0  0  0  0  0  0  0  0  0  0
    6.1839   -3.3172   -3.8477 H   0  0  0  0  0  0  0  0  0  0  0  0
    3.8541   -4.7138   -3.2416 H   0  0  0  0  0  0  0  0  0  0  0  0
    3.0258   -0.9425   -3.6182 H   0  0  0  0  0  0  0  0  0  0  0  0
    2.3578   -2.5403   -3.7079 H   0  0  0  0  0  0  0  0  0  0  0  0
    1.6585   -2.7901   -1.4445 H   0  0  0  0  0  0  0  0  0  0  0  0
    2.5297   -4.1486   -1.9187 H   0  0  0  0  0  0  0  0  0  0  0  0
    1.8039   -4.0286    0.4311 H   0  0  0  0  0  0  0  0  0  0  0  0
    3.3229   -4.6029    0.2635 H   0  0  0  0  0  0  0  0  0  0  0  0
    2.4925   -1.9025    1.3080 H   0  0  0  0  0  0  0  0  0  0  0  0
    5.0311   -1.2443    3.0282 H   0  0  0  0  0  0  0  0  0  0  0  0
    4.2220   -0.0838    2.0323 H   0  0  0  0  0  0  0  0  0  0  0  0
    5.9388   -0.3906    1.7985 H   0  0  0  0  0  0  0  0  0  0  0  0
    4.0174   -0.2984   -1.8554 H   0  0  0  0  0  0  0  0  0  0  0  0
    2.7254   -0.7458   -0.7725 H   0  0  0  0  0  0  0  0  0  0  0  0
  1  2  1  0
  1 28  1  0
  1 29  1  0
  1 30  1  0
  2  8  1  0
  2  3  1  0
  2  4  1  0
  3 31  1  0
  3 32  1  0
  3 33  1  0
  4  5  1  0
  4  6  1  0
  4 34  1  6
  5 35  1  0
  6  7  1  0
  6 36  1  0
  6 37  1  0
  7 23  1  0
  7  8  1  0
  7 38  1  1
  8  9  1  0
  8 39  1  1
  9 10  1  0
  9 40  1  0
  9 41  1  0
 10 12  1  0
 10 11  1  0
 10 42  1  1
 12 11  1  6
 12 24  1  0
 12 13  1  0
 13 14  1  0
 13 15  1  0
 13 43  1  6
 14 44  1  0
 15 20  1  0
 15 16  1  0
 15 45  1  6
 16 17  1  0
 16 18  1  0
 16 46  1  6
 17 47  1  0
 18 19  1  0
 20 19  1  6
 19 48  1  0
 19 49  1  0
 20 27  1  0
 20 21  1  0
 21 22  1  0
 21 50  1  0
 21 51  1  0
 22 23  1  0
 22 52  1  0
 22 53  1  0
 23 24  1  0
 23 54  1  1
 24 25  1  1
 24 26  1  0
 25 55  1  0
 25 56  1  0
 25 57  1  0
 26 27  1  0
 27 58  1  0
 27 59  1  0
M  END
>  <i_m_ct_stereo_status>  (254) 
1

>  <s_m_source_file>  (254) 
/var/tmp/pbs.5076255.sched01/tmprae_yccg/80g5h6lheg.sdf

>  <i_m_source_file_index>  (254) 
35

>  <i_lp_mmshare_version>  (254) 
48012

>  <i_f3d_flags>  (254) 
0

>  <s_epik_input>  (254) 
W0NIM11DMShbQ0gzXSlbQ0BASF0oW09IXSlbQ0gyXVtDQEBIXShbQ0BASF0xW0NIMl1bQ0BASF0oTzIpW0NAQF0yMzQpW0NASF01W0NAXTQoW0NIM10pT1tDSDJdW0NAXTYoW0NIMl1bQ0gyXTUpW0NAQEhdKFtDQEBIXTNbT0hdKVtDQEBIXShbT0hdKU9bQ0gyXTY=

>  <s_epik_cmdline>  (254) 
J2VwaWtfcHl0aG9uJywgJy1waHQnLCAnMi4wJywgJy1waCcsICc3LjAnLCAnLXRuJywgJzgnLCAnLW1hJywgJzIwMCcsICctaW1hZScsICc8aW5maWxlLm1hZT4nLCAnLW9tYWUnLCAnPG91dGZpbGUubWFlPic=

>  <r_lp_tautomer_probability>  (254) 
1

>  <r_epik_Ionization_Penalty>  (254) 
2.00713e-06

>  <r_epik_Ionization_Penalty_Charging>  (254) 
0

>  <r_epik_Ionization_Penalty_Neutral>  (254) 
2.00713e-06

>  <r_epik_State_Penalty>  (254) 
-0

>  <r_epik_Charging_Adjusted_Penalty>  (254) 
0

>  <i_epik_Tot_Q>  (254) 
0

>  <i_epik_Tot_abs_Q>  (254) 
0

>  <s_epik_Chemistry_Notes>  (254) 
This compound contains an acetal/aminal-like group ( X-CH(R)-Y where X, Y are N, S, or O) that may be acid/base labile, releasing an aldehyde.

>  <s_lp_Force_Field>  (254) 
OPLS3e

>  <r_lp_Energy>  (254) 
87.1606

>  <b_lp_Chiralities_Consistent>  (254) 
1

>  <s_lp_Variant>  (254) 
84:0-1

>  <s_i_glide_gridfile>  (254) 
pfpi4k_grid

>  <i_i_glide_lignum>  (254) 
35

>  <i_i_glide_rotatable_bonds>  (254) 
3

>  <r_i_docking_score>  (254) 
-4.44447

>  <r_i_glide_ligand_efficiency>  (254) 
-0.16461

>  <r_i_glide_ligand_efficiency_sa>  (254) 
-0.49383

>  <r_i_glide_ligand_efficiency_ln>  (254) 
-1.0346

>  <r_i_glide_gscore>  (254) 
-4.44447

>  <r_i_glide_lipo>  (254) 
-0.647803

>  <r_i_glide_hbond>  (254) 
-0.301775

>  <r_i_glide_metal>  (254) 
-0

>  <r_i_glide_rewards>  (254) 
-1.16183

>  <r_i_glide_evdw>  (254) 
-15.447

>  <r_i_glide_ecoul>  (254) 
-10.4048

>  <r_i_glide_erotb>  (254) 
0

>  <r_i_glide_esite>  (254) 
0

>  <r_i_glide_emodel>  (254) 
-30.6591

>  <r_i_glide_energy>  (254) 
-25.8517

>  <r_i_glide_einternal>  (254) 
0.995203

>  <r_i_glide_intrahb_reward>  (254) 
-0

>  <i_i_glide_confnum>  (254) 
1

>  <i_i_glide_posenum>  (254) 
13

>  <r_i_glide_eff_state_penalty>  (254) 
0

>  <ligand_id>  (254) 
84

>  <original_smiles>  (254) 
CC1(C)C(O)CC2C1CC1OC13C(O)C1C(O)OCC14CCC2C3(C)OC4

>  <smiles>  (254) 
[H]OC1([H])OC([H])([H])C23C([H])([H])OC4(C([H])([H])[H])C([H])(C([H])([H])C2([H])[H])C2([H])C([H])([H])C([H])(O[H])C(C([H])([H])[H])(C([H])([H])[H])C2([H])C([H])([H])C2([H])OC24C([H])(O[H])C13[H]

$$$$
84:0:1
     RDKit          3D

 59 64  0  0  1  0  0  0  0  0999 V2000
    2.9737   -7.7777    4.0828 C   0  0  0  0  0  0  0  0  0  0  0  0
    2.8674   -6.8359    2.8589 C   0  0  0  0  0  0  0  0  0  0  0  0
    3.0726   -7.6930    1.5981 C   0  0  0  0  0  0  0  0  0  0  0  0
    1.4975   -6.1175    2.7547 C   0  0  1  0  0  0  0  0  0  0  0  0
    0.4390   -6.7668    3.4191 O   0  0  0  0  0  0  0  0  0  0  0  0
    1.6823   -4.6914    3.2868 C   0  0  0  0  0  0  0  0  0  0  0  0
    3.1294   -4.2788    2.9667 C   0  0  1  0  0  0  0  0  0  0  0  0
    3.8928   -5.6669    3.0102 C   0  0  2  0  0  0  0  0  0  0  0  0
    5.2735   -5.8283    2.3031 C   0  0  0  0  0  0  0  0  0  0  0  0
    5.9069   -4.4725    2.3334 C   0  0  1  0  0  0  0  0  0  0  0  0
    7.0016   -3.9337    1.6536 O   0  0  0  0  0  0  0  0  0  0  0  0
    5.7005   -3.5657    1.1171 C   0  0  1  0  0  0  0  0  0  0  0  0
    5.7939   -3.8378   -0.4165 C   0  0  1  0  0  0  0  0  0  0  0  0
    5.3516   -5.1226   -0.7459 O   0  0  0  0  0  0  0  0  0  0  0  0
    5.2317   -2.7590   -1.3981 C   0  0  1  0  0  0  0  0  0  0  0  0
    5.3037   -3.0520   -2.9235 C   0  0  1  0  0  0  0  0  0  0  0  0
    4.6807   -4.2419   -3.3523 O   0  0  0  0  0  0  0  0  0  0  0  0
    4.6559   -1.9455   -3.4677 O   0  0  0  0  0  0  0  0  0  0  0  0
    3.5420   -1.6119   -2.6428 C   0  0  0  0  0  0  0  0  0  0  0  0
    3.8308   -2.1953   -1.2282 C   0  0  1  0  0  0  0  0  0  0  0  0
    2.7492   -3.2270   -0.8671 C   0  0  0  0  0  0  0  0  0  0  0  0
    2.8253   -3.9785    0.4683 C   0  0  0  0  0  0  0  0  0  0  0  0
    3.2648   -3.2506    1.7548 C   0  0  2  0  0  0  0  0  0  0  0  0
    4.6731   -2.5290    1.6284 C   0  0  1  0  0  0  0  0  0  0  0  0
    5.0491   -1.7839    2.9458 C   0  0  0  0  0  0  0  0  0  0  0  0
    4.7708   -1.3510    0.8333 O   0  0  0  0  0  0  0  0  0  0  0  0
    3.8379   -1.0794   -0.1803 C   0  0  0  0  0  0  0  0  0  0  0  0
    2.2910   -8.6247    4.0055 H   0  0  0  0  0  0  0  0  0  0  0  0
    2.7548   -7.2620    5.0175 H   0  0  0  0  0  0  0  0  0  0  0  0
    3.9797   -8.1928    4.1676 H   0  0  0  0  0  0  0  0  0  0  0  0
    3.0546   -7.0735    0.7019 H   0  0  0  0  0  0  0  0  0  0  0  0
    2.2811   -8.4360    1.4956 H   0  0  0  0  0  0  0  0  0  0  0  0
    4.0230   -8.2288    1.6127 H   0  0  0  0  0  0  0  0  0  0  0  0
    1.2063   -6.0682    1.7050 H   0  0  0  0  0  0  0  0  0  0  0  0
    0.4317   -7.6749    3.1528 H   0  0  0  0  0  0  0  0  0  0  0  0
    0.9381   -3.9957    2.8956 H   0  0  0  0  0  0  0  0  0  0  0  0
    1.5578   -4.7049    4.3725 H   0  0  0  0  0  0  0  0  0  0  0  0
    3.4357   -3.7249    3.8539 H   0  0  0  0  0  0  0  0  0  0  0  0
    4.1821   -5.7016    4.0604 H   0  0  0  0  0  0  0  0  0  0  0  0
    5.9091   -6.5322    2.8511 H   0  0  0  0  0  0  0  0  0  0  0  0
    5.1855   -6.2177    1.3010 H   0  0  0  0  0  0  0  0  0  0  0  0
    5.9594   -4.1169    3.3569 H   0  0  0  0  0  0  0  0  0  0  0  0
    6.8601   -3.8680   -0.6285 H   0  0  0  0  0  0  0  0  0  0  0  0
    4.4173   -5.1127   -0.8912 H   0  0  0  0  0  0  0  0  0  0  0  0
    5.9011   -1.9038   -1.2802 H   0  0  0  0  0  0  0  0  0  0  0  0
    6.3334   -3.0915   -3.2823 H   0  0  0  0  0  0  0  0  0  0  0  0
    3.9148   -4.4380   -2.8306 H   0  0  0  0  0  0  0  0  0  0  0  0
    3.4238   -0.5258   -2.6562 H   0  0  0  0  0  0  0  0  0  0  0  0
    2.6240   -2.0227   -3.0631 H   0  0  0  0  0  0  0  0  0  0  0  0
    1.8174   -2.6725   -0.8678 H   0  0  0  0  0  0  0  0  0  0  0  0
    2.6147   -3.9414   -1.6748 H   0  0  0  0  0  0  0  0  0  0  0  0
    1.8095   -4.3158    0.6346 H   0  0  0  0  0  0  0  0  0  0  0  0
    3.3333   -4.9251    0.3659 H   0  0  0  0  0  0  0  0  0  0  0  0
    2.5388   -2.4569    1.9536 H   0  0  0  0  0  0  0  0  0  0  0  0
    5.0264   -2.3713    3.8610 H   0  0  0  0  0  0  0  0  0  0  0  0
    4.3528   -0.9569    3.1208 H   0  0  0  0  0  0  0  0  0  0  0  0
    6.0492   -1.3565    2.8707 H   0  0  0  0  0  0  0  0  0  0  0  0
    4.2092   -0.1603   -0.6317 H   0  0  0  0  0  0  0  0  0  0  0  0
    2.8541   -0.8471    0.2264 H   0  0  0  0  0  0  0  0  0  0  0  0
  1  2  1  0
  1 28  1  0
  1 29  1  0
  1 30  1  0
  2  8  1  0
  2  3  1  0
  2  4  1  0
  3 31  1  0
  3 32  1  0
  3 33  1  0
  4  5  1  0
  4  6  1  0
  4 34  1  6
  5 35  1  0
  6  7  1  0
  6 36  1  0
  6 37  1  0
  7 23  1  0
  7  8  1  0
  7 38  1  1
  8  9  1  0
  8 39  1  1
  9 10  1  0
  9 40  1  0
  9 41  1  0
 10 12  1  0
 10 11  1  0
 10 42  1  1
 12 11  1  1
 12 24  1  0
 12 13  1  0
 13 14  1  0
 13 15  1  0
 13 43  1  6
 14 44  1  0
 15 20  1  0
 15 16  1  0
 15 45  1  6
 16 17  1  0
 16 18  1  0
 16 46  1  6
 17 47  1  0
 18 19  1  0
 20 19  1  6
 19 48  1  0
 19 49  1  0
 20 27  1  0
 20 21  1  0
 21 22  1  0
 21 50  1  0
 21 51  1  0
 22 23  1  0
 22 52  1  0
 22 53  1  0
 23 24  1  0
 23 54  1  1
 24 25  1  1
 24 26  1  0
 25 55  1  0
 25 56  1  0
 25 57  1  0
 26 27  1  0
 27 58  1  0
 27 59  1  0
M  END
>  <i_m_ct_stereo_status>  (255) 
1

>  <s_m_source_file>  (255) 
/var/tmp/pbs.5076255.sched01/tmprae_yccg/80g5h6lheg.sdf

>  <i_m_source_file_index>  (255) 
35

>  <i_lp_mmshare_version>  (255) 
48012

>  <i_f3d_flags>  (255) 
0

>  <s_epik_input>  (255) 
W0NIM11DMShbQ0gzXSlbQ0BASF0oW09IXSlbQ0gyXVtDQEBIXShbQ0BASF0xW0NIMl1bQ0BASF0oTzIpW0NAQF0yMzQpW0NASF01W0NAXTQoW0NIM10pT1tDSDJdW0NAXTYoW0NIMl1bQ0gyXTUpW0NAQEhdKFtDQEBIXTNbT0hdKVtDQEBIXShbT0hdKU9bQ0gyXTY=

>  <s_epik_cmdline>  (255) 
J2VwaWtfcHl0aG9uJywgJy1waHQnLCAnMi4wJywgJy1waCcsICc3LjAnLCAnLXRuJywgJzgnLCAnLW1hJywgJzIwMCcsICctaW1hZScsICc8aW5maWxlLm1hZT4nLCAnLW9tYWUnLCAnPG91dGZpbGUubWFlPic=

>  <r_lp_tautomer_probability>  (255) 
1

>  <r_epik_Ionization_Penalty>  (255) 
2.00713e-06

>  <r_epik_Ionization_Penalty_Charging>  (255) 
0

>  <r_epik_Ionization_Penalty_Neutral>  (255) 
2.00713e-06

>  <r_epik_State_Penalty>  (255) 
-0

>  <r_epik_Charging_Adjusted_Penalty>  (255) 
0

>  <i_epik_Tot_Q>  (255) 
0

>  <i_epik_Tot_abs_Q>  (255) 
0

>  <s_epik_Chemistry_Notes>  (255) 
This compound contains an acetal/aminal-like group ( X-CH(R)-Y where X, Y are N, S, or O) that may be acid/base labile, releasing an aldehyde.

>  <s_lp_Force_Field>  (255) 
OPLS3e

>  <r_lp_Energy>  (255) 
87.1606

>  <b_lp_Chiralities_Consistent>  (255) 
1

>  <s_lp_Variant>  (255) 
84:0-1

>  <s_i_glide_gridfile>  (255) 
pfpi4k_grid

>  <i_i_glide_lignum>  (255) 
35

>  <i_i_glide_rotatable_bonds>  (255) 
3

>  <r_i_docking_score>  (255) 
-3.60063

>  <r_i_glide_ligand_efficiency>  (255) 
-0.133357

>  <r_i_glide_ligand_efficiency_sa>  (255) 
-0.40007

>  <r_i_glide_ligand_efficiency_ln>  (255) 
-0.838166

>  <r_i_glide_gscore>  (255) 
-3.60063

>  <r_i_glide_lipo>  (255) 
-0.275754

>  <r_i_glide_hbond>  (255) 
0

>  <r_i_glide_metal>  (255) 
-0

>  <r_i_glide_rewards>  (255) 
-1.06737

>  <r_i_glide_evdw>  (255) 
-22.035

>  <r_i_glide_ecoul>  (255) 
-7.70504

>  <r_i_glide_erotb>  (255) 
0

>  <r_i_glide_esite>  (255) 
0

>  <r_i_glide_emodel>  (255) 
-34.3769

>  <r_i_glide_energy>  (255) 
-29.74

>  <r_i_glide_einternal>  (255) 
0.977157

>  <r_i_glide_intrahb_reward>  (255) 
-0

>  <i_i_glide_confnum>  (255) 
2

>  <i_i_glide_posenum>  (255) 
10

>  <r_i_glide_eff_state_penalty>  (255) 
0

>  <ligand_id>  (255) 
84

>  <original_smiles>  (255) 
CC1(C)C(O)CC2C1CC1OC13C(O)C1C(O)OCC14CCC2C3(C)OC4

>  <smiles>  (255) 
[H]OC1([H])OC([H])([H])C23C([H])([H])OC4(C([H])([H])[H])C([H])(C([H])([H])C2([H])[H])C2([H])C([H])([H])C([H])(O[H])C(C([H])([H])[H])(C([H])([H])[H])C2([H])C([H])([H])C2([H])OC24C([H])(O[H])C13[H]

$$$$
84:0:2
     RDKit          3D

 59 64  0  0  1  0  0  0  0  0999 V2000
    3.0221   -7.8950    4.0789 C   0  0  0  0  0  0  0  0  0  0  0  0
    2.9047   -6.9269    2.8787 C   0  0  0  0  0  0  0  0  0  0  0  0
    3.0805   -7.7599    1.5966 C   0  0  0  0  0  0  0  0  0  0  0  0
    1.5447   -6.1844    2.8124 C   0  0  1  0  0  0  0  0  0  0  0  0
    0.4675   -6.8283    3.4672 O   0  0  0  0  0  0  0  0  0  0  0  0
    1.7594   -4.7717    3.3666 C   0  0  0  0  0  0  0  0  0  0  0  0
    3.2077   -4.3735    3.0256 C   0  0  1  0  0  0  0  0  0  0  0  0
    3.9533   -5.7752    3.0280 C   0  0  2  0  0  0  0  0  0  0  0  0
    5.3191   -5.9449    2.2981 C   0  0  0  0  0  0  0  0  0  0  0  0
    5.9725   -4.6034    2.3385 C   0  0  1  0  0  0  0  0  0  0  0  0
    7.0632   -4.0578    1.6423 O   0  0  0  0  0  0  0  0  0  0  0  0
    5.7457   -3.6602    1.1467 C   0  0  1  0  0  0  0  0  0  0  0  0
    5.8151   -3.9016   -0.3967 C   0  0  1  0  0  0  0  0  0  0  0  0
    5.3340   -5.1684   -0.7232 O   0  0  0  0  0  0  0  0  0  0  0  0
    5.2442   -2.7973   -1.3396 C   0  0  1  0  0  0  0  0  0  0  0  0
    5.3090   -3.0381   -2.8668 C   0  0  1  0  0  0  0  0  0  0  0  0
    4.6424   -4.1948   -3.3449 O   0  0  0  0  0  0  0  0  0  0  0  0
    4.6717   -1.9154   -3.3813 O   0  0  0  0  0  0  0  0  0  0  0  0
    3.5638   -1.5979   -2.5355 C   0  0  0  0  0  0  0  0  0  0  0  0
    3.8483   -2.2173   -1.1370 C   0  0  1  0  0  0  0  0  0  0  0  0
    2.7410   -3.2268   -0.7734 C   0  0  0  0  0  0  0  0  0  0  0  0
    2.8253   -4.0151    0.5398 C   0  0  0  0  0  0  0  0  0  0  0  0
    3.3295   -3.3295    1.8272 C   0  0  2  0  0  0  0  0  0  0  0  0
    4.7469   -2.6257    1.6883 C   0  0  1  0  0  0  0  0  0  0  0  0
    5.1590   -1.9090    3.0100 C   0  0  0  0  0  0  0  0  0  0  0  0
    4.8460   -1.4290    0.9221 O   0  0  0  0  0  0  0  0  0  0  0  0
    3.9006   -1.1211   -0.0722 C   0  0  0  0  0  0  0  0  0  0  0  0
    2.3282   -8.7295    3.9920 H   0  0  0  0  0  0  0  0  0  0  0  0
    2.8340   -7.3964    5.0291 H   0  0  0  0  0  0  0  0  0  0  0  0
    4.0239   -8.3240    4.1293 H   0  0  0  0  0  0  0  0  0  0  0  0
    3.0576   -7.1232    0.7124 H   0  0  0  0  0  0  0  0  0  0  0  0
    2.2765   -8.4892    1.4911 H   0  0  0  0  0  0  0  0  0  0  0  0
    4.0202   -8.3113    1.5826 H   0  0  0  0  0  0  0  0  0  0  0  0
    1.2423   -6.1028    1.7742 H   0  0  0  0  0  0  0  0  0  0  0  0
    0.7662   -7.1424    4.3016 H   0  0  0  0  0  0  0  0  0  0  0  0
    1.0211   -4.0639    2.9881 H   0  0  0  0  0  0  0  0  0  0  0  0
    1.6523   -4.7914    4.4501 H   0  0  0  0  0  0  0  0  0  0  0  0
    3.5397   -3.8452    3.9147 H   0  0  0  0  0  0  0  0  0  0  0  0
    4.2619   -5.8332    4.0741 H   0  0  0  0  0  0  0  0  0  0  0  0
    5.9519   -6.6628    2.8164 H   0  0  0  0  0  0  0  0  0  0  0  0
    5.2114   -6.3088    1.2870 H   0  0  0  0  0  0  0  0  0  0  0  0
    6.0586   -4.2621    3.3660 H   0  0  0  0  0  0  0  0  0  0  0  0
    6.8771   -3.9484   -0.6309 H   0  0  0  0  0  0  0  0  0  0  0  0
    4.4073   -5.1367   -0.8889 H   0  0  0  0  0  0  0  0  0  0  0  0
    5.9323   -1.9596   -1.2188 H   0  0  0  0  0  0  0  0  0  0  0  0
    6.3300   -3.0980   -3.2534 H   0  0  0  0  0  0  0  0  0  0  0  0
    3.9000   -4.4175   -2.8038 H   0  0  0  0  0  0  0  0  0  0  0  0
    3.4501   -0.5126   -2.5242 H   0  0  0  0  0  0  0  0  0  0  0  0
    2.6389   -1.9962   -2.9603 H   0  0  0  0  0  0  0  0  0  0  0  0
    1.8200   -2.6724   -0.7561 H   0  0  0  0  0  0  0  0  0  0  0  0
    2.6069   -3.9322   -1.5919 H   0  0  0  0  0  0  0  0  0  0  0  0
    1.8150   -4.3265    0.7187 H   0  0  0  0  0  0  0  0  0  0  0  0
    3.3222   -4.9599    0.4108 H   0  0  0  0  0  0  0  0  0  0  0  0
    2.6282   -2.5254    2.0606 H   0  0  0  0  0  0  0  0  0  0  0  0
    5.1516   -2.5100    3.9187 H   0  0  0  0  0  0  0  0  0  0  0  0
    4.4800   -1.0756    3.2198 H   0  0  0  0  0  0  0  0  0  0  0  0
    6.1646   -1.4857    2.9224 H   0  0  0  0  0  0  0  0  0  0  0  0
    4.2684   -0.1967   -0.5100 H   0  0  0  0  0  0  0  0  0  0  0  0
    2.9254   -0.8889    0.3552 H   0  0  0  0  0  0  0  0  0  0  0  0
  1  2  1  0
  1 28  1  0
  1 29  1  0
  1 30  1  0
  2  8  1  0
  2  3  1  0
  2  4  1  0
  3 31  1  0
  3 32  1  0
  3 33  1  0
  4  5  1  0
  4  6  1  0
  4 34  1  6
  5 35  1  0
  6  7  1  0
  6 36  1  0
  6 37  1  0
  7 23  1  0
  7  8  1  0
  7 38  1  1
  8  9  1  0
  8 39  1  1
  9 10  1  0
  9 40  1  0
  9 41  1  0
 10 12  1  0
 10 11  1  0
 10 42  1  1
 12 11  1  1
 12 24  1  0
 12 13  1  0
 13 14  1  0
 13 15  1  0
 13 43  1  6
 14 44  1  0
 15 20  1  0
 15 16  1  0
 15 45  1  6
 16 17  1  0
 16 18  1  0
 16 46  1  6
 17 47  1  0
 18 19  1  0
 20 19  1  6
 19 48  1  0
 19 49  1  0
 20 27  1  0
 20 21  1  0
 21 22  1  0
 21 50  1  0
 21 51  1  0
 22 23  1  0
 22 52  1  0
 22 53  1  0
 23 24  1  0
 23 54  1  1
 24 25  1  1
 24 26  1  0
 25 55  1  0
 25 56  1  0
 25 57  1  0
 26 27  1  0
 27 58  1  0
 27 59  1  0
M  END
>  <i_m_ct_stereo_status>  (256) 
1

>  <s_m_source_file>  (256) 
/var/tmp/pbs.5076255.sched01/tmprae_yccg/80g5h6lheg.sdf

>  <i_m_source_file_index>  (256) 
35

>  <i_lp_mmshare_version>  (256) 
48012

>  <i_f3d_flags>  (256) 
0

>  <s_epik_input>  (256) 
W0NIM11DMShbQ0gzXSlbQ0BASF0oW09IXSlbQ0gyXVtDQEBIXShbQ0BASF0xW0NIMl1bQ0BASF0oTzIpW0NAQF0yMzQpW0NASF01W0NAXTQoW0NIM10pT1tDSDJdW0NAXTYoW0NIMl1bQ0gyXTUpW0NAQEhdKFtDQEBIXTNbT0hdKVtDQEBIXShbT0hdKU9bQ0gyXTY=

>  <s_epik_cmdline>  (256) 
J2VwaWtfcHl0aG9uJywgJy1waHQnLCAnMi4wJywgJy1waCcsICc3LjAnLCAnLXRuJywgJzgnLCAnLW1hJywgJzIwMCcsICctaW1hZScsICc8aW5maWxlLm1hZT4nLCAnLW9tYWUnLCAnPG91dGZpbGUubWFlPic=

>  <r_lp_tautomer_probability>  (256) 
1

>  <r_epik_Ionization_Penalty>  (256) 
2.00713e-06

>  <r_epik_Ionization_Penalty_Charging>  (256) 
0

>  <r_epik_Ionization_Penalty_Neutral>  (256) 
2.00713e-06

>  <r_epik_State_Penalty>  (256) 
-0

>  <r_epik_Charging_Adjusted_Penalty>  (256) 
0

>  <i_epik_Tot_Q>  (256) 
0

>  <i_epik_Tot_abs_Q>  (256) 
0

>  <s_epik_Chemistry_Notes>  (256) 
This compound contains an acetal/aminal-like group ( X-CH(R)-Y where X, Y are N, S, or O) that may be acid/base labile, releasing an aldehyde.

>  <s_lp_Force_Field>  (256) 
OPLS3e

>  <r_lp_Energy>  (256) 
87.1606

>  <b_lp_Chiralities_Consistent>  (256) 
1

>  <s_lp_Variant>  (256) 
84:0-1

>  <s_i_glide_gridfile>  (256) 
pfpi4k_grid

>  <i_i_glide_lignum>  (256) 
35

>  <i_i_glide_rotatable_bonds>  (256) 
3

>  <r_i_docking_score>  (256) 
-3.56497

>  <r_i_glide_ligand_efficiency>  (256) 
-0.132036

>  <r_i_glide_ligand_efficiency_sa>  (256) 
-0.396108

>  <r_i_glide_ligand_efficiency_ln>  (256) 
-0.829866

>  <r_i_glide_gscore>  (256) 
-3.56497

>  <r_i_glide_lipo>  (256) 
-0.275187

>  <r_i_glide_hbond>  (256) 
0

>  <r_i_glide_metal>  (256) 
-0

>  <r_i_glide_rewards>  (256) 
-1.06916

>  <r_i_glide_evdw>  (256) 
-22.1852

>  <r_i_glide_ecoul>  (256) 
-7.40912

>  <r_i_glide_erotb>  (256) 
0

>  <r_i_glide_esite>  (256) 
0

>  <r_i_glide_emodel>  (256) 
-34.1574

>  <r_i_glide_energy>  (256) 
-29.5943

>  <r_i_glide_einternal>  (256) 
0.652302

>  <r_i_glide_intrahb_reward>  (256) 
-0

>  <i_i_glide_confnum>  (256) 
1

>  <i_i_glide_posenum>  (256) 
7

>  <r_i_glide_eff_state_penalty>  (256) 
0

>  <ligand_id>  (256) 
84

>  <original_smiles>  (256) 
CC1(C)C(O)CC2C1CC1OC13C(O)C1C(O)OCC14CCC2C3(C)OC4

>  <smiles>  (256) 
[H]OC1([H])OC([H])([H])C23C([H])([H])OC4(C([H])([H])[H])C([H])(C([H])([H])C2([H])[H])C2([H])C([H])([H])C([H])(O[H])C(C([H])([H])[H])(C([H])([H])[H])C2([H])C([H])([H])C2([H])OC24C([H])(O[H])C13[H]

$$$$
85:0:0
     RDKit          3D

 74 79  0  0  1  0  0  0  0  0999 V2000
    2.4779    3.8928    2.4449 C   0  0  0  0  0  0  0  0  0  0  0  0
    2.4398    2.4476    2.7507 N   0  0  2  0  0  0  0  0  0  0  0  0
    1.1262    1.8296    2.4119 C   0  0  0  0  0  0  0  0  0  0  0  0
    1.1708    0.3177    2.5867 C   0  0  1  0  0  0  0  0  0  0  0  0
    2.1119   -0.1969    1.6514 O   0  0  0  0  0  0  0  0  0  0  0  0
    1.5225   -0.0124    4.0581 C   0  0  1  0  0  0  0  0  0  0  0  0
    1.4547   -1.4103    4.3633 N   0  0  0  0  0  0  0  0  0  0  0  0
    0.6138   -2.0752    5.2509 C   0  0  0  0  0  0  0  0  0  0  0  0
    0.9994   -3.3784    5.1420 C   0  0  0  0  0  0  0  0  0  0  0  0
    0.3999   -4.6003    5.7936 C   0  0  0  0  0  0  0  0  0  0  0  0
    0.9520   -5.8635    5.4452 O   0  0  0  0  0  0  0  0  0  0  0  0
    0.8769   -6.3243    4.1823 C   0  0  0  0  0  0  0  0  0  0  0  0
    0.4843   -5.6910    3.2040 O   0  0  0  0  0  0  0  0  0  0  0  0
    1.2192   -7.8037    4.0615 C   0  0  2  0  0  0  0  0  0  0  0  0
    1.6303   -8.1836    2.6037 C   0  0  1  0  0  0  0  0  0  0  0  0
    3.0158   -7.6453    2.2487 C   0  0  0  0  0  0  0  0  0  0  0  0
    4.1504   -8.1138    2.9494 C   0  0  0  0  0  0  0  0  0  0  0  0
    5.4310   -7.6143    2.6491 C   0  0  0  0  0  0  0  0  0  0  0  0
    5.5890   -6.6326    1.6505 C   0  0  0  0  0  0  0  0  0  0  0  0
    7.1652   -6.0229    1.2780 Cl  0  0  0  0  0  0  0  0  0  0  0  0
    4.4591   -6.1493    0.9538 C   0  0  0  0  0  0  0  0  0  0  0  0
    3.1763   -6.6487    1.2594 C   0  0  0  0  0  0  0  0  0  0  0  0
    1.5109   -9.6994    2.3568 C   0  0  0  0  0  0  0  0  0  0  0  0
    0.2411  -10.2952    3.0095 C   0  0  2  0  0  0  0  0  0  0  0  0
   -1.0369   -9.5492    2.5655 C   0  0  0  0  0  0  0  0  0  0  0  0
   -1.2311   -8.4352    3.6039 C   0  0  0  0  0  0  0  0  0  0  0  0
   -0.0188   -8.6062    4.5505 C   0  0  1  0  0  0  0  0  0  0  0  0
    0.2339  -10.0536    4.4660 N   0  0  2  0  0  0  0  0  0  0  0  0
    1.3856  -10.5836    5.2616 C   0  0  0  0  0  0  0  0  0  0  0  0
    2.0970   -3.4208    4.2606 N   0  0  0  0  0  0  0  0  0  0  0  0
    2.3191   -2.2576    3.7686 N   0  0  0  0  0  0  0  0  0  0  0  0
    2.8962    0.5999    4.4456 C   0  0  2  0  0  0  0  0  0  0  0  0
    3.1432    0.5926    5.9653 C   0  0  0  0  0  0  0  0  0  0  0  0
    2.6833    1.9654    6.4949 C   0  0  0  0  0  0  0  0  0  0  0  0
    2.3146    2.8087    5.2670 C   0  0  0  0  0  0  0  0  0  0  0  0
    2.9794    2.0930    4.0963 C   0  0  2  0  0  0  0  0  0  0  0  0
    1.7407    4.4353    3.0147 H   0  0  0  0  0  0  0  0  0  0  0  0
    2.2591    4.0512    1.4063 H   0  0  0  0  0  0  0  0  0  0  0  0
    3.4526    4.3117    2.6188 H   0  0  0  0  0  0  0  0  0  0  0  0
    0.3453    2.2416    3.0351 H   0  0  0  0  0  0  0  0  0  0  0  0
    0.8583    2.0633    1.3892 H   0  0  0  0  0  0  0  0  0  0  0  0
    0.1935   -0.1045    2.3580 H   0  0  0  0  0  0  0  0  0  0  0  0
    1.6743   -0.3580    0.8158 H   0  0  0  0  0  0  0  0  0  0  0  0
    0.7622    0.4598    4.6707 H   0  0  0  0  0  0  0  0  0  0  0  0
   -0.1484   -1.5825    5.8605 H   0  0  0  0  0  0  0  0  0  0  0  0
    0.4965   -4.5175    6.8706 H   0  0  0  0  0  0  0  0  0  0  0  0
   -0.6700   -4.6745    5.6093 H   0  0  0  0  0  0  0  0  0  0  0  0
    2.0563   -8.0053    4.7284 H   0  0  0  0  0  0  0  0  0  0  0  0
    0.9244   -7.7550    1.8867 H   0  0  0  0  0  0  0  0  0  0  0  0
    4.0353   -8.8565    3.7247 H   0  0  0  0  0  0  0  0  0  0  0  0
    6.2876   -7.9915    3.1920 H   0  0  0  0  0  0  0  0  0  0  0  0
    4.5752   -5.3964    0.1868 H   0  0  0  0  0  0  0  0  0  0  0  0
    2.3172   -6.2616    0.7270 H   0  0  0  0  0  0  0  0  0  0  0  0
    1.5049   -9.8648    1.2808 H   0  0  0  0  0  0  0  0  0  0  0  0
    2.3891  -10.2349    2.7093 H   0  0  0  0  0  0  0  0  0  0  0  0
    0.2112  -11.3630    2.7955 H   0  0  0  0  0  0  0  0  0  0  0  0
   -0.9970   -9.1416    1.5567 H   0  0  0  0  0  0  0  0  0  0  0  0
   -1.8814  -10.2251    2.6075 H   0  0  0  0  0  0  0  0  0  0  0  0
   -1.3236   -7.4590    3.1210 H   0  0  0  0  0  0  0  0  0  0  0  0
   -2.1570   -8.5883    4.1567 H   0  0  0  0  0  0  0  0  0  0  0  0
   -0.2749   -8.3343    5.5793 H   0  0  0  0  0  0  0  0  0  0  0  0
    2.3693  -10.2061    4.9658 H   0  0  0  0  0  0  0  0  0  0  0  0
    1.4448  -11.6676    5.1929 H   0  0  0  0  0  0  0  0  0  0  0  0
    1.2903  -10.3302    6.3166 H   0  0  0  0  0  0  0  0  0  0  0  0
    3.6961    0.0490    3.9408 H   0  0  0  0  0  0  0  0  0  0  0  0
    2.6518   -0.2344    6.4883 H   0  0  0  0  0  0  0  0  0  0  0  0
    4.2119    0.4930    6.1606 H   0  0  0  0  0  0  0  0  0  0  0  0
    1.8291    1.8647    7.1716 H   0  0  0  0  0  0  0  0  0  0  0  0
    3.4896    2.4345    7.0696 H   0  0  0  0  0  0  0  0  0  0  0  0
    1.2277    2.8293    5.1634 H   0  0  0  0  0  0  0  0  0  0  0  0
    2.6500    3.8388    5.3759 H   0  0  0  0  0  0  0  0  0  0  0  0
    4.0250    2.3785    4.0967 H   0  0  0  0  0  0  0  0  0  0  0  0
    3.0984    2.0084    2.1100 H   0  0  0  0  0  0  0  0  0  0  0  0
   -0.6548  -10.4680    4.7828 H   0  0  0  0  0  0  0  0  0  0  0  0
  1  2  1  0
  1 37  1  0
  1 38  1  0
  1 39  1  0
  2 36  1  0
  2  3  1  0
  2 73  1  6
  3  4  1  0
  3 40  1  0
  3 41  1  0
  4  5  1  0
  4  6  1  0
  4 42  1  6
  5 43  1  0
  6  7  1  0
  6 32  1  0
  6 44  1  1
  7 31  1  0
  7  8  1  0
  8  9  2  0
  8 45  1  0
  9 10  1  0
  9 30  1  0
 10 11  1  0
 10 46  1  0
 10 47  1  0
 11 12  1  0
 12 13  2  0
 12 14  1  0
 14 27  1  0
 14 15  1  0
 14 48  1  1
 15 16  1  0
 15 23  1  0
 15 49  1  6
 16 22  1  0
 16 17  2  0
 17 18  1  0
 17 50  1  0
 18 19  2  0
 18 51  1  0
 19 20  1  0
 19 21  1  0
 21 22  2  0
 21 52  1  0
 22 53  1  0
 23 24  1  0
 23 54  1  0
 23 55  1  0
 24 28  1  0
 24 25  1  0
 24 56  1  1
 25 26  1  0
 25 57  1  0
 25 58  1  0
 26 27  1  0
 26 59  1  0
 26 60  1  0
 27 28  1  0
 27 61  1  1
 28 29  1  0
 28 74  1  1
 29 62  1  0
 29 63  1  0
 29 64  1  0
 30 31  2  0
 32 36  1  0
 32 33  1  0
 32 65  1  6
 33 34  1  0
 33 66  1  0
 33 67  1  0
 34 35  1  0
 34 68  1  0
 34 69  1  0
 35 36  1  0
 35 70  1  0
 35 71  1  0
 36 72  1  6
M  CHG  2   2   1  28   1
M  END
>  <i_m_ct_stereo_status>  (257) 
1

>  <s_m_source_file>  (257) 
/var/tmp/pbs.5076255.sched01/tmprae_yccg/80g5h6lheg.sdf

>  <i_m_source_file_index>  (257) 
36

>  <i_lp_mmshare_version>  (257) 
48012

>  <i_f3d_flags>  (257) 
0

>  <s_epik_input>  (257) 
W0NIMl0xW0NIMl1bQ0gyXVtDQEBIXShbQ0BASF0xMilOKFtDSDNdKVtDSDJdW0NAQEhdKFtPSF0pW0NASF0ybjNbY0hdYyhubjMpW0NIMl1PQyg9TylbQ0BASF0oW0NAQEhdKFtDSDJdW0NIMl00KU41W0NIM10pW0NASF0oW0NIMl1bQ0BIXTQ1KWM2W2NIXVtjSF1jKENsKVtjSF1bY0hdNg==

>  <s_epik_cmdline>  (257) 
J2VwaWtfcHl0aG9uJywgJy1waHQnLCAnMi4wJywgJy1waCcsICc3LjAnLCAnLXRuJywgJzgnLCAnLW1hJywgJzIwMCcsICctaW1hZScsICc8aW5maWxlLm1hZT4nLCAnLW9tYWUnLCAnPG91dGZpbGUubWFlPic=

>  <r_lp_tautomer_probability>  (257) 
1

>  <r_epik_Ionization_Penalty>  (257) 
0.0294344

>  <r_epik_Ionization_Penalty_Charging>  (257) 
0.0294253

>  <r_epik_Ionization_Penalty_Neutral>  (257) 
9.06762e-06

>  <r_epik_State_Penalty>  (257) 
0.0230964

>  <r_epik_Charging_Adjusted_Penalty>  (257) 
0.0525217

>  <i_epik_Tot_Q>  (257) 
2

>  <i_epik_Tot_abs_Q>  (257) 
2

>  <s_epik_Chemistry_Notes>  (257) 
This compound has an ester and may undergo hydrolysis at high or low pH.

>  <s_lp_Force_Field>  (257) 
OPLS3e

>  <r_lp_Energy>  (257) 
55.2368

>  <b_lp_Chiralities_Consistent>  (257) 
1

>  <s_lp_Variant>  (257) 
85:0-1

>  <s_i_glide_gridfile>  (257) 
pfpi4k_grid

>  <i_i_glide_lignum>  (257) 
36

>  <i_i_glide_rotatable_bonds>  (257) 
7

>  <r_i_docking_score>  (257) 
-3.73424

>  <r_i_glide_ligand_efficiency>  (257) 
-0.103729

>  <r_i_glide_ligand_efficiency_sa>  (257) 
-0.342505

>  <r_i_glide_ligand_efficiency_ln>  (257) 
-0.81471

>  <r_i_glide_gscore>  (257) 
-3.73424

>  <r_i_glide_lipo>  (257) 
-0.569159

>  <r_i_glide_hbond>  (257) 
-0.409911

>  <r_i_glide_metal>  (257) 
-0

>  <r_i_glide_rewards>  (257) 
0

>  <r_i_glide_evdw>  (257) 
-28.2776

>  <r_i_glide_ecoul>  (257) 
-11.141

>  <r_i_glide_erotb>  (257) 
0.46235

>  <r_i_glide_esite>  (257) 
-0.132484

>  <r_i_glide_emodel>  (257) 
-50.8233

>  <r_i_glide_energy>  (257) 
-39.4186

>  <r_i_glide_einternal>  (257) 
3.53547

>  <r_i_glide_intrahb_reward>  (257) 
-0

>  <i_i_glide_confnum>  (257) 
5

>  <i_i_glide_posenum>  (257) 
29

>  <r_i_glide_eff_state_penalty>  (257) 
0

>  <ligand_id>  (257) 
85

>  <original_smiles>  (257) 
CN1CC(O)C(n2cc(COC(=O)C3C(c4ccc(Cl)cc4)CC4CCC3N4C)nn2)C2CCCC21

>  <smiles>  (257) 
[H]OC1([H])C([H])(n2nnc(C([H])([H])OC(=O)C3([H])C([H])(c4c([H])c([H])c(Cl)c([H])c4[H])C([H])([H])C4([H])C([H])([H])C([H])([H])C3([H])[N+]4([H])C([H])([H])[H])c2[H])C2([H])C([H])([H])C([H])([H])C([H])([H])C2([H])[N+]([H])(C([H])([H])[H])C1([H])[H]

$$$$
85:0:1
     RDKit          3D

 74 79  0  0  1  0  0  0  0  0999 V2000
    2.4366    3.9678    2.4869 C   0  0  0  0  0  0  0  0  0  0  0  0
    2.4314    2.4986    2.6839 N   0  0  2  0  0  0  0  0  0  0  0  0
    1.1414    1.8816    2.2745 C   0  0  0  0  0  0  0  0  0  0  0  0
    1.2306    0.3576    2.3107 C   0  0  1  0  0  0  0  0  0  0  0  0
    2.2020   -0.0510    1.3515 O   0  0  0  0  0  0  0  0  0  0  0  0
    1.5321   -0.0873    3.7602 C   0  0  1  0  0  0  0  0  0  0  0  0
    1.4604   -1.5310    3.9374 N   0  0  0  0  0  0  0  0  0  0  0  0
    0.6400   -2.2568    4.7852 C   0  0  0  0  0  0  0  0  0  0  0  0
    0.9904   -3.5528    4.5433 C   0  0  0  0  0  0  0  0  0  0  0  0
    0.4357   -4.8160    5.1613 C   0  0  0  0  0  0  0  0  0  0  0  0
    1.2653   -5.9569    4.9989 O   0  0  0  0  0  0  0  0  0  0  0  0
    1.2640   -6.6122    3.8312 C   0  0  0  0  0  0  0  0  0  0  0  0
    0.6265   -6.2715    2.8289 O   0  0  0  0  0  0  0  0  0  0  0  0
    2.1128   -7.8930    3.8830 C   0  0  2  0  0  0  0  0  0  0  0  0
    2.6904   -8.2872    2.4901 C   0  0  1  0  0  0  0  0  0  0  0  0
    3.7939   -7.3280    2.0569 C   0  0  0  0  0  0  0  0  0  0  0  0
    5.0048   -7.2623    2.7798 C   0  0  0  0  0  0  0  0  0  0  0  0
    6.0168   -6.3653    2.3949 C   0  0  0  0  0  0  0  0  0  0  0  0
    5.8235   -5.5197    1.2866 C   0  0  0  0  0  0  0  0  0  0  0  0
    7.0639   -4.4137    0.8236 Cl  0  0  0  0  0  0  0  0  0  0  0  0
    4.6160   -5.5763    0.5618 C   0  0  0  0  0  0  0  0  0  0  0  0
    3.6038   -6.4732    0.9514 C   0  0  0  0  0  0  0  0  0  0  0  0
    3.1642   -9.7647    2.4429 C   0  0  0  0  0  0  0  0  0  0  0  0
    2.2132  -10.7174    3.2150 C   0  0  2  0  0  0  0  0  0  0  0  0
    0.7655  -10.5892    2.7172 C   0  0  0  0  0  0  0  0  0  0  0  0
    0.1441   -9.4773    3.5719 C   0  0  0  0  0  0  0  0  0  0  0  0
    1.2827   -9.0456    4.5129 C   0  0  1  0  0  0  0  0  0  0  0  0
    2.0785  -10.2852    4.6187 N   0  0  2  0  0  0  0  0  0  0  0  0
    3.3070  -10.2495    5.4505 C   0  0  0  0  0  0  0  0  0  0  0  0
    1.9832   -3.5536    3.5634 N   0  0  0  0  0  0  0  0  0  0  0  0
    2.2661   -2.3455    3.2200 N   0  0  0  0  0  0  0  0  0  0  0  0
    2.8660    0.5339    4.2585 C   0  0  2  0  0  0  0  0  0  0  0  0
    3.0515    0.4186    5.7835 C   0  0  0  0  0  0  0  0  0  0  0  0
    2.5399    1.7351    6.3991 C   0  0  0  0  0  0  0  0  0  0  0  0
    2.1974    2.6685    5.2300 C   0  0  0  0  0  0  0  0  0  0  0  0
    2.9223    2.0587    4.0251 C   0  0  2  0  0  0  0  0  0  0  0  0
    1.6679    4.4526    3.0879 H   0  0  0  0  0  0  0  0  0  0  0  0
    2.2234    4.1988    1.4441 H   0  0  0  0  0  0  0  0  0  0  0  0
    3.4111    4.3977    2.7306 H   0  0  0  0  0  0  0  0  0  0  0  0
    0.3325    2.2366    2.9113 H   0  0  0  0  0  0  0  0  0  0  0  0
    0.8892    2.1799    1.2642 H   0  0  0  0  0  0  0  0  0  0  0  0
    0.2676   -0.0589    2.0058 H   0  0  0  0  0  0  0  0  0  0  0  0
    1.7322   -0.3480    0.5699 H   0  0  0  0  0  0  0  0  0  0  0  0
    0.7270    0.3174    4.3766 H   0  0  0  0  0  0  0  0  0  0  0  0
   -0.0766   -1.8142    5.4571 H   0  0  0  0  0  0  0  0  0  0  0  0
    0.3031   -4.6802    6.2330 H   0  0  0  0  0  0  0  0  0  0  0  0
   -0.5523   -5.0463    4.7590 H   0  0  0  0  0  0  0  0  0  0  0  0
    2.9481   -7.6882    4.5512 H   0  0  0  0  0  0  0  0  0  0  0  0
    1.8902   -8.2201    1.7498 H   0  0  0  0  0  0  0  0  0  0  0  0
    5.1599   -7.8948    3.6394 H   0  0  0  0  0  0  0  0  0  0  0  0
    6.9390   -6.3280    2.9567 H   0  0  0  0  0  0  0  0  0  0  0  0
    4.4584   -4.9303   -0.2892 H   0  0  0  0  0  0  0  0  0  0  0  0
    2.6740   -6.4947    0.4048 H   0  0  0  0  0  0  0  0  0  0  0  0
    3.2532  -10.0747    1.3998 H   0  0  0  0  0  0  0  0  0  0  0  0
    4.1677   -9.8693    2.8504 H   0  0  0  0  0  0  0  0  0  0  0  0
    2.5697  -11.7484    3.1427 H   0  0  0  0  0  0  0  0  0  0  0  0
    0.7253  -10.3162    1.6785 H   0  0  0  0  0  0  0  0  0  0  0  0
    0.2205  -11.5239    2.8452 H   0  0  0  0  0  0  0  0  0  0  0  0
   -0.2756   -8.6833    2.9574 H   0  0  0  0  0  0  0  0  0  0  0  0
   -0.6834   -9.8603    4.1532 H   0  0  0  0  0  0  0  0  0  0  0  0
    0.9039   -8.7620    5.4962 H   0  0  0  0  0  0  0  0  0  0  0  0
    4.0706   -9.5728    5.0740 H   0  0  0  0  0  0  0  0  0  0  0  0
    3.7461  -11.2445    5.5076 H   0  0  0  0  0  0  0  0  0  0  0  0
    3.0679   -9.9367    6.4644 H   0  0  0  0  0  0  0  0  0  0  0  0
    3.6932    0.0450    3.7381 H   0  0  0  0  0  0  0  0  0  0  0  0
    2.5557   -0.4521    6.2150 H   0  0  0  0  0  0  0  0  0  0  0  0
    4.1143    0.3211    6.0054 H   0  0  0  0  0  0  0  0  0  0  0  0
    1.6634    1.5677    7.0276 H   0  0  0  0  0  0  0  0  0  0  0  0
    3.3105    2.1768    7.0355 H   0  0  0  0  0  0  0  0  0  0  0  0
    1.1152    2.6752    5.0800 H   0  0  0  0  0  0  0  0  0  0  0  0
    2.5059    3.6975    5.4263 H   0  0  0  0  0  0  0  0  0  0  0  0
    3.9671    2.3621    4.0866 H   0  0  0  0  0  0  0  0  0  0  0  0
    3.1196    2.1280    2.0396 H   0  0  0  0  0  0  0  0  0  0  0  0
    1.4598  -10.9637    5.0462 H   0  0  0  0  0  0  0  0  0  0  0  0
  1  2  1  0
  1 37  1  0
  1 38  1  0
  1 39  1  0
  2 36  1  0
  2  3  1  0
  2 73  1  6
  3  4  1  0
  3 40  1  0
  3 41  1  0
  4  5  1  0
  4  6  1  0
  4 42  1  6
  5 43  1  0
  6  7  1  0
  6 32  1  0
  6 44  1  1
  7 31  1  0
  7  8  1  0
  8  9  2  0
  8 45  1  0
  9 10  1  0
  9 30  1  0
 10 11  1  0
 10 46  1  0
 10 47  1  0
 11 12  1  0
 12 13  2  0
 12 14  1  0
 14 27  1  0
 14 15  1  0
 14 48  1  1
 15 16  1  0
 15 23  1  0
 15 49  1  6
 16 22  1  0
 16 17  2  0
 17 18  1  0
 17 50  1  0
 18 19  2  0
 18 51  1  0
 19 20  1  0
 19 21  1  0
 21 22  2  0
 21 52  1  0
 22 53  1  0
 23 24  1  0
 23 54  1  0
 23 55  1  0
 24 28  1  0
 24 25  1  0
 24 56  1  1
 25 26  1  0
 25 57  1  0
 25 58  1  0
 26 27  1  0
 26 59  1  0
 26 60  1  0
 27 28  1  0
 27 61  1  1
 28 29  1  0
 28 74  1  1
 29 62  1  0
 29 63  1  0
 29 64  1  0
 30 31  2  0
 32 36  1  0
 32 33  1  0
 32 65  1  6
 33 34  1  0
 33 66  1  0
 33 67  1  0
 34 35  1  0
 34 68  1  0
 34 69  1  0
 35 36  1  0
 35 70  1  0
 35 71  1  0
 36 72  1  1
M  CHG  2   2   1  28   1
M  END
>  <i_m_ct_stereo_status>  (258) 
1

>  <s_m_source_file>  (258) 
/var/tmp/pbs.5076255.sched01/tmprae_yccg/80g5h6lheg.sdf

>  <i_m_source_file_index>  (258) 
36

>  <i_lp_mmshare_version>  (258) 
48012

>  <i_f3d_flags>  (258) 
0

>  <s_epik_input>  (258) 
W0NIMl0xW0NIMl1bQ0gyXVtDQEBIXShbQ0BASF0xMilOKFtDSDNdKVtDSDJdW0NAQEhdKFtPSF0pW0NASF0ybjNbY0hdYyhubjMpW0NIMl1PQyg9TylbQ0BASF0oW0NAQEhdKFtDSDJdW0NIMl00KU41W0NIM10pW0NASF0oW0NIMl1bQ0BIXTQ1KWM2W2NIXVtjSF1jKENsKVtjSF1bY0hdNg==

>  <s_epik_cmdline>  (258) 
J2VwaWtfcHl0aG9uJywgJy1waHQnLCAnMi4wJywgJy1waCcsICc3LjAnLCAnLXRuJywgJzgnLCAnLW1hJywgJzIwMCcsICctaW1hZScsICc8aW5maWxlLm1hZT4nLCAnLW9tYWUnLCAnPG91dGZpbGUubWFlPic=

>  <r_lp_tautomer_probability>  (258) 
1

>  <r_epik_Ionization_Penalty>  (258) 
0.0294344

>  <r_epik_Ionization_Penalty_Charging>  (258) 
0.0294253

>  <r_epik_Ionization_Penalty_Neutral>  (258) 
9.06762e-06

>  <r_epik_State_Penalty>  (258) 
0.0230964

>  <r_epik_Charging_Adjusted_Penalty>  (258) 
0.0525217

>  <i_epik_Tot_Q>  (258) 
2

>  <i_epik_Tot_abs_Q>  (258) 
2

>  <s_epik_Chemistry_Notes>  (258) 
This compound has an ester and may undergo hydrolysis at high or low pH.

>  <s_lp_Force_Field>  (258) 
OPLS3e

>  <r_lp_Energy>  (258) 
55.2368

>  <b_lp_Chiralities_Consistent>  (258) 
1

>  <s_lp_Variant>  (258) 
85:0-1

>  <s_i_glide_gridfile>  (258) 
pfpi4k_grid

>  <i_i_glide_lignum>  (258) 
36

>  <i_i_glide_rotatable_bonds>  (258) 
7

>  <r_i_docking_score>  (258) 
-3.46016

>  <r_i_glide_ligand_efficiency>  (258) 
-0.0961155

>  <r_i_glide_ligand_efficiency_sa>  (258) 
-0.317367

>  <r_i_glide_ligand_efficiency_ln>  (258) 
-0.754913

>  <r_i_glide_gscore>  (258) 
-3.46016

>  <r_i_glide_lipo>  (258) 
-0.612829

>  <r_i_glide_hbond>  (258) 
-0.173825

>  <r_i_glide_metal>  (258) 
-0

>  <r_i_glide_rewards>  (258) 
0

>  <r_i_glide_evdw>  (258) 
-27.9967

>  <r_i_glide_ecoul>  (258) 
-11.0189

>  <r_i_glide_erotb>  (258) 
0.46235

>  <r_i_glide_esite>  (258) 
-0.0831821

>  <r_i_glide_emodel>  (258) 
-50.3206

>  <r_i_glide_energy>  (258) 
-39.0156

>  <r_i_glide_einternal>  (258) 
2.4962

>  <r_i_glide_intrahb_reward>  (258) 
-0

>  <i_i_glide_confnum>  (258) 
4

>  <i_i_glide_posenum>  (258) 
17

>  <r_i_glide_eff_state_penalty>  (258) 
0

>  <ligand_id>  (258) 
85

>  <original_smiles>  (258) 
CN1CC(O)C(n2cc(COC(=O)C3C(c4ccc(Cl)cc4)CC4CCC3N4C)nn2)C2CCCC21

>  <smiles>  (258) 
[H]OC1([H])C([H])(n2nnc(C([H])([H])OC(=O)C3([H])C([H])(c4c([H])c([H])c(Cl)c([H])c4[H])C([H])([H])C4([H])C([H])([H])C([H])([H])C3([H])[N+]4([H])C([H])([H])[H])c2[H])C2([H])C([H])([H])C([H])([H])C([H])([H])C2([H])[N+]([H])(C([H])([H])[H])C1([H])[H]

$$$$
85:0:2
     RDKit          3D

 74 79  0  0  1  0  0  0  0  0999 V2000
    2.4515    3.7275    2.4740 C   0  0  0  0  0  0  0  0  0  0  0  0
    2.4626    2.2621    2.6978 N   0  0  2  0  0  0  0  0  0  0  0  0
    1.1686    1.6348    2.3150 C   0  0  0  0  0  0  0  0  0  0  0  0
    1.2562    0.1089    2.4058 C   0  0  1  0  0  0  0  0  0  0  0  0
    2.2087   -0.3360    1.4468 O   0  0  0  0  0  0  0  0  0  0  0  0
    1.5925   -0.2989    3.8601 C   0  0  1  0  0  0  0  0  0  0  0  0
    1.5263   -1.7426    4.0772 N   0  0  0  0  0  0  0  0  0  0  0  0
    0.7152   -2.4476    4.9459 C   0  0  0  0  0  0  0  0  0  0  0  0
    1.0626   -3.7500    4.7350 C   0  0  0  0  0  0  0  0  0  0  0  0
    0.5275   -5.0026    5.3911 C   0  0  0  0  0  0  0  0  0  0  0  0
    1.3363   -6.1481    5.1541 O   0  0  0  0  0  0  0  0  0  0  0  0
    1.2270   -6.7958    3.9863 C   0  0  0  0  0  0  0  0  0  0  0  0
    0.4151   -6.5179    3.0992 O   0  0  0  0  0  0  0  0  0  0  0  0
    2.2333   -7.9529    3.8615 C   0  0  2  0  0  0  0  0  0  0  0  0
    2.5945   -8.2777    2.3813 C   0  0  1  0  0  0  0  0  0  0  0  0
    3.4547   -7.1739    1.7720 C   0  0  0  0  0  0  0  0  0  0  0  0
    4.8188   -7.0488    2.1126 C   0  0  0  0  0  0  0  0  0  0  0  0
    5.6071   -6.0314    1.5510 C   0  0  0  0  0  0  0  0  0  0  0  0
    5.0310   -5.1073    0.6568 C   0  0  0  0  0  0  0  0  0  0  0  0
    5.9977   -3.8501   -0.0204 Cl  0  0  0  0  0  0  0  0  0  0  0  0
    3.6679   -5.2139    0.3231 C   0  0  0  0  0  0  0  0  0  0  0  0
    2.8821   -6.2396    0.8796 C   0  0  0  0  0  0  0  0  0  0  0  0
    3.2392   -9.6808    2.2144 C   0  0  0  0  0  0  0  0  0  0  0  0
    2.5852  -10.7429    3.1321 C   0  0  2  0  0  0  0  0  0  0  0  0
    1.0637  -10.8186    2.9120 C   0  0  0  0  0  0  0  0  0  0  0  0
    0.4702   -9.8064    3.9102 C   0  0  0  0  0  0  0  0  0  0  0  0
    1.7020   -9.2050    4.6177 C   0  0  1  0  0  0  0  0  0  0  0  0
    2.6676  -10.3196    4.5445 N   0  0  2  0  0  0  0  0  0  0  0  0
    4.0174  -10.1008    5.1289 C   0  0  0  0  0  0  0  0  0  0  0  0
    2.0500   -3.7718    3.7507 N   0  0  0  0  0  0  0  0  0  0  0  0
    2.3312   -2.5746    3.3759 N   0  0  0  0  0  0  0  0  0  0  0  0
    2.9348    0.3354    4.3169 C   0  0  2  0  0  0  0  0  0  0  0  0
    3.1527    0.2580    5.8407 C   0  0  0  0  0  0  0  0  0  0  0  0
    2.6494    1.5875    6.4341 C   0  0  0  0  0  0  0  0  0  0  0  0
    2.2794    2.4906    5.2488 C   0  0  0  0  0  0  0  0  0  0  0  0
    2.9794    1.8541    4.0424 C   0  0  2  0  0  0  0  0  0  0  0  0
    1.6956    4.2208    3.0864 H   0  0  0  0  0  0  0  0  0  0  0  0
    2.2115    3.9375    1.4338 H   0  0  0  0  0  0  0  0  0  0  0  0
    3.4329    4.1653    2.6833 H   0  0  0  0  0  0  0  0  0  0  0  0
    0.3720    2.0001    2.9641 H   0  0  0  0  0  0  0  0  0  0  0  0
    0.9015    1.9222    1.2945 H   0  0  0  0  0  0  0  0  0  0  0  0
    0.2915   -0.3203    2.1341 H   0  0  0  0  0  0  0  0  0  0  0  0
    1.7442   -0.5489    0.6338 H   0  0  0  0  0  0  0  0  0  0  0  0
    0.7991    0.1182    4.4861 H   0  0  0  0  0  0  0  0  0  0  0  0
    0.0049   -1.9923    5.6144 H   0  0  0  0  0  0  0  0  0  0  0  0
    0.4784   -4.8682    6.4701 H   0  0  0  0  0  0  0  0  0  0  0  0
   -0.4932   -5.2081    5.0640 H   0  0  0  0  0  0  0  0  0  0  0  0
    3.1448   -7.6243    4.3587 H   0  0  0  0  0  0  0  0  0  0  0  0
    1.6691   -8.3244    1.8025 H   0  0  0  0  0  0  0  0  0  0  0  0
    5.2746   -7.7281    2.8132 H   0  0  0  0  0  0  0  0  0  0  0  0
    6.6507   -5.9604    1.8132 H   0  0  0  0  0  0  0  0  0  0  0  0
    3.2253   -4.5147   -0.3709 H   0  0  0  0  0  0  0  0  0  0  0  0
    1.8407   -6.3141    0.6152 H   0  0  0  0  0  0  0  0  0  0  0  0
    3.1678   -9.9791    1.1679 H   0  0  0  0  0  0  0  0  0  0  0  0
    4.3070   -9.6719    2.4280 H   0  0  0  0  0  0  0  0  0  0  0  0
    3.0641  -11.7117    2.9823 H   0  0  0  0  0  0  0  0  0  0  0  0
    0.7768  -10.5815    1.8898 H   0  0  0  0  0  0  0  0  0  0  0  0
    0.6977  -11.8193    3.1366 H   0  0  0  0  0  0  0  0  0  0  0  0
   -0.1534   -9.0704    3.4039 H   0  0  0  0  0  0  0  0  0  0  0  0
   -0.1668  -10.3056    4.6359 H   0  0  0  0  0  0  0  0  0  0  0  0
    1.4910   -8.9637    5.6624 H   0  0  0  0  0  0  0  0  0  0  0  0
    4.5967   -9.3284    4.6283 H   0  0  0  0  0  0  0  0  0  0  0  0
    4.5980  -11.0216    5.0888 H   0  0  0  0  0  0  0  0  0  0  0  0
    3.9391   -9.8107    6.1761 H   0  0  0  0  0  0  0  0  0  0  0  0
    3.7536   -0.1644    3.7929 H   0  0  0  0  0  0  0  0  0  0  0  0
    2.6682   -0.6031    6.3039 H   0  0  0  0  0  0  0  0  0  0  0  0
    4.2202    0.1684    6.0435 H   0  0  0  0  0  0  0  0  0  0  0  0
    1.7862    1.4339    7.0843 H   0  0  0  0  0  0  0  0  0  0  0  0
    3.4318    2.0475    7.0428 H   0  0  0  0  0  0  0  0  0  0  0  0
    1.1936    2.4910    5.1203 H   0  0  0  0  0  0  0  0  0  0  0  0
    2.5901    3.5253    5.4129 H   0  0  0  0  0  0  0  0  0  0  0  0
    4.0250    2.1594    4.0821 H   0  0  0  0  0  0  0  0  0  0  0  0
    3.1393    1.8767    2.0494 H   0  0  0  0  0  0  0  0  0  0  0  0
    2.2416  -11.0692    5.0760 H   0  0  0  0  0  0  0  0  0  0  0  0
  1  2  1  0
  1 37  1  0
  1 38  1  0
  1 39  1  0
  2 36  1  0
  2  3  1  0
  2 73  1  6
  3  4  1  0
  3 40  1  0
  3 41  1  0
  4  5  1  0
  4  6  1  0
  4 42  1  6
  5 43  1  0
  6  7  1  0
  6 32  1  0
  6 44  1  1
  7 31  1  0
  7  8  1  0
  8  9  2  0
  8 45  1  0
  9 10  1  0
  9 30  1  0
 10 11  1  0
 10 46  1  0
 10 47  1  0
 11 12  1  0
 12 13  2  0
 12 14  1  0
 14 27  1  0
 14 15  1  0
 14 48  1  1
 15 16  1  0
 15 23  1  0
 15 49  1  6
 16 22  1  0
 16 17  2  0
 17 18  1  0
 17 50  1  0
 18 19  2  0
 18 51  1  0
 19 20  1  0
 19 21  1  0
 21 22  2  0
 21 52  1  0
 22 53  1  0
 23 24  1  0
 23 54  1  0
 23 55  1  0
 24 28  1  0
 24 25  1  0
 24 56  1  1
 25 26  1  0
 25 57  1  0
 25 58  1  0
 26 27  1  0
 26 59  1  0
 26 60  1  0
 27 28  1  0
 27 61  1  1
 28 29  1  0
 28 74  1  1
 29 62  1  0
 29 63  1  0
 29 64  1  0
 30 31  2  0
 32 36  1  0
 32 33  1  0
 32 65  1  6
 33 34  1  0
 33 66  1  0
 33 67  1  0
 34 35  1  0
 34 68  1  0
 34 69  1  0
 35 36  1  0
 35 70  1  0
 35 71  1  0
 36 72  1  6
M  CHG  2   2   1  28   1
M  END
>  <i_m_ct_stereo_status>  (259) 
1

>  <s_m_source_file>  (259) 
/var/tmp/pbs.5076255.sched01/tmprae_yccg/80g5h6lheg.sdf

>  <i_m_source_file_index>  (259) 
36

>  <i_lp_mmshare_version>  (259) 
48012

>  <i_f3d_flags>  (259) 
0

>  <s_epik_input>  (259) 
W0NIMl0xW0NIMl1bQ0gyXVtDQEBIXShbQ0BASF0xMilOKFtDSDNdKVtDSDJdW0NAQEhdKFtPSF0pW0NASF0ybjNbY0hdYyhubjMpW0NIMl1PQyg9TylbQ0BASF0oW0NAQEhdKFtDSDJdW0NIMl00KU41W0NIM10pW0NASF0oW0NIMl1bQ0BIXTQ1KWM2W2NIXVtjSF1jKENsKVtjSF1bY0hdNg==

>  <s_epik_cmdline>  (259) 
J2VwaWtfcHl0aG9uJywgJy1waHQnLCAnMi4wJywgJy1waCcsICc3LjAnLCAnLXRuJywgJzgnLCAnLW1hJywgJzIwMCcsICctaW1hZScsICc8aW5maWxlLm1hZT4nLCAnLW9tYWUnLCAnPG91dGZpbGUubWFlPic=

>  <r_lp_tautomer_probability>  (259) 
1

>  <r_epik_Ionization_Penalty>  (259) 
0.0294344

>  <r_epik_Ionization_Penalty_Charging>  (259) 
0.0294253

>  <r_epik_Ionization_Penalty_Neutral>  (259) 
9.06762e-06

>  <r_epik_State_Penalty>  (259) 
0.0230964

>  <r_epik_Charging_Adjusted_Penalty>  (259) 
0.0525217

>  <i_epik_Tot_Q>  (259) 
2

>  <i_epik_Tot_abs_Q>  (259) 
2

>  <s_epik_Chemistry_Notes>  (259) 
This compound has an ester and may undergo hydrolysis at high or low pH.

>  <s_lp_Force_Field>  (259) 
OPLS3e

>  <r_lp_Energy>  (259) 
55.2368

>  <b_lp_Chiralities_Consistent>  (259) 
1

>  <s_lp_Variant>  (259) 
85:0-1

>  <s_i_glide_gridfile>  (259) 
pfpi4k_grid

>  <i_i_glide_lignum>  (259) 
36

>  <i_i_glide_rotatable_bonds>  (259) 
7

>  <r_i_docking_score>  (259) 
-3.21311

>  <r_i_glide_ligand_efficiency>  (259) 
-0.0892532

>  <r_i_glide_ligand_efficiency_sa>  (259) 
-0.294707

>  <r_i_glide_ligand_efficiency_ln>  (259) 
-0.701015

>  <r_i_glide_gscore>  (259) 
-3.21311

>  <r_i_glide_lipo>  (259) 
-0.45031

>  <r_i_glide_hbond>  (259) 
-0.170334

>  <r_i_glide_metal>  (259) 
-0

>  <r_i_glide_rewards>  (259) 
-0.00268724

>  <r_i_glide_evdw>  (259) 
-28.0629

>  <r_i_glide_ecoul>  (259) 
-10.6032

>  <r_i_glide_erotb>  (259) 
0.46235

>  <r_i_glide_esite>  (259) 
-0.0585053

>  <r_i_glide_emodel>  (259) 
-49.1898

>  <r_i_glide_energy>  (259) 
-38.6661

>  <r_i_glide_einternal>  (259) 
2.22815

>  <r_i_glide_intrahb_reward>  (259) 
-0

>  <i_i_glide_confnum>  (259) 
5

>  <i_i_glide_posenum>  (259) 
9

>  <r_i_glide_eff_state_penalty>  (259) 
0

>  <ligand_id>  (259) 
85

>  <original_smiles>  (259) 
CN1CC(O)C(n2cc(COC(=O)C3C(c4ccc(Cl)cc4)CC4CCC3N4C)nn2)C2CCCC21

>  <smiles>  (259) 
[H]OC1([H])C([H])(n2nnc(C([H])([H])OC(=O)C3([H])C([H])(c4c([H])c([H])c(Cl)c([H])c4[H])C([H])([H])C4([H])C([H])([H])C([H])([H])C3([H])[N+]4([H])C([H])([H])[H])c2[H])C2([H])C([H])([H])C([H])([H])C([H])([H])C2([H])[N+]([H])(C([H])([H])[H])C1([H])[H]

$$$$
85:1:0
     RDKit          3D

 73 78  0  0  1  0  0  0  0  0999 V2000
    2.4571    4.2121    2.5543 C   0  0  0  0  0  0  0  0  0  0  0  0
    2.4625    2.7364    2.7156 N   0  0  2  0  0  0  0  0  0  0  0  0
    1.1741    2.1230    2.2959 C   0  0  0  0  0  0  0  0  0  0  0  0
    1.2543    0.5943    2.3114 C   0  0  1  0  0  0  0  0  0  0  0  0
    2.1995    0.1753    1.3332 O   0  0  0  0  0  0  0  0  0  0  0  0
    1.5802    0.1234    3.7472 C   0  0  1  0  0  0  0  0  0  0  0  0
    1.5076   -1.3223    3.8986 N   0  0  0  0  0  0  0  0  0  0  0  0
    0.6022   -2.0648    4.6442 C   0  0  0  0  0  0  0  0  0  0  0  0
    0.9856   -3.3557    4.4220 C   0  0  0  0  0  0  0  0  0  0  0  0
    0.3835   -4.6290    4.9596 C   0  0  0  0  0  0  0  0  0  0  0  0
    1.2181   -5.7687    4.8152 O   0  0  0  0  0  0  0  0  0  0  0  0
    1.2212   -6.4406    3.6550 C   0  0  0  0  0  0  0  0  0  0  0  0
    0.5148   -6.1700    2.6804 O   0  0  0  0  0  0  0  0  0  0  0  0
    2.1857   -7.6405    3.6741 C   0  0  2  0  0  0  0  0  0  0  0  0
    2.6873   -8.0381    2.2556 C   0  0  1  0  0  0  0  0  0  0  0  0
    3.6500   -6.9931    1.7039 C   0  0  0  0  0  0  0  0  0  0  0  0
    3.2512   -6.1458    0.6521 C   0  0  0  0  0  0  0  0  0  0  0  0
    4.1303   -5.1696    0.1484 C   0  0  0  0  0  0  0  0  0  0  0  0
    5.4171   -5.0290    0.7054 C   0  0  0  0  0  0  0  0  0  0  0  0
    6.4965   -3.8290    0.0952 Cl  0  0  0  0  0  0  0  0  0  0  0  0
    5.8197   -5.8659    1.7618 C   0  0  0  0  0  0  0  0  0  0  0  0
    4.9370   -6.8399    2.2629 C   0  0  0  0  0  0  0  0  0  0  0  0
    3.2964   -9.4631    2.2246 C   0  0  0  0  0  0  0  0  0  0  0  0
    2.5020  -10.4618    3.0981 C   0  0  2  0  0  0  0  0  0  0  0  0
    1.0119  -10.4998    2.7290 C   0  0  0  0  0  0  0  0  0  0  0  0
    0.3539   -9.4365    3.6077 C   0  0  0  0  0  0  0  0  0  0  0  0
    1.5227   -8.8374    4.4071 C   0  0  1  0  0  0  0  0  0  0  0  0
    2.4240   -9.9852    4.4747 N   0  0  0  0  0  0  0  0  0  0  0  0
    3.6857   -9.7960    5.1840 C   0  0  0  0  0  0  0  0  0  0  0  0
    2.0753   -3.3435    3.5556 N   0  0  0  0  0  0  0  0  0  0  0  0
    2.3837   -2.1283    3.2564 N   0  0  0  0  0  0  0  0  0  0  0  0
    2.9217    0.7381    4.2365 C   0  0  2  0  0  0  0  0  0  0  0  0
    3.1289    0.5869    5.7554 C   0  0  0  0  0  0  0  0  0  0  0  0
    2.6419    1.8938    6.4094 C   0  0  0  0  0  0  0  0  0  0  0  0
    2.2683    2.8505    5.2698 C   0  0  0  0  0  0  0  0  0  0  0  0
    2.9712    2.2671    4.0383 C   0  0  2  0  0  0  0  0  0  0  0  0
    1.6990    4.6830    3.1855 H   0  0  0  0  0  0  0  0  0  0  0  0
    2.2232    4.4723    1.5198 H   0  0  0  0  0  0  0  0  0  0  0  0
    3.4351    4.6412    2.7833 H   0  0  0  0  0  0  0  0  0  0  0  0
    0.3654    2.4702    2.9433 H   0  0  0  0  0  0  0  0  0  0  0  0
    0.9454    2.4457    1.2833 H   0  0  0  0  0  0  0  0  0  0  0  0
    0.2787    0.1978    2.0186 H   0  0  0  0  0  0  0  0  0  0  0  0
    1.7172   -0.1909    0.5917 H   0  0  0  0  0  0  0  0  0  0  0  0
    0.7873    0.5193    4.3838 H   0  0  0  0  0  0  0  0  0  0  0  0
   -0.1859   -1.6393    5.2384 H   0  0  0  0  0  0  0  0  0  0  0  0
    0.1676   -4.5305    6.0208 H   0  0  0  0  0  0  0  0  0  0  0  0
   -0.5791   -4.8323    4.4804 H   0  0  0  0  0  0  0  0  0  0  0  0
    3.0488   -7.3372    4.2633 H   0  0  0  0  0  0  0  0  0  0  0  0
    1.8272   -8.0893    1.5853 H   0  0  0  0  0  0  0  0  0  0  0  0
    2.2651   -6.2460    0.2233 H   0  0  0  0  0  0  0  0  0  0  0  0
    3.8125   -4.5361   -0.6667 H   0  0  0  0  0  0  0  0  0  0  0  0
    6.8028   -5.7653    2.1998 H   0  0  0  0  0  0  0  0  0  0  0  0
    5.2488   -7.4645    3.0848 H   0  0  0  0  0  0  0  0  0  0  0  0
    3.3309   -9.8164    1.1932 H   0  0  0  0  0  0  0  0  0  0  0  0
    4.3320   -9.4757    2.5609 H   0  0  0  0  0  0  0  0  0  0  0  0
    2.9504  -11.4555    3.0408 H   0  0  0  0  0  0  0  0  0  0  0  0
    0.8563  -10.2722    1.6811 H   0  0  0  0  0  0  0  0  0  0  0  0
    0.5842  -11.4809    2.9409 H   0  0  0  0  0  0  0  0  0  0  0  0
   -0.1852   -8.7100    2.9986 H   0  0  0  0  0  0  0  0  0  0  0  0
   -0.3734   -9.8877    4.2783 H   0  0  0  0  0  0  0  0  0  0  0  0
    1.2157   -8.5552    5.4161 H   0  0  0  0  0  0  0  0  0  0  0  0
    3.4927   -9.5010    6.2155 H   0  0  0  0  0  0  0  0  0  0  0  0
    4.3259   -9.0387    4.7336 H   0  0  0  0  0  0  0  0  0  0  0  0
    4.2385  -10.7357    5.2064 H   0  0  0  0  0  0  0  0  0  0  0  0
    3.7431    0.2664    3.6910 H   0  0  0  0  0  0  0  0  0  0  0  0
    2.6290   -0.2877    6.1726 H   0  0  0  0  0  0  0  0  0  0  0  0
    4.1935    0.4733    5.9583 H   0  0  0  0  0  0  0  0  0  0  0  0
    1.7844    1.7205    7.0603 H   0  0  0  0  0  0  0  0  0  0  0  0
    3.4340    2.3210    7.0278 H   0  0  0  0  0  0  0  0  0  0  0  0
    1.1843    2.8533    5.1379 H   0  0  0  0  0  0  0  0  0  0  0  0
    2.5775    3.8768    5.4788 H   0  0  0  0  0  0  0  0  0  0  0  0
    4.0173    2.5718    4.0895 H   0  0  0  0  0  0  0  0  0  0  0  0
    3.1458    2.3857    2.0559 H   0  0  0  0  0  0  0  0  0  0  0  0
  1  2  1  0
  1 37  1  0
  1 38  1  0
  1 39  1  0
  2 36  1  0
  2  3  1  0
  2 73  1  6
  3  4  1  0
  3 40  1  0
  3 41  1  0
  4  5  1  0
  4  6  1  0
  4 42  1  6
  5 43  1  0
  6  7  1  0
  6 32  1  0
  6 44  1  1
  7 31  1  0
  7  8  1  0
  8  9  2  0
  8 45  1  0
  9 10  1  0
  9 30  1  0
 10 11  1  0
 10 46  1  0
 10 47  1  0
 11 12  1  0
 12 13  2  0
 12 14  1  0
 14 27  1  0
 14 15  1  0
 14 48  1  1
 15 16  1  0
 15 23  1  0
 15 49  1  6
 16 22  1  0
 16 17  2  0
 17 18  1  0
 17 50  1  0
 18 19  2  0
 18 51  1  0
 19 20  1  0
 19 21  1  0
 21 22  2  0
 21 52  1  0
 22 53  1  0
 23 24  1  0
 23 54  1  0
 23 55  1  0
 24 28  1  0
 24 25  1  0
 24 56  1  1
 25 26  1  0
 25 57  1  0
 25 58  1  0
 26 27  1  0
 26 59  1  0
 26 60  1  0
 27 28  1  0
 27 61  1  1
 28 29  1  0
 29 62  1  0
 29 63  1  0
 29 64  1  0
 30 31  2  0
 32 36  1  0
 32 33  1  0
 32 65  1  6
 33 34  1  0
 33 66  1  0
 33 67  1  0
 34 35  1  0
 34 68  1  0
 34 69  1  0
 35 36  1  0
 35 70  1  0
 35 71  1  0
 36 72  1  1
M  CHG  1   2   1
M  END
>  <i_m_ct_stereo_status>  (260) 
1

>  <s_m_source_file>  (260) 
/var/tmp/pbs.5076255.sched01/tmprae_yccg/80g5h6lheg.sdf

>  <i_m_source_file_index>  (260) 
37

>  <i_lp_mmshare_version>  (260) 
48012

>  <i_f3d_flags>  (260) 
0

>  <s_epik_input>  (260) 
W0NIMl0xW0NIMl1bQ0gyXVtDQEBIXShbQ0BASF0xMilOKFtDSDNdKVtDSDJdW0NAQEhdKFtPSF0pW0NASF0ybjNbY0hdYyhubjMpW0NIMl1PQyg9TylbQ0BASF0oW0NAQEhdKFtDSDJdW0NIMl00KU41W0NIM10pW0NASF0oW0NIMl1bQ0BIXTQ1KWM2W2NIXVtjSF1jKENsKVtjSF1bY0hdNg==

>  <s_epik_cmdline>  (260) 
J2VwaWtfcHl0aG9uJywgJy1waHQnLCAnMi4wJywgJy1waCcsICc3LjAnLCAnLXRuJywgJzgnLCAnLW1hJywgJzIwMCcsICctaW1hZScsICc8aW5maWxlLm1hZT4nLCAnLW9tYWUnLCAnPG91dGZpbGUubWFlPic=

>  <r_lp_tautomer_probability>  (260) 
1

>  <r_epik_Ionization_Penalty>  (260) 
2.08356

>  <r_epik_Ionization_Penalty_Charging>  (260) 
0.0112155

>  <r_epik_Ionization_Penalty_Neutral>  (260) 
2.07235

>  <r_epik_State_Penalty>  (260) 
2.21501

>  <r_epik_Charging_Adjusted_Penalty>  (260) 
2.22623

>  <i_epik_Tot_Q>  (260) 
1

>  <i_epik_Tot_abs_Q>  (260) 
1

>  <s_epik_Chemistry_Notes>  (260) 
This compound has an ester and may undergo hydrolysis at high or low pH.

>  <s_lp_Force_Field>  (260) 
OPLS3e

>  <r_lp_Energy>  (260) 
58.6455

>  <b_lp_Chiralities_Consistent>  (260) 
1

>  <s_lp_Variant>  (260) 
85:0-2

>  <s_i_glide_gridfile>  (260) 
pfpi4k_grid

>  <i_i_glide_lignum>  (260) 
37

>  <i_i_glide_rotatable_bonds>  (260) 
7

>  <r_i_docking_score>  (260) 
-2.96014

>  <r_i_glide_ligand_efficiency>  (260) 
-0.0822261

>  <r_i_glide_ligand_efficiency_sa>  (260) 
-0.271504

>  <r_i_glide_ligand_efficiency_ln>  (260) 
-0.645822

>  <r_i_glide_gscore>  (260) 
-2.96014

>  <r_i_glide_lipo>  (260) 
-0.498082

>  <r_i_glide_hbond>  (260) 
-0.223222

>  <r_i_glide_metal>  (260) 
-0

>  <r_i_glide_rewards>  (260) 
0

>  <r_i_glide_evdw>  (260) 
-28.4268

>  <r_i_glide_ecoul>  (260) 
-8.10294

>  <r_i_glide_erotb>  (260) 
0.464014

>  <r_i_glide_esite>  (260) 
-0.0660662

>  <r_i_glide_emodel>  (260) 
-45.3474

>  <r_i_glide_energy>  (260) 
-36.5298

>  <r_i_glide_einternal>  (260) 
2.08371

>  <r_i_glide_intrahb_reward>  (260) 
-0

>  <i_i_glide_confnum>  (260) 
5

>  <i_i_glide_posenum>  (260) 
18

>  <r_i_glide_eff_state_penalty>  (260) 
0

>  <ligand_id>  (260) 
85

>  <original_smiles>  (260) 
CN1CC(O)C(n2cc(COC(=O)C3C(c4ccc(Cl)cc4)CC4CCC3N4C)nn2)C2CCCC21

>  <smiles>  (260) 
[H]OC1([H])C([H])(n2nnc(C([H])([H])OC(=O)C3([H])C([H])(c4c([H])c([H])c(Cl)c([H])c4[H])C([H])([H])C4([H])N(C([H])([H])[H])C3([H])C([H])([H])C4([H])[H])c2[H])C2([H])C([H])([H])C([H])([H])C([H])([H])C2([H])[N+]([H])(C([H])([H])[H])C1([H])[H]

$$$$
85:1:1
     RDKit          3D

 73 78  0  0  1  0  0  0  0  0999 V2000
    0.8902  -12.1856    4.2072 C   0  0  0  0  0  0  0  0  0  0  0  0
    0.6358  -10.7446    4.3741 N   0  0  2  0  0  0  0  0  0  0  0  0
    0.8362  -10.0026    3.1003 C   0  0  0  0  0  0  0  0  0  0  0  0
    0.4459   -8.5272    3.2559 C   0  0  1  0  0  0  0  0  0  0  0  0
   -0.9466   -8.3931    3.5278 O   0  0  0  0  0  0  0  0  0  0  0  0
    1.3326   -7.8735    4.3389 C   0  0  1  0  0  0  0  0  0  0  0  0
    1.1014   -6.4383    4.4457 N   0  0  0  0  0  0  0  0  0  0  0  0
    0.4889   -5.7084    5.4525 C   0  0  0  0  0  0  0  0  0  0  0  0
    0.5600   -4.4247    5.0073 C   0  0  0  0  0  0  0  0  0  0  0  0
    0.0558   -3.1850    5.6943 C   0  0  0  0  0  0  0  0  0  0  0  0
    0.0278   -2.0393    4.8613 O   0  0  0  0  0  0  0  0  0  0  0  0
    1.1380   -1.3012    4.7380 C   0  0  0  0  0  0  0  0  0  0  0  0
    2.2272   -1.5859    5.2429 O   0  0  0  0  0  0  0  0  0  0  0  0
    0.9015   -0.0040    3.9477 C   0  0  2  0  0  0  0  0  0  0  0  0
    2.2054    0.8231    3.7426 C   0  0  1  0  0  0  0  0  0  0  0  0
    3.1472    0.1514    2.7546 C   0  0  0  0  0  0  0  0  0  0  0  0
    4.4385   -0.2485    3.1541 C   0  0  0  0  0  0  0  0  0  0  0  0
    5.2959   -0.8906    2.2406 C   0  0  0  0  0  0  0  0  0  0  0  0
    4.8612   -1.1440    0.9247 C   0  0  0  0  0  0  0  0  0  0  0  0
    5.9108   -1.9229   -0.2001 Cl  0  0  0  0  0  0  0  0  0  0  0  0
    3.5686   -0.7577    0.5271 C   0  0  0  0  0  0  0  0  0  0  0  0
    2.7190   -0.1067    1.4367 C   0  0  0  0  0  0  0  0  0  0  0  0
    1.9136    2.2879    3.3433 C   0  0  0  0  0  0  0  0  0  0  0  0
    0.7187    2.8821    4.1271 C   0  0  2  0  0  0  0  0  0  0  0  0
    0.8944    2.7545    5.6505 C   0  0  0  0  0  0  0  0  0  0  0  0
    0.2697    1.4002    6.0028 C   0  0  0  0  0  0  0  0  0  0  0  0
   -0.2006    0.8411    4.6477 C   0  0  1  0  0  0  0  0  0  0  0  0
   -0.4811    2.0761    3.9228 N   0  0  0  0  0  0  0  0  0  0  0  0
   -0.9478    1.9341    2.5445 C   0  0  0  0  0  0  0  0  0  0  0  0
    1.1885   -4.4272    3.7611 N   0  0  0  0  0  0  0  0  0  0  0  0
    1.5143   -5.6308    3.4410 N   0  0  0  0  0  0  0  0  0  0  0  0
    1.1761   -8.6235    5.6890 C   0  0  2  0  0  0  0  0  0  0  0  0
    2.2622   -8.2345    6.7127 C   0  0  0  0  0  0  0  0  0  0  0  0
    3.3697   -9.2963    6.6042 C   0  0  0  0  0  0  0  0  0  0  0  0
    2.8665  -10.3610    5.6163 C   0  0  0  0  0  0  0  0  0  0  0  0
    1.3491  -10.1448    5.5473 C   0  0  2  0  0  0  0  0  0  0  0  0
    1.9323  -12.3464    3.9265 H   0  0  0  0  0  0  0  0  0  0  0  0
    0.2444  -12.5955    3.4290 H   0  0  0  0  0  0  0  0  0  0  0  0
    0.6678  -12.7207    5.1288 H   0  0  0  0  0  0  0  0  0  0  0  0
    1.8797  -10.0745    2.7868 H   0  0  0  0  0  0  0  0  0  0  0  0
    0.2477  -10.4588    2.3013 H   0  0  0  0  0  0  0  0  0  0  0  0
    0.6308   -8.0320    2.3002 H   0  0  0  0  0  0  0  0  0  0  0  0
   -1.2258   -9.0760    4.1237 H   0  0  0  0  0  0  0  0  0  0  0  0
    2.3721   -7.9750    4.0121 H   0  0  0  0  0  0  0  0  0  0  0  0
    0.0883   -6.1289    6.3551 H   0  0  0  0  0  0  0  0  0  0  0  0
   -0.9650   -3.3409    6.0331 H   0  0  0  0  0  0  0  0  0  0  0  0
    0.6368   -2.9811    6.5950 H   0  0  0  0  0  0  0  0  0  0  0  0
    0.5152   -0.3019    2.9751 H   0  0  0  0  0  0  0  0  0  0  0  0
    2.7234    0.8853    4.7013 H   0  0  0  0  0  0  0  0  0  0  0  0
    4.7711   -0.0648    4.1640 H   0  0  0  0  0  0  0  0  0  0  0  0
    6.2832   -1.1928    2.5532 H   0  0  0  0  0  0  0  0  0  0  0  0
    3.2097   -0.9583   -0.4727 H   0  0  0  0  0  0  0  0  0  0  0  0
    1.7293    0.1821    1.1171 H   0  0  0  0  0  0  0  0  0  0  0  0
    2.8054    2.8890    3.5203 H   0  0  0  0  0  0  0  0  0  0  0  0
    1.7201    2.3776    2.2739 H   0  0  0  0  0  0  0  0  0  0  0  0
    0.5484    3.9178    3.8297 H   0  0  0  0  0  0  0  0  0  0  0  0
    1.9418    2.8114    5.9493 H   0  0  0  0  0  0  0  0  0  0  0  0
    0.3592    3.5482    6.1711 H   0  0  0  0  0  0  0  0  0  0  0  0
    0.9842    0.7521    6.5121 H   0  0  0  0  0  0  0  0  0  0  0  0
   -0.5804    1.5278    6.6727 H   0  0  0  0  0  0  0  0  0  0  0  0
   -1.1250    0.2679    4.7447 H   0  0  0  0  0  0  0  0  0  0  0  0
   -1.8678    1.3517    2.5150 H   0  0  0  0  0  0  0  0  0  0  0  0
   -0.2293    1.4457    1.8887 H   0  0  0  0  0  0  0  0  0  0  0  0
   -1.1632    2.9171    2.1243 H   0  0  0  0  0  0  0  0  0  0  0  0
    0.1826   -8.4180    6.0872 H   0  0  0  0  0  0  0  0  0  0  0  0
    2.6564   -7.2262    6.5672 H   0  0  0  0  0  0  0  0  0  0  0  0
    1.8351   -8.2691    7.7154 H   0  0  0  0  0  0  0  0  0  0  0  0
    4.3080   -8.8555    6.2606 H   0  0  0  0  0  0  0  0  0  0  0  0
    3.5584   -9.7346    7.5873 H   0  0  0  0  0  0  0  0  0  0  0  0
    3.3382  -10.1960    4.6444 H   0  0  0  0  0  0  0  0  0  0  0  0
    3.1275  -11.3692    5.9474 H   0  0  0  0  0  0  0  0  0  0  0  0
    0.9088  -10.5978    6.4338 H   0  0  0  0  0  0  0  0  0  0  0  0
   -0.3517  -10.6885    4.6036 H   0  0  0  0  0  0  0  0  0  0  0  0
  1  2  1  0
  1 37  1  0
  1 38  1  0
  1 39  1  0
  2 36  1  0
  2  3  1  0
  2 73  1  1
  3  4  1  0
  3 40  1  0
  3 41  1  0
  4  5  1  0
  4  6  1  0
  4 42  1  6
  5 43  1  0
  6  7  1  0
  6 32  1  0
  6 44  1  6
  7 31  1  0
  7  8  1  0
  8  9  2  0
  8 45  1  0
  9 10  1  0
  9 30  1  0
 10 11  1  0
 10 46  1  0
 10 47  1  0
 11 12  1  0
 12 13  2  0
 12 14  1  0
 14 27  1  0
 14 15  1  0
 14 48  1  6
 15 16  1  0
 15 23  1  0
 15 49  1  1
 16 22  1  0
 16 17  2  0
 17 18  1  0
 17 50  1  0
 18 19  2  0
 18 51  1  0
 19 20  1  0
 19 21  1  0
 21 22  2  0
 21 52  1  0
 22 53  1  0
 23 24  1  0
 23 54  1  0
 23 55  1  0
 24 28  1  0
 24 25  1  0
 24 56  1  1
 25 26  1  0
 25 57  1  0
 25 58  1  0
 26 27  1  0
 26 59  1  0
 26 60  1  0
 27 28  1  0
 27 61  1  1
 28 29  1  0
 29 62  1  0
 29 63  1  0
 29 64  1  0
 30 31  2  0
 32 36  1  0
 32 33  1  0
 32 65  1  1
 33 34  1  0
 33 66  1  0
 33 67  1  0
 34 35  1  0
 34 68  1  0
 34 69  1  0
 35 36  1  0
 35 70  1  0
 35 71  1  0
 36 72  1  1
M  CHG  1   2   1
M  END
>  <i_m_ct_stereo_status>  (261) 
1

>  <s_m_source_file>  (261) 
/var/tmp/pbs.5076255.sched01/tmprae_yccg/80g5h6lheg.sdf

>  <i_m_source_file_index>  (261) 
37

>  <i_lp_mmshare_version>  (261) 
48012

>  <i_f3d_flags>  (261) 
0

>  <s_epik_input>  (261) 
W0NIMl0xW0NIMl1bQ0gyXVtDQEBIXShbQ0BASF0xMilOKFtDSDNdKVtDSDJdW0NAQEhdKFtPSF0pW0NASF0ybjNbY0hdYyhubjMpW0NIMl1PQyg9TylbQ0BASF0oW0NAQEhdKFtDSDJdW0NIMl00KU41W0NIM10pW0NASF0oW0NIMl1bQ0BIXTQ1KWM2W2NIXVtjSF1jKENsKVtjSF1bY0hdNg==

>  <s_epik_cmdline>  (261) 
J2VwaWtfcHl0aG9uJywgJy1waHQnLCAnMi4wJywgJy1waCcsICc3LjAnLCAnLXRuJywgJzgnLCAnLW1hJywgJzIwMCcsICctaW1hZScsICc8aW5maWxlLm1hZT4nLCAnLW9tYWUnLCAnPG91dGZpbGUubWFlPic=

>  <r_lp_tautomer_probability>  (261) 
1

>  <r_epik_Ionization_Penalty>  (261) 
2.08356

>  <r_epik_Ionization_Penalty_Charging>  (261) 
0.0112155

>  <r_epik_Ionization_Penalty_Neutral>  (261) 
2.07235

>  <r_epik_State_Penalty>  (261) 
2.21501

>  <r_epik_Charging_Adjusted_Penalty>  (261) 
2.22623

>  <i_epik_Tot_Q>  (261) 
1

>  <i_epik_Tot_abs_Q>  (261) 
1

>  <s_epik_Chemistry_Notes>  (261) 
This compound has an ester and may undergo hydrolysis at high or low pH.

>  <s_lp_Force_Field>  (261) 
OPLS3e

>  <r_lp_Energy>  (261) 
58.6455

>  <b_lp_Chiralities_Consistent>  (261) 
1

>  <s_lp_Variant>  (261) 
85:0-2

>  <s_i_glide_gridfile>  (261) 
pfpi4k_grid

>  <i_i_glide_lignum>  (261) 
37

>  <i_i_glide_rotatable_bonds>  (261) 
7

>  <r_i_docking_score>  (261) 
-2.61241

>  <r_i_glide_ligand_efficiency>  (261) 
-0.0725671

>  <r_i_glide_ligand_efficiency_sa>  (261) 
-0.239611

>  <r_i_glide_ligand_efficiency_ln>  (261) 
-0.569958

>  <r_i_glide_gscore>  (261) 
-2.61241

>  <r_i_glide_lipo>  (261) 
-0.327888

>  <r_i_glide_hbond>  (261) 
-0.207257

>  <r_i_glide_metal>  (261) 
-0

>  <r_i_glide_rewards>  (261) 
0

>  <r_i_glide_evdw>  (261) 
-30.2827

>  <r_i_glide_ecoul>  (261) 
-6.3512

>  <r_i_glide_erotb>  (261) 
0.464014

>  <r_i_glide_esite>  (261) 
-0.0744703

>  <r_i_glide_emodel>  (261) 
-44.3735

>  <r_i_glide_energy>  (261) 
-36.6339

>  <r_i_glide_einternal>  (261) 
2.12424

>  <r_i_glide_intrahb_reward>  (261) 
-0

>  <i_i_glide_confnum>  (261) 
6

>  <i_i_glide_posenum>  (261) 
1

>  <r_i_glide_eff_state_penalty>  (261) 
0

>  <ligand_id>  (261) 
85

>  <original_smiles>  (261) 
CN1CC(O)C(n2cc(COC(=O)C3C(c4ccc(Cl)cc4)CC4CCC3N4C)nn2)C2CCCC21

>  <smiles>  (261) 
[H]OC1([H])C([H])(n2nnc(C([H])([H])OC(=O)C3([H])C([H])(c4c([H])c([H])c(Cl)c([H])c4[H])C([H])([H])C4([H])N(C([H])([H])[H])C3([H])C([H])([H])C4([H])[H])c2[H])C2([H])C([H])([H])C([H])([H])C([H])([H])C2([H])[N+]([H])(C([H])([H])[H])C1([H])[H]

$$$$
85:1:2
     RDKit          3D

 73 78  0  0  1  0  0  0  0  0999 V2000
    1.3759    5.2512    3.3831 C   0  0  0  0  0  0  0  0  0  0  0  0
    1.5233    3.7919    3.1673 N   0  0  2  0  0  0  0  0  0  0  0  0
    0.2793    3.0428    3.4853 C   0  0  0  0  0  0  0  0  0  0  0  0
    0.4102    1.5636    3.0948 C   0  0  1  0  0  0  0  0  0  0  0  0
    0.6262    1.4577    1.6957 O   0  0  0  0  0  0  0  0  0  0  0  0
    1.5688    0.9243    3.8873 C   0  0  1  0  0  0  0  0  0  0  0  0
    1.6476   -0.5209    3.7002 N   0  0  0  0  0  0  0  0  0  0  0  0
    1.1020   -1.5150    4.4997 C   0  0  0  0  0  0  0  0  0  0  0  0
    1.4674   -2.6724    3.8775 C   0  0  0  0  0  0  0  0  0  0  0  0
    1.1551   -4.0934    4.2641 C   0  0  0  0  0  0  0  0  0  0  0  0
    2.2402   -4.9907    4.0732 O   0  0  0  0  0  0  0  0  0  0  0  0
    2.3842   -5.6207    2.8966 C   0  0  0  0  0  0  0  0  0  0  0  0
    1.6771   -5.4391    1.9043 O   0  0  0  0  0  0  0  0  0  0  0  0
    3.4832   -6.6949    2.9309 C   0  0  2  0  0  0  0  0  0  0  0  0
    4.0663   -7.0094    1.5238 C   0  0  1  0  0  0  0  0  0  0  0  0
    4.9240   -5.8594    1.0184 C   0  0  0  0  0  0  0  0  0  0  0  0
    4.4693   -5.0461   -0.0361 C   0  0  0  0  0  0  0  0  0  0  0  0
    5.2474   -3.9648   -0.4885 C   0  0  0  0  0  0  0  0  0  0  0  0
    6.4879   -3.6922    0.1228 C   0  0  0  0  0  0  0  0  0  0  0  0
    7.4480   -2.3674   -0.4183 Cl  0  0  0  0  0  0  0  0  0  0  0  0
    6.9453   -4.4980    1.1797 C   0  0  0  0  0  0  0  0  0  0  0  0
    6.1630   -5.5737    1.6320 C   0  0  0  0  0  0  0  0  0  0  0  0
    4.8306   -8.3563    1.4899 C   0  0  0  0  0  0  0  0  0  0  0  0
    4.1182   -9.4532    2.3114 C   0  0  2  0  0  0  0  0  0  0  0  0
    2.6583   -9.6500    1.8824 C   0  0  0  0  0  0  0  0  0  0  0  0
    1.8573   -8.6812    2.7532 C   0  0  0  0  0  0  0  0  0  0  0  0
    2.9249   -7.9744    3.6119 C   0  0  1  0  0  0  0  0  0  0  0  0
    3.9418   -9.0202    3.6953 N   0  0  0  0  0  0  0  0  0  0  0  0
    5.1493   -8.7051    4.4545 C   0  0  0  0  0  0  0  0  0  0  0  0
    2.1793   -2.3390    2.7272 N   0  0  0  0  0  0  0  0  0  0  0  0
    2.2690   -1.0530    2.6215 N   0  0  0  0  0  0  0  0  0  0  0  0
    2.9009    1.6769    3.5918 C   0  0  2  0  0  0  0  0  0  0  0  0
    4.0160    1.3135    4.5912 C   0  0  0  0  0  0  0  0  0  0  0  0
    4.0002    2.3947    5.6884 C   0  0  0  0  0  0  0  0  0  0  0  0
    2.9660    3.4465    5.2591 C   0  0  0  0  0  0  0  0  0  0  0  0
    2.7656    3.2051    3.7588 C   0  0  2  0  0  0  0  0  0  0  0  0
    1.1697    5.4728    4.4302 H   0  0  0  0  0  0  0  0  0  0  0  0
    0.5441    5.6342    2.7899 H   0  0  0  0  0  0  0  0  0  0  0  0
    2.2739    5.7873    3.0728 H   0  0  0  0  0  0  0  0  0  0  0  0
    0.0547    3.1300    4.5488 H   0  0  0  0  0  0  0  0  0  0  0  0
   -0.5561    3.4880    2.9445 H   0  0  0  0  0  0  0  0  0  0  0  0
   -0.5259    1.0584    3.3471 H   0  0  0  0  0  0  0  0  0  0  0  0
   -0.0033    1.9989    1.2389 H   0  0  0  0  0  0  0  0  0  0  0  0
    1.3413    1.0667    4.9454 H   0  0  0  0  0  0  0  0  0  0  0  0
    0.5421   -1.3257    5.3998 H   0  0  0  0  0  0  0  0  0  0  0  0
    0.9004   -4.1494    5.3209 H   0  0  0  0  0  0  0  0  0  0  0  0
    0.2737   -4.4521    3.7281 H   0  0  0  0  0  0  0  0  0  0  0  0
    4.2861   -6.3075    3.5554 H   0  0  0  0  0  0  0  0  0  0  0  0
    3.2372   -7.1356    0.8268 H   0  0  0  0  0  0  0  0  0  0  0  0
    3.5125   -5.2421   -0.4983 H   0  0  0  0  0  0  0  0  0  0  0  0
    4.8849   -3.3491   -1.2979 H   0  0  0  0  0  0  0  0  0  0  0  0
    7.8924   -4.2924    1.6585 H   0  0  0  0  0  0  0  0  0  0  0  0
    6.5126   -6.1721    2.4578 H   0  0  0  0  0  0  0  0  0  0  0  0
    4.9387   -8.6793    0.4547 H   0  0  0  0  0  0  0  0  0  0  0  0
    5.8484   -8.2570    1.8649 H   0  0  0  0  0  0  0  0  0  0  0  0
    4.6735  -10.3902    2.2563 H   0  0  0  0  0  0  0  0  0  0  0  0
    2.5129   -9.4721    0.8169 H   0  0  0  0  0  0  0  0  0  0  0  0
    2.3378  -10.6656    2.0981 H   0  0  0  0  0  0  0  0  0  0  0  0
    1.2606   -8.0037    2.1421 H   0  0  0  0  0  0  0  0  0  0  0  0
    1.1628   -9.2288    3.3902 H   0  0  0  0  0  0  0  0  0  0  0  0
    2.5497   -7.7466    4.6124 H   0  0  0  0  0  0  0  0  0  0  0  0
    4.8903   -8.4511    5.4823 H   0  0  0  0  0  0  0  0  0  0  0  0
    5.7140   -7.8723    4.0389 H   0  0  0  0  0  0  0  0  0  0  0  0
    5.8052   -9.5747    4.4834 H   0  0  0  0  0  0  0  0  0  0  0  0
    3.2229    1.4523    2.5717 H   0  0  0  0  0  0  0  0  0  0  0  0
    3.9093    0.3092    5.0078 H   0  0  0  0  0  0  0  0  0  0  0  0
    4.9792    1.3445    4.0807 H   0  0  0  0  0  0  0  0  0  0  0  0
    3.7415    1.9718    6.6619 H   0  0  0  0  0  0  0  0  0  0  0  0
    4.9926    2.8428    5.7851 H   0  0  0  0  0  0  0  0  0  0  0  0
    2.0392    3.2831    5.8144 H   0  0  0  0  0  0  0  0  0  0  0  0
    3.3058    4.4610    5.4786 H   0  0  0  0  0  0  0  0  0  0  0  0
    3.6041    3.6753    3.2479 H   0  0  0  0  0  0  0  0  0  0  0  0
    1.6046    3.6873    2.1610 H   0  0  0  0  0  0  0  0  0  0  0  0
  1  2  1  0
  1 37  1  0
  1 38  1  0
  1 39  1  0
  2 36  1  0
  2  3  1  0
  2 73  1  6
  3  4  1  0
  3 40  1  0
  3 41  1  0
  4  5  1  0
  4  6  1  0
  4 42  1  6
  5 43  1  0
  6  7  1  0
  6 32  1  0
  6 44  1  1
  7 31  1  0
  7  8  1  0
  8  9  2  0
  8 45  1  0
  9 10  1  0
  9 30  1  0
 10 11  1  0
 10 46  1  0
 10 47  1  0
 11 12  1  0
 12 13  2  0
 12 14  1  0
 14 27  1  0
 14 15  1  0
 14 48  1  1
 15 16  1  0
 15 23  1  0
 15 49  1  6
 16 22  1  0
 16 17  2  0
 17 18  1  0
 17 50  1  0
 18 19  2  0
 18 51  1  0
 19 20  1  0
 19 21  1  0
 21 22  2  0
 21 52  1  0
 22 53  1  0
 23 24  1  0
 23 54  1  0
 23 55  1  0
 24 28  1  0
 24 25  1  0
 24 56  1  1
 25 26  1  0
 25 57  1  0
 25 58  1  0
 26 27  1  0
 26 59  1  0
 26 60  1  0
 27 28  1  0
 27 61  1  1
 28 29  1  0
 29 62  1  0
 29 63  1  0
 29 64  1  0
 30 31  2  0
 32 36  1  0
 32 33  1  0
 32 65  1  6
 33 34  1  0
 33 66  1  0
 33 67  1  0
 34 35  1  0
 34 68  1  0
 34 69  1  0
 35 36  1  0
 35 70  1  0
 35 71  1  0
 36 72  1  6
M  CHG  1   2   1
M  END
>  <i_m_ct_stereo_status>  (262) 
1

>  <s_m_source_file>  (262) 
/var/tmp/pbs.5076255.sched01/tmprae_yccg/80g5h6lheg.sdf

>  <i_m_source_file_index>  (262) 
37

>  <i_lp_mmshare_version>  (262) 
48012

>  <i_f3d_flags>  (262) 
0

>  <s_epik_input>  (262) 
W0NIMl0xW0NIMl1bQ0gyXVtDQEBIXShbQ0BASF0xMilOKFtDSDNdKVtDSDJdW0NAQEhdKFtPSF0pW0NASF0ybjNbY0hdYyhubjMpW0NIMl1PQyg9TylbQ0BASF0oW0NAQEhdKFtDSDJdW0NIMl00KU41W0NIM10pW0NASF0oW0NIMl1bQ0BIXTQ1KWM2W2NIXVtjSF1jKENsKVtjSF1bY0hdNg==

>  <s_epik_cmdline>  (262) 
J2VwaWtfcHl0aG9uJywgJy1waHQnLCAnMi4wJywgJy1waCcsICc3LjAnLCAnLXRuJywgJzgnLCAnLW1hJywgJzIwMCcsICctaW1hZScsICc8aW5maWxlLm1hZT4nLCAnLW9tYWUnLCAnPG91dGZpbGUubWFlPic=

>  <r_lp_tautomer_probability>  (262) 
1

>  <r_epik_Ionization_Penalty>  (262) 
2.08356

>  <r_epik_Ionization_Penalty_Charging>  (262) 
0.0112155

>  <r_epik_Ionization_Penalty_Neutral>  (262) 
2.07235

>  <r_epik_State_Penalty>  (262) 
2.21501

>  <r_epik_Charging_Adjusted_Penalty>  (262) 
2.22623

>  <i_epik_Tot_Q>  (262) 
1

>  <i_epik_Tot_abs_Q>  (262) 
1

>  <s_epik_Chemistry_Notes>  (262) 
This compound has an ester and may undergo hydrolysis at high or low pH.

>  <s_lp_Force_Field>  (262) 
OPLS3e

>  <r_lp_Energy>  (262) 
58.6455

>  <b_lp_Chiralities_Consistent>  (262) 
1

>  <s_lp_Variant>  (262) 
85:0-2

>  <s_i_glide_gridfile>  (262) 
pfpi4k_grid

>  <i_i_glide_lignum>  (262) 
37

>  <i_i_glide_rotatable_bonds>  (262) 
7

>  <r_i_docking_score>  (262) 
-2.53415

>  <r_i_glide_ligand_efficiency>  (262) 
-0.0703931

>  <r_i_glide_ligand_efficiency_sa>  (262) 
-0.232433

>  <r_i_glide_ligand_efficiency_ln>  (262) 
-0.552884

>  <r_i_glide_gscore>  (262) 
-2.53415

>  <r_i_glide_lipo>  (262) 
-0.555914

>  <r_i_glide_hbond>  (262) 
-0.125243

>  <r_i_glide_metal>  (262) 
-0

>  <r_i_glide_rewards>  (262) 
0

>  <r_i_glide_evdw>  (262) 
-30.0591

>  <r_i_glide_ecoul>  (262) 
-4.64833

>  <r_i_glide_erotb>  (262) 
0.464014

>  <r_i_glide_esite>  (262) 
-0.116804

>  <r_i_glide_emodel>  (262) 
-42.5621

>  <r_i_glide_energy>  (262) 
-34.7075

>  <r_i_glide_einternal>  (262) 
1.63119

>  <r_i_glide_intrahb_reward>  (262) 
-0

>  <i_i_glide_confnum>  (262) 
5

>  <i_i_glide_posenum>  (262) 
22

>  <r_i_glide_eff_state_penalty>  (262) 
0

>  <ligand_id>  (262) 
85

>  <original_smiles>  (262) 
CN1CC(O)C(n2cc(COC(=O)C3C(c4ccc(Cl)cc4)CC4CCC3N4C)nn2)C2CCCC21

>  <smiles>  (262) 
[H]OC1([H])C([H])(n2nnc(C([H])([H])OC(=O)C3([H])C([H])(c4c([H])c([H])c(Cl)c([H])c4[H])C([H])([H])C4([H])N(C([H])([H])[H])C3([H])C([H])([H])C4([H])[H])c2[H])C2([H])C([H])([H])C([H])([H])C([H])([H])C2([H])[N+]([H])(C([H])([H])[H])C1([H])[H]

$$$$
85:2:0
     RDKit          3D

 73 78  0  0  1  0  0  0  0  0999 V2000
    5.2004   -2.5971   -2.8159 C   0  0  0  0  0  0  0  0  0  0  0  0
    4.7033   -2.6743   -1.4538 N   0  0  0  0  0  0  0  0  0  0  0  0
    3.2755   -2.9960   -1.4702 C   0  0  0  0  0  0  0  0  0  0  0  0
    2.6676   -3.3095   -0.0890 C   0  0  1  0  0  0  0  0  0  0  0  0
    2.2168   -4.6522   -0.1136 O   0  0  0  0  0  0  0  0  0  0  0  0
    3.6329   -3.0450    1.0821 C   0  0  1  0  0  0  0  0  0  0  0  0
    3.0531   -3.3158    2.3906 N   0  0  0  0  0  0  0  0  0  0  0  0
    2.5314   -2.3985    3.2669 C   0  0  0  0  0  0  0  0  0  0  0  0
    2.0971   -3.1145    4.3288 C   0  0  0  0  0  0  0  0  0  0  0  0
    1.4513   -2.6366    5.6270 C   0  0  0  0  0  0  0  0  0  0  0  0
    1.6553   -1.2422    5.8142 O   0  0  0  0  0  0  0  0  0  0  0  0
    0.8631   -0.3860    5.1524 C   0  0  0  0  0  0  0  0  0  0  0  0
   -0.1859   -0.6923    4.5725 O   0  0  0  0  0  0  0  0  0  0  0  0
    1.4700    1.0309    5.0774 C   0  0  2  0  0  0  0  0  0  0  0  0
    0.3754    2.1261    4.9095 C   0  0  1  0  0  0  0  0  0  0  0  0
   -0.4716    2.2726    6.1690 C   0  0  0  0  0  0  0  0  0  0  0  0
    0.1423    2.4697    7.4252 C   0  0  0  0  0  0  0  0  0  0  0  0
   -0.6331    2.5839    8.5867 C   0  0  0  0  0  0  0  0  0  0  0  0
   -2.0339    2.5271    8.5005 C   0  0  0  0  0  0  0  0  0  0  0  0
   -2.9899    2.7539    9.9156 Cl  0  0  0  0  0  0  0  0  0  0  0  0
   -2.6528    2.3077    7.2559 C   0  0  0  0  0  0  0  0  0  0  0  0
   -1.8753    2.1775    6.0934 C   0  0  0  0  0  0  0  0  0  0  0  0
    0.9434    3.4981    4.4609 C   0  0  0  0  0  0  0  0  0  0  0  0
    2.0685    3.3390    3.4127 C   0  0  2  0  0  0  0  0  0  0  0  0
    1.5962    2.4981    2.2104 C   0  0  0  0  0  0  0  0  0  0  0  0
    1.9673    1.0568    2.5502 C   0  0  0  0  0  0  0  0  0  0  0  0
    2.5647    1.1568    3.9726 C   0  0  1  0  0  0  0  0  0  0  0  0
    3.1525    2.5104    3.9605 N   0  0  2  0  0  0  0  0  0  0  0  0
    3.8553    2.9803    5.1913 C   0  0  0  0  0  0  0  0  0  0  0  0
    2.3123   -4.4601    4.0404 N   0  0  0  0  0  0  0  0  0  0  0  0
    2.8850   -4.5751    2.8809 N   0  0  0  0  0  0  0  0  0  0  0  0
    4.9541   -3.7833    0.8166 C   0  0  2  0  0  0  0  0  0  0  0  0
    6.1152   -3.4054    1.7479 C   0  0  0  0  0  0  0  0  0  0  0  0
    7.3581   -3.7255    0.9163 C   0  0  0  0  0  0  0  0  0  0  0  0
    6.9688   -3.3160   -0.5041 C   0  0  0  0  0  0  0  0  0  0  0  0
    5.4630   -3.6396   -0.6409 C   0  0  2  0  0  0  0  0  0  0  0  0
    4.6512   -1.8500   -3.3909 H   0  0  0  0  0  0  0  0  0  0  0  0
    5.1047   -3.5575   -3.3318 H   0  0  0  0  0  0  0  0  0  0  0  0
    6.2532   -2.3178   -2.8222 H   0  0  0  0  0  0  0  0  0  0  0  0
    2.7441   -2.1340   -1.8751 H   0  0  0  0  0  0  0  0  0  0  0  0
    3.0711   -3.8096   -2.1685 H   0  0  0  0  0  0  0  0  0  0  0  0
    1.8039   -2.6790    0.0792 H   0  0  0  0  0  0  0  0  0  0  0  0
    2.6579   -5.0858   -0.8354 H   0  0  0  0  0  0  0  0  0  0  0  0
    3.8467   -1.9691    1.0561 H   0  0  0  0  0  0  0  0  0  0  0  0
    2.5346   -1.3493    3.0354 H   0  0  0  0  0  0  0  0  0  0  0  0
    0.3842   -2.8681    5.6568 H   0  0  0  0  0  0  0  0  0  0  0  0
    1.9026   -3.1384    6.4796 H   0  0  0  0  0  0  0  0  0  0  0  0
    1.9961    1.1848    6.0160 H   0  0  0  0  0  0  0  0  0  0  0  0
   -0.2879    1.8259    4.0952 H   0  0  0  0  0  0  0  0  0  0  0  0
    1.2167    2.5363    7.5083 H   0  0  0  0  0  0  0  0  0  0  0  0
   -0.1508    2.7296    9.5445 H   0  0  0  0  0  0  0  0  0  0  0  0
   -3.7311    2.2486    7.1924 H   0  0  0  0  0  0  0  0  0  0  0  0
   -2.3516    2.0092    5.1360 H   0  0  0  0  0  0  0  0  0  0  0  0
    0.1335    4.0972    4.0382 H   0  0  0  0  0  0  0  0  0  0  0  0
    1.3165    4.0641    5.3170 H   0  0  0  0  0  0  0  0  0  0  0  0
    2.4427    4.3123    3.0938 H   0  0  0  0  0  0  0  0  0  0  0  0
    0.5263    2.5597    2.0266 H   0  0  0  0  0  0  0  0  0  0  0  0
    2.1129    2.8011    1.3069 H   0  0  0  0  0  0  0  0  0  0  0  0
    1.0954    0.4053    2.4622 H   0  0  0  0  0  0  0  0  0  0  0  0
    2.7148    0.6954    1.8426 H   0  0  0  0  0  0  0  0  0  0  0  0
    3.3660    0.4355    4.1383 H   0  0  0  0  0  0  0  0  0  0  0  0
    3.2142    3.0836    6.0596 H   0  0  0  0  0  0  0  0  0  0  0  0
    4.3178    3.9500    5.0286 H   0  0  0  0  0  0  0  0  0  0  0  0
    4.6509    2.2981    5.4825 H   0  0  0  0  0  0  0  0  0  0  0  0
    4.7680   -4.8501    0.9569 H   0  0  0  0  0  0  0  0  0  0  0  0
    6.0916   -2.3411    1.9817 H   0  0  0  0  0  0  0  0  0  0  0  0
    6.0742   -3.9561    2.6873 H   0  0  0  0  0  0  0  0  0  0  0  0
    8.2421   -3.1935    1.2617 H   0  0  0  0  0  0  0  0  0  0  0  0
    7.5672   -4.7938    0.9571 H   0  0  0  0  0  0  0  0  0  0  0  0
    7.1226   -2.2404   -0.6225 H   0  0  0  0  0  0  0  0  0  0  0  0
    7.5672   -3.8198   -1.2613 H   0  0  0  0  0  0  0  0  0  0  0  0
    5.3732   -4.6299   -1.1021 H   0  0  0  0  0  0  0  0  0  0  0  0
    3.8304    2.4840    3.2085 H   0  0  0  0  0  0  0  0  0  0  0  0
  1  2  1  0
  1 37  1  0
  1 38  1  0
  1 39  1  0
  2 36  1  0
  2  3  1  0
  3  4  1  0
  3 40  1  0
  3 41  1  0
  4  5  1  0
  4  6  1  0
  4 42  1  1
  5 43  1  0
  6  7  1  0
  6 32  1  0
  6 44  1  1
  7 31  1  0
  7  8  1  0
  8  9  2  0
  8 45  1  0
  9 10  1  0
  9 30  1  0
 10 11  1  0
 10 46  1  0
 10 47  1  0
 11 12  1  0
 12 13  2  0
 12 14  1  0
 14 27  1  0
 14 15  1  0
 14 48  1  1
 15 16  1  0
 15 23  1  0
 15 49  1  6
 16 22  1  0
 16 17  2  0
 17 18  1  0
 17 50  1  0
 18 19  2  0
 18 51  1  0
 19 20  1  0
 19 21  1  0
 21 22  2  0
 21 52  1  0
 22 53  1  0
 23 24  1  0
 23 54  1  0
 23 55  1  0
 24 28  1  0
 24 25  1  0
 24 56  1  6
 25 26  1  0
 25 57  1  0
 25 58  1  0
 26 27  1  0
 26 59  1  0
 26 60  1  0
 27 28  1  0
 27 61  1  1
 28 29  1  0
 28 73  1  6
 29 62  1  0
 29 63  1  0
 29 64  1  0
 30 31  2  0
 32 36  1  0
 32 33  1  0
 32 65  1  1
 33 34  1  0
 33 66  1  0
 33 67  1  0
 34 35  1  0
 34 68  1  0
 34 69  1  0
 35 36  1  0
 35 70  1  0
 35 71  1  0
 36 72  1  6
M  CHG  1  28   1
M  END
>  <i_m_ct_stereo_status>  (263) 
1

>  <s_m_source_file>  (263) 
/var/tmp/pbs.5076255.sched01/tmprae_yccg/80g5h6lheg.sdf

>  <i_m_source_file_index>  (263) 
38

>  <i_lp_mmshare_version>  (263) 
48012

>  <i_f3d_flags>  (263) 
0

>  <s_epik_input>  (263) 
W0NIMl0xW0NIMl1bQ0gyXVtDQEBIXShbQ0BASF0xMilOKFtDSDNdKVtDSDJdW0NAQEhdKFtPSF0pW0NASF0ybjNbY0hdYyhubjMpW0NIMl1PQyg9TylbQ0BASF0oW0NAQEhdKFtDSDJdW0NIMl00KU41W0NIM10pW0NASF0oW0NIMl1bQ0BIXTQ1KWM2W2NIXVtjSF1jKENsKVtjSF1bY0hdNg==

>  <s_epik_cmdline>  (263) 
J2VwaWtfcHl0aG9uJywgJy1waHQnLCAnMi4wJywgJy1waCcsICc3LjAnLCAnLXRuJywgJzgnLCAnLW1hJywgJzIwMCcsICctaW1hZScsICc8aW5maWxlLm1hZT4nLCAnLW9tYWUnLCAnPG91dGZpbGUubWFlPic=

>  <r_epik_Ionization_Penalty>  (263) 
2.37423

>  <r_epik_Ionization_Penalty_Charging>  (263) 
0.0182098

>  <r_epik_Ionization_Penalty_Neutral>  (263) 
2.35602

>  <r_epik_State_Penalty>  (263) 
2.52518

>  <r_epik_Charging_Adjusted_Penalty>  (263) 
2.54339

>  <i_epik_Tot_Q>  (263) 
1

>  <i_epik_Tot_abs_Q>  (263) 
1

>  <s_epik_Chemistry_Notes>  (263) 
This compound has an ester and may undergo hydrolysis at high or low pH.

>  <s_lp_Force_Field>  (263) 
OPLS3e

>  <r_lp_Energy>  (263) 
53.5418

>  <b_lp_Chiralities_Consistent>  (263) 
1

>  <s_lp_Variant>  (263) 
85:0-3

>  <s_i_glide_gridfile>  (263) 
pfpi4k_grid

>  <i_i_glide_lignum>  (263) 
38

>  <i_i_glide_rotatable_bonds>  (263) 
7

>  <r_i_docking_score>  (263) 
-2.89775

>  <r_i_glide_ligand_efficiency>  (263) 
-0.0804929

>  <r_i_glide_ligand_efficiency_sa>  (263) 
-0.265782

>  <r_i_glide_ligand_efficiency_ln>  (263) 
-0.63221

>  <r_i_glide_gscore>  (263) 
-2.89775

>  <r_i_glide_lipo>  (263) 
-0.606624

>  <r_i_glide_hbond>  (263) 
-0.301811

>  <r_i_glide_metal>  (263) 
-0

>  <r_i_glide_rewards>  (263) 
0

>  <r_i_glide_evdw>  (263) 
-28.1915

>  <r_i_glide_ecoul>  (263) 
-6.80862

>  <r_i_glide_erotb>  (263) 
0.464014

>  <r_i_glide_esite>  (263) 
-0.0224561

>  <r_i_glide_emodel>  (263) 
-40.647

>  <r_i_glide_energy>  (263) 
-35.0001

>  <r_i_glide_einternal>  (263) 
3.70824

>  <r_i_glide_intrahb_reward>  (263) 
-0

>  <i_i_glide_confnum>  (263) 
3

>  <i_i_glide_posenum>  (263) 
31

>  <r_i_glide_eff_state_penalty>  (263) 
0

>  <ligand_id>  (263) 
85

>  <original_smiles>  (263) 
CN1CC(O)C(n2cc(COC(=O)C3C(c4ccc(Cl)cc4)CC4CCC3N4C)nn2)C2CCCC21

>  <smiles>  (263) 
[H]OC1([H])C([H])([H])N(C([H])([H])[H])C2([H])C([H])([H])C([H])([H])C([H])([H])C2([H])C1([H])n1nnc(C([H])([H])OC(=O)C2([H])C([H])(c3c([H])c([H])c(Cl)c([H])c3[H])C([H])([H])C3([H])C([H])([H])C([H])([H])C2([H])[N+]3([H])C([H])([H])[H])c1[H]

$$$$
85:2:1
     RDKit          3D

 73 78  0  0  1  0  0  0  0  0999 V2000
    3.1592   -9.4355    1.1293 C   0  0  0  0  0  0  0  0  0  0  0  0
    2.5828   -8.5681    2.1498 N   0  0  0  0  0  0  0  0  0  0  0  0
    1.8670   -7.4633    1.5140 C   0  0  0  0  0  0  0  0  0  0  0  0
    1.0847   -6.5465    2.4776 C   0  0  1  0  0  0  0  0  0  0  0  0
   -0.2860   -6.6358    2.1308 O   0  0  0  0  0  0  0  0  0  0  0  0
    1.3136   -6.8974    3.9716 C   0  0  1  0  0  0  0  0  0  0  0  0
    0.6070   -5.9921    4.8743 N   0  0  0  0  0  0  0  0  0  0  0  0
    0.6623   -4.6048    4.9206 C   0  0  0  0  0  0  0  0  0  0  0  0
   -0.1274   -4.2831    5.9600 C   0  0  0  0  0  0  0  0  0  0  0  0
   -0.5128   -2.9435    6.5322 C   0  0  0  0  0  0  0  0  0  0  0  0
    0.3039   -1.8784    6.0693 O   0  0  0  0  0  0  0  0  0  0  0  0
   -0.1838   -1.0692    5.1326 C   0  0  0  0  0  0  0  0  0  0  0  0
   -1.3068   -1.1517    4.6284 O   0  0  0  0  0  0  0  0  0  0  0  0
    0.8255    0.0317    4.7556 C   0  0  2  0  0  0  0  0  0  0  0  0
    0.1205    1.3371    4.2617 C   0  0  1  0  0  0  0  0  0  0  0  0
   -0.6245    2.0446    5.3886 C   0  0  0  0  0  0  0  0  0  0  0  0
    0.0454    2.3959    6.5851 C   0  0  0  0  0  0  0  0  0  0  0  0
   -0.6493    3.0289    7.6328 C   0  0  0  0  0  0  0  0  0  0  0  0
   -2.0229    3.3134    7.4973 C   0  0  0  0  0  0  0  0  0  0  0  0
   -2.8770    4.0994    8.7760 Cl  0  0  0  0  0  0  0  0  0  0  0  0
   -2.6956    2.9539    6.3102 C   0  0  0  0  0  0  0  0  0  0  0  0
   -2.0019    2.3228    5.2589 C   0  0  0  0  0  0  0  0  0  0  0  0
    1.0778    2.3154    3.5346 C   0  0  0  0  0  0  0  0  0  0  0  0
    2.0947    1.5707    2.6380 C   0  0  2  0  0  0  0  0  0  0  0  0
    1.3793    0.6431    1.6348 C   0  0  0  0  0  0  0  0  0  0  0  0
    1.2705   -0.7156    2.3547 C   0  0  0  0  0  0  0  0  0  0  0  0
    1.8991   -0.4574    3.7393 C   0  0  1  0  0  0  0  0  0  0  0  0
    2.8767    0.6157    3.4447 N   0  0  2  0  0  0  0  0  0  0  0  0
    3.6928    1.1525    4.5678 C   0  0  0  0  0  0  0  0  0  0  0  0
   -0.6411   -5.4602    6.5191 N   0  0  0  0  0  0  0  0  0  0  0  0
   -0.1849   -6.4669    5.8701 N   0  0  0  0  0  0  0  0  0  0  0  0
    1.0573   -8.4275    4.1729 C   0  0  2  0  0  0  0  0  0  0  0  0
    1.5089   -9.0110    5.5274 C   0  0  0  0  0  0  0  0  0  0  0  0
    1.7874  -10.4782    5.2372 C   0  0  0  0  0  0  0  0  0  0  0  0
    2.3990  -10.4627    3.8354 C   0  0  0  0  0  0  0  0  0  0  0  0
    1.7047   -9.3136    3.0676 C   0  0  2  0  0  0  0  0  0  0  0  0
    3.8218   -8.8767    0.4730 H   0  0  0  0  0  0  0  0  0  0  0  0
    2.3842   -9.8814    0.5027 H   0  0  0  0  0  0  0  0  0  0  0  0
    3.7541  -10.2369    1.5673 H   0  0  0  0  0  0  0  0  0  0  0  0
    2.6193   -6.8449    1.0328 H   0  0  0  0  0  0  0  0  0  0  0  0
    1.2175   -7.8229    0.7139 H   0  0  0  0  0  0  0  0  0  0  0  0
    1.3861   -5.5124    2.3018 H   0  0  0  0  0  0  0  0  0  0  0  0
   -0.5260   -7.5541    2.1884 H   0  0  0  0  0  0  0  0  0  0  0  0
    2.3762   -6.7316    4.1653 H   0  0  0  0  0  0  0  0  0  0  0  0
    1.2497   -4.0007    4.2328 H   0  0  0  0  0  0  0  0  0  0  0  0
   -1.5746   -2.7497    6.3569 H   0  0  0  0  0  0  0  0  0  0  0  0
   -0.4019   -2.9561    7.6112 H   0  0  0  0  0  0  0  0  0  0  0  0
    1.3772    0.2587    5.6651 H   0  0  0  0  0  0  0  0  0  0  0  0
   -0.6120    1.0655    3.4975 H   0  0  0  0  0  0  0  0  0  0  0  0
    1.0985    2.1858    6.7043 H   0  0  0  0  0  0  0  0  0  0  0  0
   -0.1219    3.2970    8.5387 H   0  0  0  0  0  0  0  0  0  0  0  0
   -3.7498    3.1642    6.1972 H   0  0  0  0  0  0  0  0  0  0  0  0
   -2.5320    2.0419    4.3559 H   0  0  0  0  0  0  0  0  0  0  0  0
    0.4835    3.0131    2.9364 H   0  0  0  0  0  0  0  0  0  0  0  0
    1.6079    2.9403    4.2547 H   0  0  0  0  0  0  0  0  0  0  0  0
    2.7406    2.2881    2.1299 H   0  0  0  0  0  0  0  0  0  0  0  0
    0.4138    1.0331    1.3022 H   0  0  0  0  0  0  0  0  0  0  0  0
    1.9952    0.5160    0.7488 H   0  0  0  0  0  0  0  0  0  0  0  0
    0.2411   -1.0663    2.4014 H   0  0  0  0  0  0  0  0  0  0  0  0
    1.8414   -1.4760    1.8206 H   0  0  0  0  0  0  0  0  0  0  0  0
    2.4210   -1.3395    4.1207 H   0  0  0  0  0  0  0  0  0  0  0  0
    3.1201    1.6630    5.3345 H   0  0  0  0  0  0  0  0  0  0  0  0
    4.4256    1.8607    4.1979 H   0  0  0  0  0  0  0  0  0  0  0  0
    4.2408    0.3608    5.0679 H   0  0  0  0  0  0  0  0  0  0  0  0
   -0.0180   -8.6040    4.1014 H   0  0  0  0  0  0  0  0  0  0  0  0
    2.4246   -8.5241    5.8622 H   0  0  0  0  0  0  0  0  0  0  0  0
    0.7625   -8.9005    6.3121 H   0  0  0  0  0  0  0  0  0  0  0  0
    2.4491  -10.9346    5.9745 H   0  0  0  0  0  0  0  0  0  0  0  0
    0.8558  -11.0457    5.2324 H   0  0  0  0  0  0  0  0  0  0  0  0
    3.4674  -10.2614    3.9174 H   0  0  0  0  0  0  0  0  0  0  0  0
    2.2987  -11.4244    3.3268 H   0  0  0  0  0  0  0  0  0  0  0  0
    0.8833   -9.7659    2.4998 H   0  0  0  0  0  0  0  0  0  0  0  0
    3.5017    0.1967    2.7669 H   0  0  0  0  0  0  0  0  0  0  0  0
  1  2  1  0
  1 37  1  0
  1 38  1  0
  1 39  1  0
  2 36  1  0
  2  3  1  0
  3  4  1  0
  3 40  1  0
  3 41  1  0
  4  5  1  0
  4  6  1  0
  4 42  1  1
  5 43  1  0
  6  7  1  0
  6 32  1  0
  6 44  1  1
  7 31  1  0
  7  8  1  0
  8  9  2  0
  8 45  1  0
  9 10  1  0
  9 30  1  0
 10 11  1  0
 10 46  1  0
 10 47  1  0
 11 12  1  0
 12 13  2  0
 12 14  1  0
 14 27  1  0
 14 15  1  0
 14 48  1  1
 15 16  1  0
 15 23  1  0
 15 49  1  6
 16 22  1  0
 16 17  2  0
 17 18  1  0
 17 50  1  0
 18 19  2  0
 18 51  1  0
 19 20  1  0
 19 21  1  0
 21 22  2  0
 21 52  1  0
 22 53  1  0
 23 24  1  0
 23 54  1  0
 23 55  1  0
 24 28  1  0
 24 25  1  0
 24 56  1  6
 25 26  1  0
 25 57  1  0
 25 58  1  0
 26 27  1  0
 26 59  1  0
 26 60  1  0
 27 28  1  0
 27 61  1  1
 28 29  1  0
 28 73  1  6
 29 62  1  0
 29 63  1  0
 29 64  1  0
 30 31  2  0
 32 36  1  0
 32 33  1  0
 32 65  1  1
 33 34  1  0
 33 66  1  0
 33 67  1  0
 34 35  1  0
 34 68  1  0
 34 69  1  0
 35 36  1  0
 35 70  1  0
 35 71  1  0
 36 72  1  6
M  CHG  1  28   1
M  END
>  <i_m_ct_stereo_status>  (264) 
1

>  <s_m_source_file>  (264) 
/var/tmp/pbs.5076255.sched01/tmprae_yccg/80g5h6lheg.sdf

>  <i_m_source_file_index>  (264) 
38

>  <i_lp_mmshare_version>  (264) 
48012

>  <i_f3d_flags>  (264) 
0

>  <s_epik_input>  (264) 
W0NIMl0xW0NIMl1bQ0gyXVtDQEBIXShbQ0BASF0xMilOKFtDSDNdKVtDSDJdW0NAQEhdKFtPSF0pW0NASF0ybjNbY0hdYyhubjMpW0NIMl1PQyg9TylbQ0BASF0oW0NAQEhdKFtDSDJdW0NIMl00KU41W0NIM10pW0NASF0oW0NIMl1bQ0BIXTQ1KWM2W2NIXVtjSF1jKENsKVtjSF1bY0hdNg==

>  <s_epik_cmdline>  (264) 
J2VwaWtfcHl0aG9uJywgJy1waHQnLCAnMi4wJywgJy1waCcsICc3LjAnLCAnLXRuJywgJzgnLCAnLW1hJywgJzIwMCcsICctaW1hZScsICc8aW5maWxlLm1hZT4nLCAnLW9tYWUnLCAnPG91dGZpbGUubWFlPic=

>  <r_epik_Ionization_Penalty>  (264) 
2.37423

>  <r_epik_Ionization_Penalty_Charging>  (264) 
0.0182098

>  <r_epik_Ionization_Penalty_Neutral>  (264) 
2.35602

>  <r_epik_State_Penalty>  (264) 
2.52518

>  <r_epik_Charging_Adjusted_Penalty>  (264) 
2.54339

>  <i_epik_Tot_Q>  (264) 
1

>  <i_epik_Tot_abs_Q>  (264) 
1

>  <s_epik_Chemistry_Notes>  (264) 
This compound has an ester and may undergo hydrolysis at high or low pH.

>  <s_lp_Force_Field>  (264) 
OPLS3e

>  <r_lp_Energy>  (264) 
53.5418

>  <b_lp_Chiralities_Consistent>  (264) 
1

>  <s_lp_Variant>  (264) 
85:0-3

>  <s_i_glide_gridfile>  (264) 
pfpi4k_grid

>  <i_i_glide_lignum>  (264) 
38

>  <i_i_glide_rotatable_bonds>  (264) 
7

>  <r_i_docking_score>  (264) 
-2.87373

>  <r_i_glide_ligand_efficiency>  (264) 
-0.079826

>  <r_i_glide_ligand_efficiency_sa>  (264) 
-0.26358

>  <r_i_glide_ligand_efficiency_ln>  (264) 
-0.626971

>  <r_i_glide_gscore>  (264) 
-2.87373

>  <r_i_glide_lipo>  (264) 
-0.329133

>  <r_i_glide_hbond>  (264) 
-0.162609

>  <r_i_glide_metal>  (264) 
-0

>  <r_i_glide_rewards>  (264) 
0

>  <r_i_glide_evdw>  (264) 
-32.4633

>  <r_i_glide_ecoul>  (264) 
-7.87075

>  <r_i_glide_erotb>  (264) 
0.464014

>  <r_i_glide_esite>  (264) 
-0.0422265

>  <r_i_glide_emodel>  (264) 
-47.0121

>  <r_i_glide_energy>  (264) 
-40.3341

>  <r_i_glide_einternal>  (264) 
2.50158

>  <r_i_glide_intrahb_reward>  (264) 
-0

>  <i_i_glide_confnum>  (264) 
3

>  <i_i_glide_posenum>  (264) 
40

>  <r_i_glide_eff_state_penalty>  (264) 
0

>  <ligand_id>  (264) 
85

>  <original_smiles>  (264) 
CN1CC(O)C(n2cc(COC(=O)C3C(c4ccc(Cl)cc4)CC4CCC3N4C)nn2)C2CCCC21

>  <smiles>  (264) 
[H]OC1([H])C([H])([H])N(C([H])([H])[H])C2([H])C([H])([H])C([H])([H])C([H])([H])C2([H])C1([H])n1nnc(C([H])([H])OC(=O)C2([H])C([H])(c3c([H])c([H])c(Cl)c([H])c3[H])C([H])([H])C3([H])C([H])([H])C([H])([H])C2([H])[N+]3([H])C([H])([H])[H])c1[H]

$$$$
85:2:2
     RDKit          3D

 73 78  0  0  1  0  0  0  0  0999 V2000
    3.1800   -9.4396    1.1049 C   0  0  0  0  0  0  0  0  0  0  0  0
    2.6550   -8.5180    2.1081 N   0  0  0  0  0  0  0  0  0  0  0  0
    1.9505   -7.4143    1.4537 C   0  0  0  0  0  0  0  0  0  0  0  0
    1.2093   -6.4453    2.4016 C   0  0  1  0  0  0  0  0  0  0  0  0
   -0.1772   -6.5393    2.1062 O   0  0  0  0  0  0  0  0  0  0  0  0
    1.4932   -6.7426    3.8954 C   0  0  1  0  0  0  0  0  0  0  0  0
    0.8415   -5.7961    4.8036 N   0  0  0  0  0  0  0  0  0  0  0  0
    1.1506   -4.4646    5.0196 C   0  0  0  0  0  0  0  0  0  0  0  0
    0.2448   -4.0575    5.9448 C   0  0  0  0  0  0  0  0  0  0  0  0
    0.0665   -2.7322    6.6322 C   0  0  0  0  0  0  0  0  0  0  0  0
    0.5839   -1.6352    5.8960 O   0  0  0  0  0  0  0  0  0  0  0  0
   -0.2557   -0.7194    5.4119 C   0  0  0  0  0  0  0  0  0  0  0  0
   -1.4852   -0.8222    5.3741 O   0  0  0  0  0  0  0  0  0  0  0  0
    0.4975    0.5396    4.9421 C   0  0  2  0  0  0  0  0  0  0  0  0
   -0.4214    1.8005    4.8693 C   0  0  1  0  0  0  0  0  0  0  0  0
   -0.8713    2.2698    6.2507 C   0  0  0  0  0  0  0  0  0  0  0  0
    0.0781    2.5173    7.2726 C   0  0  0  0  0  0  0  0  0  0  0  0
   -0.3449    2.9310    8.5476 C   0  0  0  0  0  0  0  0  0  0  0  0
   -1.7146    3.1043    8.8152 C   0  0  0  0  0  0  0  0  0  0  0  0
   -2.2369    3.6385   10.3702 Cl  0  0  0  0  0  0  0  0  0  0  0  0
   -2.6647    2.8531    7.8057 C   0  0  0  0  0  0  0  0  0  0  0  0
   -2.2437    2.4368    6.5291 C   0  0  0  0  0  0  0  0  0  0  0  0
    0.2176    2.9680    4.0731 C   0  0  0  0  0  0  0  0  0  0  0  0
    0.9996    2.4706    2.8310 C   0  0  2  0  0  0  0  0  0  0  0  0
    0.1129    1.5999    1.9180 C   0  0  0  0  0  0  0  0  0  0  0  0
    0.3185    0.1665    2.4322 C   0  0  0  0  0  0  0  0  0  0  0  0
    1.2838    0.3155    3.6182 C   0  0  1  0  0  0  0  0  0  0  0  0
    2.0487    1.5220    3.2411 N   0  0  2  0  0  0  0  0  0  0  0  0
    3.0998    2.0075    4.1742 C   0  0  0  0  0  0  0  0  0  0  0  0
   -0.5855   -5.1367    6.2491 N   0  0  0  0  0  0  0  0  0  0  0  0
   -0.2346   -6.1630    5.5509 N   0  0  0  0  0  0  0  0  0  0  0  0
    1.2105   -8.2494    4.1748 C   0  0  2  0  0  0  0  0  0  0  0  0
    1.6935   -8.7754    5.5402 C   0  0  0  0  0  0  0  0  0  0  0  0
    1.9328  -10.2638    5.3053 C   0  0  0  0  0  0  0  0  0  0  0  0
    2.5008  -10.3273    3.8867 C   0  0  0  0  0  0  0  0  0  0  0  0
    1.8000   -9.2002    3.0935 C   0  0  2  0  0  0  0  0  0  0  0  0
    3.8389   -8.9238    0.4063 H   0  0  0  0  0  0  0  0  0  0  0  0
    2.3736   -9.8869    0.5186 H   0  0  0  0  0  0  0  0  0  0  0  0
    3.7625  -10.2434    1.5549 H   0  0  0  0  0  0  0  0  0  0  0  0
    2.6975   -6.8342    0.9156 H   0  0  0  0  0  0  0  0  0  0  0  0
    1.2677   -7.7944    0.6944 H   0  0  0  0  0  0  0  0  0  0  0  0
    1.5169   -5.4231    2.1800 H   0  0  0  0  0  0  0  0  0  0  0  0
   -0.4137   -7.4555    2.1948 H   0  0  0  0  0  0  0  0  0  0  0  0
    2.5651   -6.5915    4.0444 H   0  0  0  0  0  0  0  0  0  0  0  0
    1.9708   -3.9465    4.5346 H   0  0  0  0  0  0  0  0  0  0  0  0
   -0.9850   -2.5852    6.8858 H   0  0  0  0  0  0  0  0  0  0  0  0
    0.6038   -2.7249    7.5769 H   0  0  0  0  0  0  0  0  0  0  0  0
    1.2554    0.7093    5.6999 H   0  0  0  0  0  0  0  0  0  0  0  0
   -1.3173    1.5332    4.3036 H   0  0  0  0  0  0  0  0  0  0  0  0
    1.1349    2.3974    7.0834 H   0  0  0  0  0  0  0  0  0  0  0  0
    0.3908    3.1189    9.3203 H   0  0  0  0  0  0  0  0  0  0  0  0
   -3.7154    2.9809    8.0107 H   0  0  0  0  0  0  0  0  0  0  0  0
   -2.9835    2.2518    5.7645 H   0  0  0  0  0  0  0  0  0  0  0  0
   -0.5689    3.6626    3.7673 H   0  0  0  0  0  0  0  0  0  0  0  0
    0.8809    3.5532    4.7132 H   0  0  0  0  0  0  0  0  0  0  0  0
    1.4241    3.3146    2.2892 H   0  0  0  0  0  0  0  0  0  0  0  0
   -0.9353    1.9021    1.9391 H   0  0  0  0  0  0  0  0  0  0  0  0
    0.4399    1.6558    0.8818 H   0  0  0  0  0  0  0  0  0  0  0  0
   -0.6338   -0.2589    2.7326 H   0  0  0  0  0  0  0  0  0  0  0  0
    0.7573   -0.4709    1.6643 H   0  0  0  0  0  0  0  0  0  0  0  0
    1.9566   -0.5403    3.7089 H   0  0  0  0  0  0  0  0  0  0  0  0
    2.7179    2.3429    5.1330 H   0  0  0  0  0  0  0  0  0  0  0  0
    3.6391    2.8420    3.7337 H   0  0  0  0  0  0  0  0  0  0  0  0
    3.8259    1.2263    4.3808 H   0  0  0  0  0  0  0  0  0  0  0  0
    0.1295   -8.4128    4.1447 H   0  0  0  0  0  0  0  0  0  0  0  0
    2.6316   -8.2956    5.8223 H   0  0  0  0  0  0  0  0  0  0  0  0
    0.9739   -8.5977    6.3385 H   0  0  0  0  0  0  0  0  0  0  0  0
    2.6083  -10.7029    6.0405 H   0  0  0  0  0  0  0  0  0  0  0  0
    0.9897  -10.8106    5.3547 H   0  0  0  0  0  0  0  0  0  0  0  0
    3.5757  -10.1428    3.9229 H   0  0  0  0  0  0  0  0  0  0  0  0
    2.3550  -11.3060    3.4250 H   0  0  0  0  0  0  0  0  0  0  0  0
    0.9524   -9.6522    2.5698 H   0  0  0  0  0  0  0  0  0  0  0  0
    2.5072    1.2706    2.3748 H   0  0  0  0  0  0  0  0  0  0  0  0
  1  2  1  0
  1 37  1  0
  1 38  1  0
  1 39  1  0
  2 36  1  0
  2  3  1  0
  3  4  1  0
  3 40  1  0
  3 41  1  0
  4  5  1  0
  4  6  1  0
  4 42  1  6
  5 43  1  0
  6  7  1  0
  6 32  1  0
  6 44  1  6
  7 31  1  0
  7  8  1  0
  8  9  2  0
  8 45  1  0
  9 10  1  0
  9 30  1  0
 10 11  1  0
 10 46  1  0
 10 47  1  0
 11 12  1  0
 12 13  2  0
 12 14  1  0
 14 27  1  0
 14 15  1  0
 14 48  1  1
 15 16  1  0
 15 23  1  0
 15 49  1  6
 16 22  1  0
 16 17  2  0
 17 18  1  0
 17 50  1  0
 18 19  2  0
 18 51  1  0
 19 20  1  0
 19 21  1  0
 21 22  2  0
 21 52  1  0
 22 53  1  0
 23 24  1  0
 23 54  1  0
 23 55  1  0
 24 28  1  0
 24 25  1  0
 24 56  1  6
 25 26  1  0
 25 57  1  0
 25 58  1  0
 26 27  1  0
 26 59  1  0
 26 60  1  0
 27 28  1  0
 27 61  1  1
 28 29  1  0
 28 73  1  6
 29 62  1  0
 29 63  1  0
 29 64  1  0
 30 31  2  0
 32 36  1  0
 32 33  1  0
 32 65  1  1
 33 34  1  0
 33 66  1  0
 33 67  1  0
 34 35  1  0
 34 68  1  0
 34 69  1  0
 35 36  1  0
 35 70  1  0
 35 71  1  0
 36 72  1  6
M  CHG  1  28   1
M  END
>  <i_m_ct_stereo_status>  (265) 
1

>  <s_m_source_file>  (265) 
/var/tmp/pbs.5076255.sched01/tmprae_yccg/80g5h6lheg.sdf

>  <i_m_source_file_index>  (265) 
38

>  <i_lp_mmshare_version>  (265) 
48012

>  <i_f3d_flags>  (265) 
0

>  <s_epik_input>  (265) 
W0NIMl0xW0NIMl1bQ0gyXVtDQEBIXShbQ0BASF0xMilOKFtDSDNdKVtDSDJdW0NAQEhdKFtPSF0pW0NASF0ybjNbY0hdYyhubjMpW0NIMl1PQyg9TylbQ0BASF0oW0NAQEhdKFtDSDJdW0NIMl00KU41W0NIM10pW0NASF0oW0NIMl1bQ0BIXTQ1KWM2W2NIXVtjSF1jKENsKVtjSF1bY0hdNg==

>  <s_epik_cmdline>  (265) 
J2VwaWtfcHl0aG9uJywgJy1waHQnLCAnMi4wJywgJy1waCcsICc3LjAnLCAnLXRuJywgJzgnLCAnLW1hJywgJzIwMCcsICctaW1hZScsICc8aW5maWxlLm1hZT4nLCAnLW9tYWUnLCAnPG91dGZpbGUubWFlPic=

>  <r_epik_Ionization_Penalty>  (265) 
2.37423

>  <r_epik_Ionization_Penalty_Charging>  (265) 
0.0182098

>  <r_epik_Ionization_Penalty_Neutral>  (265) 
2.35602

>  <r_epik_State_Penalty>  (265) 
2.52518

>  <r_epik_Charging_Adjusted_Penalty>  (265) 
2.54339

>  <i_epik_Tot_Q>  (265) 
1

>  <i_epik_Tot_abs_Q>  (265) 
1

>  <s_epik_Chemistry_Notes>  (265) 
This compound has an ester and may undergo hydrolysis at high or low pH.

>  <s_lp_Force_Field>  (265) 
OPLS3e

>  <r_lp_Energy>  (265) 
53.5418

>  <b_lp_Chiralities_Consistent>  (265) 
1

>  <s_lp_Variant>  (265) 
85:0-3

>  <s_i_glide_gridfile>  (265) 
pfpi4k_grid

>  <i_i_glide_lignum>  (265) 
38

>  <i_i_glide_rotatable_bonds>  (265) 
7

>  <r_i_docking_score>  (265) 
-2.83769

>  <r_i_glide_ligand_efficiency>  (265) 
-0.0788246

>  <r_i_glide_ligand_efficiency_sa>  (265) 
-0.260273

>  <r_i_glide_ligand_efficiency_ln>  (265) 
-0.619106

>  <r_i_glide_gscore>  (265) 
-2.83769

>  <r_i_glide_lipo>  (265) 
-0.203128

>  <r_i_glide_hbond>  (265) 
-0.19218

>  <r_i_glide_metal>  (265) 
-0

>  <r_i_glide_rewards>  (265) 
0

>  <r_i_glide_evdw>  (265) 
-31.544

>  <r_i_glide_ecoul>  (265) 
-8.55639

>  <r_i_glide_erotb>  (265) 
0.464014

>  <r_i_glide_esite>  (265) 
-0.0457352

>  <r_i_glide_emodel>  (265) 
-45.9628

>  <r_i_glide_energy>  (265) 
-40.1004

>  <r_i_glide_einternal>  (265) 
3.92466

>  <r_i_glide_intrahb_reward>  (265) 
-0

>  <i_i_glide_confnum>  (265) 
3

>  <i_i_glide_posenum>  (265) 
24

>  <r_i_glide_eff_state_penalty>  (265) 
0

>  <ligand_id>  (265) 
85

>  <original_smiles>  (265) 
CN1CC(O)C(n2cc(COC(=O)C3C(c4ccc(Cl)cc4)CC4CCC3N4C)nn2)C2CCCC21

>  <smiles>  (265) 
[H]OC1([H])C([H])([H])N(C([H])([H])[H])C2([H])C([H])([H])C([H])([H])C([H])([H])C2([H])C1([H])n1nnc(C([H])([H])OC(=O)C2([H])C([H])(c3c([H])c([H])c(Cl)c([H])c3[H])C([H])([H])C3([H])C([H])([H])C([H])([H])C2([H])[N+]3([H])C([H])([H])[H])c1[H]

$$$$
86:0:0
     RDKit          3D

 39 43  0  0  1  0  0  0  0  0999 V2000
    2.6255    5.2480    3.3912 O   0  0  0  0  0  0  0  0  0  0  0  0
    1.7054    4.4696    3.6135 C   0  0  0  0  0  0  0  0  0  0  0  0
    0.4609    4.7754    4.0875 O   0  0  0  0  0  0  0  0  0  0  0  0
   -0.3650    3.6205    4.2115 C   0  0  0  0  0  0  0  0  0  0  0  0
   -1.5754    3.6885    3.2869 C   0  0  0  0  0  0  0  0  0  0  0  0
   -2.6218    2.8222    3.9777 C   0  0  0  0  0  0  0  0  0  0  0  0
   -2.3512    2.9127    5.4886 C   0  0  0  0  0  0  0  0  0  0  0  0
   -0.9651    3.5361    5.6360 C   0  0  0  0  0  0  0  0  0  0  0  0
    0.5987    2.5184    3.8233 C   0  0  0  0  0  0  0  0  0  0  0  0
    1.7544    3.0438    3.4441 C   0  0  0  0  0  0  0  0  0  0  0  0
    2.7390    2.2859    2.8618 N   0  0  0  0  0  0  0  0  0  0  0  0
    2.5083    0.9648    2.4883 C   0  0  0  0  0  0  0  0  0  0  0  0
    3.3127    0.1803    1.7775 N   0  0  0  0  0  0  0  0  0  0  0  0
    2.4991   -0.9163    1.6852 C   0  0  0  0  0  0  0  0  0  0  0  0
    1.3278   -0.8496    2.3451 N   0  0  0  0  0  0  0  0  0  0  0  0
    1.3650    0.3947    2.8643 N   0  0  0  0  0  0  0  0  0  0  0  0
    0.3151    1.0049    3.6817 C   0  0  1  0  0  0  0  0  0  0  0  0
    0.2707    0.2931    5.0374 C   0  0  0  0  0  0  0  0  0  0  0  0
    0.9678    0.8428    6.1424 C   0  0  0  0  0  0  0  0  0  0  0  0
    0.9192    0.2371    7.4082 C   0  0  0  0  0  0  0  0  0  0  0  0
    0.2196   -0.9720    7.5755 C   0  0  0  0  0  0  0  0  0  0  0  0
    0.1776   -1.5630    8.7991 F   0  0  0  0  0  0  0  0  0  0  0  0
   -0.4461   -1.5577    6.4725 C   0  0  0  0  0  0  0  0  0  0  0  0
   -0.4344   -0.9252    5.2061 C   0  0  0  0  0  0  0  0  0  0  0  0
   -1.3438    3.3431    2.2810 H   0  0  0  0  0  0  0  0  0  0  0  0
   -1.9084    4.7241    3.2274 H   0  0  0  0  0  0  0  0  0  0  0  0
   -3.6343    3.1104    3.6941 H   0  0  0  0  0  0  0  0  0  0  0  0
   -2.5089    1.7834    3.6691 H   0  0  0  0  0  0  0  0  0  0  0  0
   -3.1129    3.5225    5.9771 H   0  0  0  0  0  0  0  0  0  0  0  0
   -2.3716    1.9242    5.9469 H   0  0  0  0  0  0  0  0  0  0  0  0
   -1.1031    4.5507    5.9952 H   0  0  0  0  0  0  0  0  0  0  0  0
   -0.3474    3.0724    6.3993 H   0  0  0  0  0  0  0  0  0  0  0  0
    3.5847    2.7221    2.5283 H   0  0  0  0  0  0  0  0  0  0  0  0
    2.7806   -1.7938    1.1005 H   0  0  0  0  0  0  0  0  0  0  0  0
   -0.6215    0.8144    3.1459 H   0  0  0  0  0  0  0  0  0  0  0  0
    1.5181    1.7702    6.0505 H   0  0  0  0  0  0  0  0  0  0  0  0
    1.4217    0.7130    8.2429 H   0  0  0  0  0  0  0  0  0  0  0  0
   -0.9760   -2.4923    6.6072 H   0  0  0  0  0  0  0  0  0  0  0  0
   -0.9505   -1.3856    4.3704 H   0  0  0  0  0  0  0  0  0  0  0  0
  1  2  2  0
  2 10  1  0
  2  3  1  0
  3  4  1  0
  4  8  1  0
  4  5  1  0
  4  9  1  0
  5  6  1  0
  5 25  1  0
  5 26  1  0
  6  7  1  0
  6 27  1  0
  6 28  1  0
  7  8  1  0
  7 29  1  0
  7 30  1  0
  8 31  1  0
  8 32  1  0
  9 17  1  0
  9 10  2  0
 10 11  1  0
 11 12  1  0
 11 33  1  0
 12 16  1  0
 12 13  2  0
 13 14  1  0
 14 15  2  0
 14 34  1  0
 15 16  1  0
 16 17  1  0
 17 18  1  0
 17 35  1  6
 18 24  1  0
 18 19  2  0
 19 20  1  0
 19 36  1  0
 20 21  2  0
 20 37  1  0
 21 22  1  0
 21 23  1  0
 23 24  2  0
 23 38  1  0
 24 39  1  0
M  END
>  <i_m_ct_stereo_status>  (266) 
1

>  <s_m_source_file>  (266) 
/var/tmp/pbs.5076255.sched01/tmprae_yccg/80g5h6lheg.sdf

>  <i_m_source_file_index>  (266) 
39

>  <i_lp_mmshare_version>  (266) 
48012

>  <i_f3d_flags>  (266) 
0

>  <s_epik_input>  (266) 
W0NIMl0xW0NIMl1bQ0gyXVtDSDJdQzEyW0NAQEhdM0MoQyg9TylPMik9TmM0bihuW2NIXW40KVtDQEhdM2M1W2NIXVtjSF1jKEYpW2NIXVtjSF01

>  <s_epik_cmdline>  (266) 
J2VwaWtfcHl0aG9uJywgJy1waHQnLCAnMi4wJywgJy1waCcsICc3LjAnLCAnLXRuJywgJzgnLCAnLW1hJywgJzIwMCcsICctaW1hZScsICc8aW5maWxlLm1hZT4nLCAnLW9tYWUnLCAnPG91dGZpbGUubWFlPic=

>  <r_lp_tautomer_probability>  (266) 
0.999992

>  <r_epik_Ionization_Penalty>  (266) 
0.000737611

>  <r_epik_Ionization_Penalty_Charging>  (266) 
3.94675e-16

>  <r_epik_Ionization_Penalty_Neutral>  (266) 
0.000737611

>  <r_epik_State_Penalty>  (266) 
0.000471065

>  <r_epik_Charging_Adjusted_Penalty>  (266) 
0.000471065

>  <i_epik_Tot_Q>  (266) 
0

>  <i_epik_Tot_abs_Q>  (266) 
0

>  <s_epik_Chemistry_Notes>  (266) 
This compound has an ester and may undergo hydrolysis at high or low pH. This compound has an imine and may undergo hydrolysis.

>  <s_lp_Force_Field>  (266) 
OPLS3e

>  <r_lp_Energy>  (266) 
28.7858

>  <b_lp_Chiralities_Consistent>  (266) 
1

>  <s_lp_Variant>  (266) 
86:0-1

>  <s_i_glide_gridfile>  (266) 
pfpi4k_grid

>  <i_i_glide_lignum>  (266) 
39

>  <i_i_glide_rotatable_bonds>  (266) 
1

>  <r_i_docking_score>  (266) 
-3.29649

>  <r_i_glide_ligand_efficiency>  (266) 
-0.137354

>  <r_i_glide_ligand_efficiency_sa>  (266) 
-0.396197

>  <r_i_glide_ligand_efficiency_ln>  (266) 
-0.789002

>  <r_i_glide_gscore>  (266) 
-3.29649

>  <r_i_glide_lipo>  (266) 
-0.0115805

>  <r_i_glide_hbond>  (266) 
-0.32

>  <r_i_glide_metal>  (266) 
-0

>  <r_i_glide_rewards>  (266) 
-1.19777

>  <r_i_glide_evdw>  (266) 
-23.9516

>  <r_i_glide_ecoul>  (266) 
-3.37975

>  <r_i_glide_erotb>  (266) 
0.176106

>  <r_i_glide_esite>  (266) 
-0.238701

>  <r_i_glide_emodel>  (266) 
-32.1694

>  <r_i_glide_energy>  (266) 
-27.3313

>  <r_i_glide_einternal>  (266) 
1.12984

>  <r_i_glide_intrahb_reward>  (266) 
-0

>  <i_i_glide_confnum>  (266) 
5

>  <i_i_glide_posenum>  (266) 
38

>  <r_i_glide_eff_state_penalty>  (266) 
0

>  <ligand_id>  (266) 
86

>  <original_smiles>  (266) 
O=C1OC2(CCCC2)C2C1=Nc1ncnn1C2c1ccc(F)cc1

>  <smiles>  (266) 
[H]c1nc2n(n1)C([H])(c1c([H])c([H])c(F)c([H])c1[H])C1=C(C(=O)OC13C([H])([H])C([H])([H])C([H])([H])C3([H])[H])N2[H]

$$$$
86:0:1
     RDKit          3D

 39 43  0  0  1  0  0  0  0  0999 V2000
    8.5343   -3.1542   -1.0687 O   0  0  0  0  0  0  0  0  0  0  0  0
    7.3070   -3.0508   -0.9961 C   0  0  0  0  0  0  0  0  0  0  0  0
    6.4768   -2.4543   -1.9123 O   0  0  0  0  0  0  0  0  0  0  0  0
    5.0932   -2.5362   -1.5130 C   0  0  0  0  0  0  0  0  0  0  0  0
    4.2924   -3.3467   -2.5354 C   0  0  0  0  0  0  0  0  0  0  0  0
    3.3558   -2.3500   -3.2286 C   0  0  0  0  0  0  0  0  0  0  0  0
    3.8468   -0.9475   -2.8587 C   0  0  0  0  0  0  0  0  0  0  0  0
    4.4800   -1.1258   -1.4930 C   0  0  0  0  0  0  0  0  0  0  0  0
    5.2037   -3.2317   -0.1799 C   0  0  0  0  0  0  0  0  0  0  0  0
    6.4610   -3.5380    0.0765 C   0  0  0  0  0  0  0  0  0  0  0  0
    6.8538   -4.3192    1.1510 N   0  0  0  0  0  0  0  0  0  0  0  0
    5.8838   -4.9378    1.9247 C   0  0  0  0  0  0  0  0  0  0  0  0
    6.0624   -5.8599    2.8703 N   0  0  0  0  0  0  0  0  0  0  0  0
    4.7560   -6.1430    3.1571 C   0  0  0  0  0  0  0  0  0  0  0  0
    3.8379   -5.4395    2.4832 N   0  0  0  0  0  0  0  0  0  0  0  0
    4.6053   -4.6550    1.6962 N   0  0  0  0  0  0  0  0  0  0  0  0
    4.0759   -3.6531    0.7630 C   0  0  1  0  0  0  0  0  0  0  0  0
    3.5031   -2.4803    1.5513 C   0  0  0  0  0  0  0  0  0  0  0  0
    4.2260   -1.2685    1.6857 C   0  0  0  0  0  0  0  0  0  0  0  0
    3.6596   -0.1585    2.3355 C   0  0  0  0  0  0  0  0  0  0  0  0
    2.3879   -0.2555    2.9279 C   0  0  0  0  0  0  0  0  0  0  0  0
    1.8746    0.8136    3.5935 F   0  0  0  0  0  0  0  0  0  0  0  0
    1.6768   -1.4750    2.8443 C   0  0  0  0  0  0  0  0  0  0  0  0
    2.2306   -2.5809    2.1518 C   0  0  0  0  0  0  0  0  0  0  0  0
    3.6803   -4.1106   -2.0543 H   0  0  0  0  0  0  0  0  0  0  0  0
    4.9571   -3.8695   -3.2288 H   0  0  0  0  0  0  0  0  0  0  0  0
    3.3160   -2.5110   -4.3070 H   0  0  0  0  0  0  0  0  0  0  0  0
    2.3456   -2.4770   -2.8254 H   0  0  0  0  0  0  0  0  0  0  0  0
    4.6050   -0.6179   -3.5642 H   0  0  0  0  0  0  0  0  0  0  0  0
    3.0347   -0.2127   -2.8393 H   0  0  0  0  0  0  0  0  0  0  0  0
    5.1949   -0.3464   -1.2254 H   0  0  0  0  0  0  0  0  0  0  0  0
    3.6303   -1.0519   -0.8275 H   0  0  0  0  0  0  0  0  0  0  0  0
    7.8249   -4.5961    1.2750 H   0  0  0  0  0  0  0  0  0  0  0  0
    4.4839   -6.8952    3.8858 H   0  0  0  0  0  0  0  0  0  0  0  0
    3.2968   -4.1317    0.1827 H   0  0  0  0  0  0  0  0  0  0  0  0
    5.1894   -1.1298    1.2236 H   0  0  0  0  0  0  0  0  0  0  0  0
    4.2009    0.7757    2.3489 H   0  0  0  0  0  0  0  0  0  0  0  0
    0.7032   -1.5455    3.3138 H   0  0  0  0  0  0  0  0  0  0  0  0
    1.6580   -3.4982    2.0834 H   0  0  0  0  0  0  0  0  0  0  0  0
  1  2  2  0
  2 10  1  0
  2  3  1  0
  3  4  1  0
  4  8  1  0
  4  5  1  0
  4  9  1  0
  5  6  1  0
  5 25  1  0
  5 26  1  0
  6  7  1  0
  6 27  1  0
  6 28  1  0
  7  8  1  0
  7 29  1  0
  7 30  1  0
  8 31  1  0
  8 32  1  0
  9 17  1  0
  9 10  2  0
 10 11  1  0
 11 12  1  0
 11 33  1  0
 12 16  1  0
 12 13  2  0
 13 14  1  0
 14 15  2  0
 14 34  1  0
 15 16  1  0
 16 17  1  0
 17 18  1  0
 17 35  1  6
 18 24  1  0
 18 19  2  0
 19 20  1  0
 19 36  1  0
 20 21  2  0
 20 37  1  0
 21 22  1  0
 21 23  1  0
 23 24  2  0
 23 38  1  0
 24 39  1  0
M  END
>  <i_m_ct_stereo_status>  (267) 
1

>  <s_m_source_file>  (267) 
/var/tmp/pbs.5076255.sched01/tmprae_yccg/80g5h6lheg.sdf

>  <i_m_source_file_index>  (267) 
39

>  <i_lp_mmshare_version>  (267) 
48012

>  <i_f3d_flags>  (267) 
0

>  <s_epik_input>  (267) 
W0NIMl0xW0NIMl1bQ0gyXVtDSDJdQzEyW0NAQEhdM0MoQyg9TylPMik9TmM0bihuW2NIXW40KVtDQEhdM2M1W2NIXVtjSF1jKEYpW2NIXVtjSF01

>  <s_epik_cmdline>  (267) 
J2VwaWtfcHl0aG9uJywgJy1waHQnLCAnMi4wJywgJy1waCcsICc3LjAnLCAnLXRuJywgJzgnLCAnLW1hJywgJzIwMCcsICctaW1hZScsICc8aW5maWxlLm1hZT4nLCAnLW9tYWUnLCAnPG91dGZpbGUubWFlPic=

>  <r_lp_tautomer_probability>  (267) 
0.999992

>  <r_epik_Ionization_Penalty>  (267) 
0.000737611

>  <r_epik_Ionization_Penalty_Charging>  (267) 
3.94675e-16

>  <r_epik_Ionization_Penalty_Neutral>  (267) 
0.000737611

>  <r_epik_State_Penalty>  (267) 
0.000471065

>  <r_epik_Charging_Adjusted_Penalty>  (267) 
0.000471065

>  <i_epik_Tot_Q>  (267) 
0

>  <i_epik_Tot_abs_Q>  (267) 
0

>  <s_epik_Chemistry_Notes>  (267) 
This compound has an ester and may undergo hydrolysis at high or low pH. This compound has an imine and may undergo hydrolysis.

>  <s_lp_Force_Field>  (267) 
OPLS3e

>  <r_lp_Energy>  (267) 
28.7858

>  <b_lp_Chiralities_Consistent>  (267) 
1

>  <s_lp_Variant>  (267) 
86:0-1

>  <s_i_glide_gridfile>  (267) 
pfpi4k_grid

>  <i_i_glide_lignum>  (267) 
39

>  <i_i_glide_rotatable_bonds>  (267) 
1

>  <r_i_docking_score>  (267) 
-3.23923

>  <r_i_glide_ligand_efficiency>  (267) 
-0.134968

>  <r_i_glide_ligand_efficiency_sa>  (267) 
-0.389315

>  <r_i_glide_ligand_efficiency_ln>  (267) 
-0.775297

>  <r_i_glide_gscore>  (267) 
-3.23923

>  <r_i_glide_lipo>  (267) 
-0.322573

>  <r_i_glide_hbond>  (267) 
-0.0731767

>  <r_i_glide_metal>  (267) 
-0

>  <r_i_glide_rewards>  (267) 
-1.31227

>  <r_i_glide_evdw>  (267) 
-29.1311

>  <r_i_glide_ecoul>  (267) 
-1.63091

>  <r_i_glide_erotb>  (267) 
0.176106

>  <r_i_glide_esite>  (267) 
-0.00612664

>  <r_i_glide_emodel>  (267) 
-35.1965

>  <r_i_glide_energy>  (267) 
-30.762

>  <r_i_glide_einternal>  (267) 
1.76108

>  <r_i_glide_intrahb_reward>  (267) 
-0

>  <i_i_glide_confnum>  (267) 
3

>  <i_i_glide_posenum>  (267) 
11

>  <r_i_glide_eff_state_penalty>  (267) 
0

>  <ligand_id>  (267) 
86

>  <original_smiles>  (267) 
O=C1OC2(CCCC2)C2C1=Nc1ncnn1C2c1ccc(F)cc1

>  <smiles>  (267) 
[H]c1nc2n(n1)C([H])(c1c([H])c([H])c(F)c([H])c1[H])C1=C(C(=O)OC13C([H])([H])C([H])([H])C([H])([H])C3([H])[H])N2[H]

$$$$
86:0:2
     RDKit          3D

 39 43  0  0  1  0  0  0  0  0999 V2000
    8.6766   -3.6906   -0.7094 O   0  0  0  0  0  0  0  0  0  0  0  0
    7.4770   -3.4359   -0.6152 C   0  0  0  0  0  0  0  0  0  0  0  0
    6.6986   -2.7769   -1.5239 O   0  0  0  0  0  0  0  0  0  0  0  0
    5.3267   -2.7017   -1.1032 C   0  0  0  0  0  0  0  0  0  0  0  0
    4.4246   -3.4564   -2.0955 C   0  0  0  0  0  0  0  0  0  0  0  0
    3.5938   -2.3879   -2.8106 C   0  0  0  0  0  0  0  0  0  0  0  0
    4.2355   -1.0419   -2.4721 C   0  0  0  0  0  0  0  0  0  0  0  0
    4.8663   -1.2384   -1.0988 C   0  0  0  0  0  0  0  0  0  0  0  0
    5.3806   -3.3542    0.2491 C   0  0  0  0  0  0  0  0  0  0  0  0
    6.6081   -3.8014    0.4834 C   0  0  0  0  0  0  0  0  0  0  0  0
    6.9214   -4.6193    1.5506 N   0  0  0  0  0  0  0  0  0  0  0  0
    5.8960   -5.1169    2.3526 C   0  0  0  0  0  0  0  0  0  0  0  0
    6.0003   -6.0081    3.3256 N   0  0  0  0  0  0  0  0  0  0  0  0
    4.6754   -6.1539    3.6288 C   0  0  0  0  0  0  0  0  0  0  0  0
    3.8164   -5.3872    2.9413 N   0  0  0  0  0  0  0  0  0  0  0  0
    4.6433   -4.7018    2.1250 N   0  0  0  0  0  0  0  0  0  0  0  0
    4.2061   -3.6707    1.1780 C   0  0  1  0  0  0  0  0  0  0  0  0
    3.7562   -2.4235    1.9273 C   0  0  0  0  0  0  0  0  0  0  0  0
    2.4884   -1.8444    1.6833 C   0  0  0  0  0  0  0  0  0  0  0  0
    2.1069   -0.6631    2.3553 C   0  0  0  0  0  0  0  0  0  0  0  0
    2.9856   -0.0601    3.2802 C   0  0  0  0  0  0  0  0  0  0  0  0
    2.6142    1.0651    3.9448 F   0  0  0  0  0  0  0  0  0  0  0  0
    4.2488   -0.6371    3.5239 C   0  0  0  0  0  0  0  0  0  0  0  0
    4.6337   -1.8097    2.8478 C   0  0  0  0  0  0  0  0  0  0  0  0
    3.7513   -4.1458   -1.5886 H   0  0  0  0  0  0  0  0  0  0  0  0
    5.0144   -4.0567   -2.7903 H   0  0  0  0  0  0  0  0  0  0  0  0
    3.5269   -2.5678   -3.8849 H   0  0  0  0  0  0  0  0  0  0  0  0
    2.5790   -2.3934   -2.4056 H   0  0  0  0  0  0  0  0  0  0  0  0
    5.0039   -0.7993   -3.2036 H   0  0  0  0  0  0  0  0  0  0  0  0
    3.4996   -0.2422   -2.4772 H   0  0  0  0  0  0  0  0  0  0  0  0
    5.6714   -0.5367   -0.8798 H   0  0  0  0  0  0  0  0  0  0  0  0
    4.0944   -1.0759   -0.3570 H   0  0  0  0  0  0  0  0  0  0  0  0
    7.8531   -4.9923    1.6575 H   0  0  0  0  0  0  0  0  0  0  0  0
    4.3356   -6.8549    4.3831 H   0  0  0  0  0  0  0  0  0  0  0  0
    3.3635   -4.0842    0.6225 H   0  0  0  0  0  0  0  0  0  0  0  0
    1.8186   -2.2679    0.9480 H   0  0  0  0  0  0  0  0  0  0  0  0
    1.1448   -0.2100    2.1516 H   0  0  0  0  0  0  0  0  0  0  0  0
    4.9243   -0.1817    4.2344 H   0  0  0  0  0  0  0  0  0  0  0  0
    5.6108   -2.2384    3.0297 H   0  0  0  0  0  0  0  0  0  0  0  0
  1  2  2  0
  2 10  1  0
  2  3  1  0
  3  4  1  0
  4  8  1  0
  4  5  1  0
  4  9  1  0
  5  6  1  0
  5 25  1  0
  5 26  1  0
  6  7  1  0
  6 27  1  0
  6 28  1  0
  7  8  1  0
  7 29  1  0
  7 30  1  0
  8 31  1  0
  8 32  1  0
  9 17  1  0
  9 10  2  0
 10 11  1  0
 11 12  1  0
 11 33  1  0
 12 16  1  0
 12 13  2  0
 13 14  1  0
 14 15  2  0
 14 34  1  0
 15 16  1  0
 16 17  1  0
 17 18  1  0
 17 35  1  6
 18 24  1  0
 18 19  2  0
 19 20  1  0
 19 36  1  0
 20 21  2  0
 20 37  1  0
 21 22  1  0
 21 23  1  0
 23 24  2  0
 23 38  1  0
 24 39  1  0
M  END
>  <i_m_ct_stereo_status>  (268) 
1

>  <s_m_source_file>  (268) 
/var/tmp/pbs.5076255.sched01/tmprae_yccg/80g5h6lheg.sdf

>  <i_m_source_file_index>  (268) 
39

>  <i_lp_mmshare_version>  (268) 
48012

>  <i_f3d_flags>  (268) 
0

>  <s_epik_input>  (268) 
W0NIMl0xW0NIMl1bQ0gyXVtDSDJdQzEyW0NAQEhdM0MoQyg9TylPMik9TmM0bihuW2NIXW40KVtDQEhdM2M1W2NIXVtjSF1jKEYpW2NIXVtjSF01

>  <s_epik_cmdline>  (268) 
J2VwaWtfcHl0aG9uJywgJy1waHQnLCAnMi4wJywgJy1waCcsICc3LjAnLCAnLXRuJywgJzgnLCAnLW1hJywgJzIwMCcsICctaW1hZScsICc8aW5maWxlLm1hZT4nLCAnLW9tYWUnLCAnPG91dGZpbGUubWFlPic=

>  <r_lp_tautomer_probability>  (268) 
0.999992

>  <r_epik_Ionization_Penalty>  (268) 
0.000737611

>  <r_epik_Ionization_Penalty_Charging>  (268) 
3.94675e-16

>  <r_epik_Ionization_Penalty_Neutral>  (268) 
0.000737611

>  <r_epik_State_Penalty>  (268) 
0.000471065

>  <r_epik_Charging_Adjusted_Penalty>  (268) 
0.000471065

>  <i_epik_Tot_Q>  (268) 
0

>  <i_epik_Tot_abs_Q>  (268) 
0

>  <s_epik_Chemistry_Notes>  (268) 
This compound has an ester and may undergo hydrolysis at high or low pH. This compound has an imine and may undergo hydrolysis.

>  <s_lp_Force_Field>  (268) 
OPLS3e

>  <r_lp_Energy>  (268) 
28.7858

>  <b_lp_Chiralities_Consistent>  (268) 
1

>  <s_lp_Variant>  (268) 
86:0-1

>  <s_i_glide_gridfile>  (268) 
pfpi4k_grid

>  <i_i_glide_lignum>  (268) 
39

>  <i_i_glide_rotatable_bonds>  (268) 
1

>  <r_i_docking_score>  (268) 
-3.21815

>  <r_i_glide_ligand_efficiency>  (268) 
-0.134089

>  <r_i_glide_ligand_efficiency_sa>  (268) 
-0.386781

>  <r_i_glide_ligand_efficiency_ln>  (268) 
-0.77025

>  <r_i_glide_gscore>  (268) 
-3.21815

>  <r_i_glide_lipo>  (268) 
-0.27689

>  <r_i_glide_hbond>  (268) 
-0.00773591

>  <r_i_glide_metal>  (268) 
-0

>  <r_i_glide_rewards>  (268) 
-1.48343

>  <r_i_glide_evdw>  (268) 
-27.1342

>  <r_i_glide_ecoul>  (268) 
-1.77127

>  <r_i_glide_erotb>  (268) 
0.176106

>  <r_i_glide_esite>  (268) 
-0.00379726

>  <r_i_glide_emodel>  (268) 
-34.5511

>  <r_i_glide_energy>  (268) 
-28.9055

>  <r_i_glide_einternal>  (268) 
0.0971741

>  <r_i_glide_intrahb_reward>  (268) 
-0

>  <i_i_glide_confnum>  (268) 
4

>  <i_i_glide_posenum>  (268) 
1

>  <r_i_glide_eff_state_penalty>  (268) 
0

>  <ligand_id>  (268) 
86

>  <original_smiles>  (268) 
O=C1OC2(CCCC2)C2C1=Nc1ncnn1C2c1ccc(F)cc1

>  <smiles>  (268) 
[H]c1nc2n(n1)C([H])(c1c([H])c([H])c(F)c([H])c1[H])C1=C(C(=O)OC13C([H])([H])C([H])([H])C([H])([H])C3([H])[H])N2[H]

$$$$
87:0:0
     RDKit          3D

 38 42  0  0  1  0  0  0  0  0999 V2000
   -2.8148    2.5610    7.0277 C   0  0  0  0  0  0  0  0  0  0  0  0
   -2.0497    1.4951    6.4665 O   0  0  0  0  0  0  0  0  0  0  0  0
   -1.0246    1.8835    5.5449 C   0  0  1  0  0  0  0  0  0  0  0  0
   -1.6164    2.5727    4.2465 C   0  0  0  0  0  0  0  0  0  0  0  0
   -0.9432    2.1945    2.8688 C   0  0  0  0  0  0  0  0  0  0  0  0
    0.5941    2.0510    3.0058 C   0  0  2  0  0  0  0  0  0  0  0  0
    1.1852    3.3349    2.8806 O   0  0  0  0  0  0  0  0  0  0  0  0
    1.1628    1.1675    2.0441 O   0  0  0  0  0  0  0  0  0  0  0  0
    1.8315    0.1451    2.6992 C   0  0  0  0  0  0  0  0  0  0  0  0
    2.3752   -1.0734    2.2257 C   0  0  0  0  0  0  0  0  0  0  0  0
    2.6109   -1.2994    0.8938 O   0  0  0  0  0  0  0  0  0  0  0  0
    2.6098   -2.1361    3.1638 C   0  0  0  0  0  0  0  0  0  0  0  0
    2.1546   -2.0500    4.5185 C   0  0  0  0  0  0  0  0  0  0  0  0
    1.6718   -0.8092    4.9940 C   0  0  0  0  0  0  0  0  0  0  0  0
    1.7011    0.2230    4.0648 C   0  0  0  0  0  0  0  0  0  0  0  0
    0.8907    1.3844    4.3900 C   0  0  1  0  0  0  0  0  0  0  0  0
    1.3790    2.3801    5.4746 C   0  0  0  0  0  0  0  0  0  0  0  0
    0.0782    2.7585    6.1981 C   0  0  0  0  0  0  0  0  0  0  0  0
   -0.2783    0.6505    5.0351 C   0  0  1  0  0  0  0  0  0  0  0  0
    0.5020   -0.4075    5.9025 C   0  0  0  0  0  0  0  0  0  0  0  0
   -3.5883    2.1571    7.6794 H   0  0  0  0  0  0  0  0  0  0  0  0
   -3.3254    3.1526    6.2676 H   0  0  0  0  0  0  0  0  0  0  0  0
   -2.2009    3.2193    7.6410 H   0  0  0  0  0  0  0  0  0  0  0  0
   -2.6609    2.2870    4.1445 H   0  0  0  0  0  0  0  0  0  0  0  0
   -1.6210    3.6589    4.3531 H   0  0  0  0  0  0  0  0  0  0  0  0
   -1.3443    1.2451    2.5031 H   0  0  0  0  0  0  0  0  0  0  0  0
   -1.1676    2.9246    2.0940 H   0  0  0  0  0  0  0  0  0  0  0  0
    0.8948    3.7007    2.0223 H   0  0  0  0  0  0  0  0  0  0  0  0
    1.9149   -1.0535    0.2825 H   0  0  0  0  0  0  0  0  0  0  0  0
    3.0136   -3.0636    2.7979 H   0  0  0  0  0  0  0  0  0  0  0  0
    2.1165   -2.9377    5.1376 H   0  0  0  0  0  0  0  0  0  0  0  0
    2.0210    1.8719    6.1878 H   0  0  0  0  0  0  0  0  0  0  0  0
    1.9711    3.2339    5.1348 H   0  0  0  0  0  0  0  0  0  0  0  0
   -0.1287    3.8266    6.1089 H   0  0  0  0  0  0  0  0  0  0  0  0
    0.1708    2.5490    7.2641 H   0  0  0  0  0  0  0  0  0  0  0  0
   -0.8904    0.0874    4.3255 H   0  0  0  0  0  0  0  0  0  0  0  0
   -0.1340   -1.2510    6.1709 H   0  0  0  0  0  0  0  0  0  0  0  0
    0.9194    0.0078    6.8194 H   0  0  0  0  0  0  0  0  0  0  0  0
  1  2  1  0
  1 21  1  0
  1 22  1  0
  1 23  1  0
  3  2  1  1
  3 18  1  0
  3 19  1  0
  3  4  1  0
  4  5  1  0
  4 24  1  0
  4 25  1  0
  5  6  1  0
  5 26  1  0
  5 27  1  0
  6 16  1  0
  6  7  1  1
  6  8  1  0
  7 28  1  0
  8  9  1  0
  9 15  2  0
  9 10  1  0
 10 11  1  0
 10 12  2  0
 11 29  1  0
 12 13  1  0
 12 30  1  0
 13 14  2  0
 13 31  1  0
 14 20  1  0
 14 15  1  0
 15 16  1  0
 16 17  1  1
 16 19  1  0
 17 18  1  0
 17 32  1  0
 17 33  1  0
 18 34  1  0
 18 35  1  0
 19 20  1  0
 19 36  1  6
 20 37  1  0
 20 38  1  0
M  END
>  <i_m_ct_stereo_status>  (269) 
1

>  <s_m_source_file>  (269) 
/var/tmp/pbs.5076255.sched01/tmprae_yccg/80g5h6lheg.sdf

>  <i_m_source_file_index>  (269) 
40

>  <i_lp_mmshare_version>  (269) 
48012

>  <i_f3d_flags>  (269) 
0

>  <s_epik_input>  (269) 
W09IXVtDQEBdMShbQ0BAXTIzNClbQ0gyXVtDSDJdW0NAXShPW0NIM10pKFtDSDJdW0NIMl0zKVtDQEBIXTRbQ0gyXWM1YzJjKE8xKWMoW09IXSlbY0hdW2NIXTU=

>  <s_epik_cmdline>  (269) 
J2VwaWtfcHl0aG9uJywgJy1waHQnLCAnMi4wJywgJy1waCcsICc3LjAnLCAnLXRuJywgJzgnLCAnLW1hJywgJzIwMCcsICctaW1hZScsICc8aW5maWxlLm1hZT4nLCAnLW9tYWUnLCAnPG91dGZpbGUubWFlPic=

>  <r_lp_tautomer_probability>  (269) 
1

>  <r_epik_Ionization_Penalty>  (269) 
0.000558268

>  <r_epik_Ionization_Penalty_Charging>  (269) 
0

>  <r_epik_Ionization_Penalty_Neutral>  (269) 
0.000558268

>  <r_epik_State_Penalty>  (269) 
0.000345276

>  <r_epik_Charging_Adjusted_Penalty>  (269) 
0.000345276

>  <i_epik_Tot_Q>  (269) 
0

>  <i_epik_Tot_abs_Q>  (269) 
0

>  <s_lp_Force_Field>  (269) 
OPLS3e

>  <r_lp_Energy>  (269) 
97.441

>  <b_lp_Chiralities_Consistent>  (269) 
1

>  <s_lp_Variant>  (269) 
87:0-1

>  <s_i_glide_gridfile>  (269) 
pfpi4k_grid

>  <i_i_glide_lignum>  (269) 
40

>  <i_i_glide_rotatable_bonds>  (269) 
3

>  <r_i_docking_score>  (269) 
-3.9685

>  <r_i_glide_ligand_efficiency>  (269) 
-0.198425

>  <r_i_glide_ligand_efficiency_sa>  (269) 
-0.538609

>  <r_i_glide_ligand_efficiency_ln>  (269) 
-0.993185

>  <r_i_glide_gscore>  (269) 
-3.9685

>  <r_i_glide_lipo>  (269) 
-0.172682

>  <r_i_glide_hbond>  (269) 
0

>  <r_i_glide_metal>  (269) 
-0

>  <r_i_glide_rewards>  (269) 
-1.53878

>  <r_i_glide_evdw>  (269) 
-12.4486

>  <r_i_glide_ecoul>  (269) 
-10.4943

>  <r_i_glide_erotb>  (269) 
0

>  <r_i_glide_esite>  (269) 
-0.0604619

>  <r_i_glide_emodel>  (269) 
-28.4233

>  <r_i_glide_energy>  (269) 
-22.9429

>  <r_i_glide_einternal>  (269) 
2.01758

>  <r_i_glide_intrahb_reward>  (269) 
-0

>  <i_i_glide_confnum>  (269) 
1

>  <i_i_glide_posenum>  (269) 
18

>  <r_i_glide_eff_state_penalty>  (269) 
0

>  <ligand_id>  (269) 
87

>  <original_smiles>  (269) 
COC12CCC3(O)Oc4c(O)ccc5c4C3(CC1)C2C5

>  <smiles>  (269) 
[H]Oc1c([H])c([H])c2c3c1OC1(O[H])C([H])([H])C([H])([H])C4(OC([H])([H])[H])C([H])([H])C([H])([H])C31C4([H])C2([H])[H]

$$$$
87:0:1
     RDKit          3D

 38 42  0  0  1  0  0  0  0  0999 V2000
    4.0715   -0.7339   -4.0935 C   0  0  0  0  0  0  0  0  0  0  0  0
    4.0398   -0.5976   -2.6778 O   0  0  0  0  0  0  0  0  0  0  0  0
    4.1035   -1.7876   -1.8903 C   0  0  1  0  0  0  0  0  0  0  0  0
    3.0181   -2.8609   -2.3187 C   0  0  0  0  0  0  0  0  0  0  0  0
    2.3144   -3.6613   -1.1626 C   0  0  0  0  0  0  0  0  0  0  0  0
    3.3050   -4.0009   -0.0180 C   0  0  2  0  0  0  0  0  0  0  0  0
    3.9796   -5.2079   -0.3091 O   0  0  0  0  0  0  0  0  0  0  0  0
    2.6579   -4.1494    1.2400 O   0  0  0  0  0  0  0  0  0  0  0  0
    3.2489   -3.2737    2.1328 C   0  0  0  0  0  0  0  0  0  0  0  0
    2.8511   -2.8855    3.4295 C   0  0  0  0  0  0  0  0  0  0  0  0
    1.9744   -3.6514    4.1429 O   0  0  0  0  0  0  0  0  0  0  0  0
    3.3305   -1.6463    3.9652 C   0  0  0  0  0  0  0  0  0  0  0  0
    4.0724   -0.7321    3.1602 C   0  0  0  0  0  0  0  0  0  0  0  0
    4.5222   -1.1562    1.8897 C   0  0  0  0  0  0  0  0  0  0  0  0
    4.1946   -2.4640    1.5574 C   0  0  0  0  0  0  0  0  0  0  0  0
    4.2871   -2.7965    0.1518 C   0  0  1  0  0  0  0  0  0  0  0  0
    5.6793   -3.0330   -0.4894 C   0  0  0  0  0  0  0  0  0  0  0  0
    5.5253   -2.4026   -1.8805 C   0  0  0  0  0  0  0  0  0  0  0  0
    3.8124   -1.4758   -0.4203 C   0  0  1  0  0  0  0  0  0  0  0  0
    4.5876   -0.4734    0.5155 C   0  0  0  0  0  0  0  0  0  0  0  0
    3.9720    0.2515   -4.5490 H   0  0  0  0  0  0  0  0  0  0  0  0
    3.2619   -1.3405   -4.4920 H   0  0  0  0  0  0  0  0  0  0  0  0
    5.0093   -1.1675   -4.4229 H   0  0  0  0  0  0  0  0  0  0  0  0
    2.1990   -2.3483   -2.8199 H   0  0  0  0  0  0  0  0  0  0  0  0
    3.4304   -3.5565   -3.0551 H   0  0  0  0  0  0  0  0  0  0  0  0
    1.5232   -3.0549   -0.7389 H   0  0  0  0  0  0  0  0  0  0  0  0
    1.7975   -4.5523   -1.5120 H   0  0  0  0  0  0  0  0  0  0  0  0
    3.5352   -5.6174   -1.0465 H   0  0  0  0  0  0  0  0  0  0  0  0
    1.7465   -4.4596    3.7073 H   0  0  0  0  0  0  0  0  0  0  0  0
    3.0051   -1.3649    4.9525 H   0  0  0  0  0  0  0  0  0  0  0  0
    4.2071    0.2865    3.4895 H   0  0  0  0  0  0  0  0  0  0  0  0
    6.4303   -2.4670    0.0577 H   0  0  0  0  0  0  0  0  0  0  0  0
    6.0588   -4.0558   -0.4952 H   0  0  0  0  0  0  0  0  0  0  0  0
    5.6773   -3.1357   -2.6752 H   0  0  0  0  0  0  0  0  0  0  0  0
    6.2792   -1.6317   -2.0163 H   0  0  0  0  0  0  0  0  0  0  0  0
    2.7557   -1.2869   -0.2570 H   0  0  0  0  0  0  0  0  0  0  0  0
    4.1286    0.5153    0.5266 H   0  0  0  0  0  0  0  0  0  0  0  0
    5.6384   -0.3534    0.2451 H   0  0  0  0  0  0  0  0  0  0  0  0
  1  2  1  0
  1 21  1  0
  1 22  1  0
  1 23  1  0
  3  2  1  6
  3 18  1  0
  3 19  1  0
  3  4  1  0
  4  5  1  0
  4 24  1  0
  4 25  1  0
  5  6  1  0
  5 26  1  0
  5 27  1  0
  6 16  1  0
  6  7  1  6
  6  8  1  0
  7 28  1  0
  8  9  1  0
  9 15  2  0
  9 10  1  0
 10 11  1  0
 10 12  2  0
 11 29  1  0
 12 13  1  0
 12 30  1  0
 13 14  2  0
 13 31  1  0
 14 20  1  0
 14 15  1  0
 15 16  1  0
 16 17  1  6
 16 19  1  0
 17 18  1  0
 17 32  1  0
 17 33  1  0
 18 34  1  0
 18 35  1  0
 19 20  1  0
 19 36  1  6
 20 37  1  0
 20 38  1  0
M  END
>  <i_m_ct_stereo_status>  (270) 
1

>  <s_m_source_file>  (270) 
/var/tmp/pbs.5076255.sched01/tmprae_yccg/80g5h6lheg.sdf

>  <i_m_source_file_index>  (270) 
40

>  <i_lp_mmshare_version>  (270) 
48012

>  <i_f3d_flags>  (270) 
0

>  <s_epik_input>  (270) 
W09IXVtDQEBdMShbQ0BAXTIzNClbQ0gyXVtDSDJdW0NAXShPW0NIM10pKFtDSDJdW0NIMl0zKVtDQEBIXTRbQ0gyXWM1YzJjKE8xKWMoW09IXSlbY0hdW2NIXTU=

>  <s_epik_cmdline>  (270) 
J2VwaWtfcHl0aG9uJywgJy1waHQnLCAnMi4wJywgJy1waCcsICc3LjAnLCAnLXRuJywgJzgnLCAnLW1hJywgJzIwMCcsICctaW1hZScsICc8aW5maWxlLm1hZT4nLCAnLW9tYWUnLCAnPG91dGZpbGUubWFlPic=

>  <r_lp_tautomer_probability>  (270) 
1

>  <r_epik_Ionization_Penalty>  (270) 
0.000558268

>  <r_epik_Ionization_Penalty_Charging>  (270) 
0

>  <r_epik_Ionization_Penalty_Neutral>  (270) 
0.000558268

>  <r_epik_State_Penalty>  (270) 
0.000345276

>  <r_epik_Charging_Adjusted_Penalty>  (270) 
0.000345276

>  <i_epik_Tot_Q>  (270) 
0

>  <i_epik_Tot_abs_Q>  (270) 
0

>  <s_lp_Force_Field>  (270) 
OPLS3e

>  <r_lp_Energy>  (270) 
97.441

>  <b_lp_Chiralities_Consistent>  (270) 
1

>  <s_lp_Variant>  (270) 
87:0-1

>  <s_i_glide_gridfile>  (270) 
pfpi4k_grid

>  <i_i_glide_lignum>  (270) 
40

>  <i_i_glide_rotatable_bonds>  (270) 
3

>  <r_i_docking_score>  (270) 
-3.49259

>  <r_i_glide_ligand_efficiency>  (270) 
-0.174629

>  <r_i_glide_ligand_efficiency_sa>  (270) 
-0.474017

>  <r_i_glide_ligand_efficiency_ln>  (270) 
-0.874079

>  <r_i_glide_gscore>  (270) 
-3.49259

>  <r_i_glide_lipo>  (270) 
-0.432001

>  <r_i_glide_hbond>  (270) 
0

>  <r_i_glide_metal>  (270) 
-0

>  <r_i_glide_rewards>  (270) 
-1.53878

>  <r_i_glide_evdw>  (270) 
-18.5761

>  <r_i_glide_ecoul>  (270) 
-3.86175

>  <r_i_glide_erotb>  (270) 
0

>  <r_i_glide_esite>  (270) 
-0.0137342

>  <r_i_glide_emodel>  (270) 
-27.0058

>  <r_i_glide_energy>  (270) 
-22.4378

>  <r_i_glide_einternal>  (270) 
1.90658

>  <r_i_glide_intrahb_reward>  (270) 
-0

>  <i_i_glide_confnum>  (270) 
1

>  <i_i_glide_posenum>  (270) 
2

>  <r_i_glide_eff_state_penalty>  (270) 
0

>  <ligand_id>  (270) 
87

>  <original_smiles>  (270) 
COC12CCC3(O)Oc4c(O)ccc5c4C3(CC1)C2C5

>  <smiles>  (270) 
[H]Oc1c([H])c([H])c2c3c1OC1(O[H])C([H])([H])C([H])([H])C4(OC([H])([H])[H])C([H])([H])C([H])([H])C31C4([H])C2([H])[H]

$$$$
87:0:2
     RDKit          3D

 38 42  0  0  1  0  0  0  0  0999 V2000
   -2.2072    2.8648    8.8241 C   0  0  0  0  0  0  0  0  0  0  0  0
   -1.1965    2.2078    8.0607 O   0  0  0  0  0  0  0  0  0  0  0  0
   -0.9302    2.7400    6.7644 C   0  0  1  0  0  0  0  0  0  0  0  0
   -2.1804    2.5745    5.8100 C   0  0  0  0  0  0  0  0  0  0  0  0
   -1.8872    2.1500    4.3185 C   0  0  0  0  0  0  0  0  0  0  0  0
   -0.6054    2.8391    3.7804 C   0  0  2  0  0  0  0  0  0  0  0  0
   -0.9470    4.1158    3.2816 O   0  0  0  0  0  0  0  0  0  0  0  0
    0.0341    2.0882    2.7564 O   0  0  0  0  0  0  0  0  0  0  0  0
    1.3376    1.8393    3.1317 C   0  0  0  0  0  0  0  0  0  0  0  0
    2.3188    0.9745    2.5885 C   0  0  0  0  0  0  0  0  0  0  0  0
    2.2035    0.4899    1.3206 O   0  0  0  0  0  0  0  0  0  0  0  0
    3.4088    0.5431    3.4076 C   0  0  0  0  0  0  0  0  0  0  0  0
    3.4485    0.8315    4.8048 C   0  0  0  0  0  0  0  0  0  0  0  0
    2.4956    1.7444    5.3289 C   0  0  0  0  0  0  0  0  0  0  0  0
    1.6271    2.2794    4.4014 C   0  0  0  0  0  0  0  0  0  0  0  0
    0.4364    2.9074    4.9397 C   0  0  1  0  0  0  0  0  0  0  0  0
    0.5482    4.3088    5.5974 C   0  0  0  0  0  0  0  0  0  0  0  0
   -0.4199    4.2028    6.7851 C   0  0  0  0  0  0  0  0  0  0  0  0
    0.1958    1.9506    6.0977 C   0  0  1  0  0  0  0  0  0  0  0  0
    1.6689    1.7772    6.6234 C   0  0  0  0  0  0  0  0  0  0  0  0
   -2.3195    2.3498    9.7803 H   0  0  0  0  0  0  0  0  0  0  0  0
   -3.1798    2.8406    8.3305 H   0  0  0  0  0  0  0  0  0  0  0  0
   -1.9505    3.9019    9.0423 H   0  0  0  0  0  0  0  0  0  0  0  0
   -2.8073    1.7944    6.2322 H   0  0  0  0  0  0  0  0  0  0  0  0
   -2.7954    3.4757    5.8109 H   0  0  0  0  0  0  0  0  0  0  0  0
   -1.7418    1.0674    4.2592 H   0  0  0  0  0  0  0  0  0  0  0  0
   -2.7239    2.3685    3.6545 H   0  0  0  0  0  0  0  0  0  0  0  0
   -0.5561    4.1811    2.4065 H   0  0  0  0  0  0  0  0  0  0  0  0
    1.3612    0.6243    0.9046 H   0  0  0  0  0  0  0  0  0  0  0  0
    4.1413   -0.1304    2.9800 H   0  0  0  0  0  0  0  0  0  0  0  0
    4.1318    0.3026    5.4526 H   0  0  0  0  0  0  0  0  0  0  0  0
    1.5500    4.4540    5.9926 H   0  0  0  0  0  0  0  0  0  0  0  0
    0.3826    5.1757    4.9526 H   0  0  0  0  0  0  0  0  0  0  0  0
   -1.2332    4.9237    6.7030 H   0  0  0  0  0  0  0  0  0  0  0  0
    0.1058    4.4296    7.7130 H   0  0  0  0  0  0  0  0  0  0  0  0
   -0.1446    0.9595    5.7870 H   0  0  0  0  0  0  0  0  0  0  0  0
    1.7792    0.8746    7.2169 H   0  0  0  0  0  0  0  0  0  0  0  0
    2.0183    2.6191    7.2183 H   0  0  0  0  0  0  0  0  0  0  0  0
  1  2  1  0
  1 21  1  0
  1 22  1  0
  1 23  1  0
  3  2  1  1
  3 18  1  0
  3 19  1  0
  3  4  1  0
  4  5  1  0
  4 24  1  0
  4 25  1  0
  5  6  1  0
  5 26  1  0
  5 27  1  0
  6 16  1  0
  6  7  1  6
  6  8  1  0
  7 28  1  0
  8  9  1  0
  9 15  2  0
  9 10  1  0
 10 11  1  0
 10 12  2  0
 11 29  1  0
 12 13  1  0
 12 30  1  0
 13 14  2  0
 13 31  1  0
 14 20  1  0
 14 15  1  0
 15 16  1  0
 16 17  1  1
 16 19  1  0
 17 18  1  0
 17 32  1  0
 17 33  1  0
 18 34  1  0
 18 35  1  0
 19 20  1  0
 19 36  1  6
 20 37  1  0
 20 38  1  0
M  END
>  <i_m_ct_stereo_status>  (271) 
1

>  <s_m_source_file>  (271) 
/var/tmp/pbs.5076255.sched01/tmprae_yccg/80g5h6lheg.sdf

>  <i_m_source_file_index>  (271) 
40

>  <i_lp_mmshare_version>  (271) 
48012

>  <i_f3d_flags>  (271) 
0

>  <s_epik_input>  (271) 
W09IXVtDQEBdMShbQ0BAXTIzNClbQ0gyXVtDSDJdW0NAXShPW0NIM10pKFtDSDJdW0NIMl0zKVtDQEBIXTRbQ0gyXWM1YzJjKE8xKWMoW09IXSlbY0hdW2NIXTU=

>  <s_epik_cmdline>  (271) 
J2VwaWtfcHl0aG9uJywgJy1waHQnLCAnMi4wJywgJy1waCcsICc3LjAnLCAnLXRuJywgJzgnLCAnLW1hJywgJzIwMCcsICctaW1hZScsICc8aW5maWxlLm1hZT4nLCAnLW9tYWUnLCAnPG91dGZpbGUubWFlPic=

>  <r_lp_tautomer_probability>  (271) 
1

>  <r_epik_Ionization_Penalty>  (271) 
0.000558268

>  <r_epik_Ionization_Penalty_Charging>  (271) 
0

>  <r_epik_Ionization_Penalty_Neutral>  (271) 
0.000558268

>  <r_epik_State_Penalty>  (271) 
0.000345276

>  <r_epik_Charging_Adjusted_Penalty>  (271) 
0.000345276

>  <i_epik_Tot_Q>  (271) 
0

>  <i_epik_Tot_abs_Q>  (271) 
0

>  <s_lp_Force_Field>  (271) 
OPLS3e

>  <r_lp_Energy>  (271) 
97.441

>  <b_lp_Chiralities_Consistent>  (271) 
1

>  <s_lp_Variant>  (271) 
87:0-1

>  <s_i_glide_gridfile>  (271) 
pfpi4k_grid

>  <i_i_glide_lignum>  (271) 
40

>  <i_i_glide_rotatable_bonds>  (271) 
3

>  <r_i_docking_score>  (271) 
-3.08345

>  <r_i_glide_ligand_efficiency>  (271) 
-0.154173

>  <r_i_glide_ligand_efficiency_sa>  (271) 
-0.418489

>  <r_i_glide_ligand_efficiency_ln>  (271) 
-0.771687

>  <r_i_glide_gscore>  (271) 
-3.08345

>  <r_i_glide_lipo>  (271) 
-0.0635217

>  <r_i_glide_hbond>  (271) 
0

>  <r_i_glide_metal>  (271) 
-0

>  <r_i_glide_rewards>  (271) 
-1.53878

>  <r_i_glide_evdw>  (271) 
-14.4711

>  <r_i_glide_ecoul>  (271) 
-4.70557

>  <r_i_glide_erotb>  (271) 
0

>  <r_i_glide_esite>  (271) 
-0.0517544

>  <r_i_glide_emodel>  (271) 
-23.4694

>  <r_i_glide_energy>  (271) 
-19.1767

>  <r_i_glide_einternal>  (271) 
2.15976

>  <r_i_glide_intrahb_reward>  (271) 
-0

>  <i_i_glide_confnum>  (271) 
2

>  <i_i_glide_posenum>  (271) 
24

>  <r_i_glide_eff_state_penalty>  (271) 
0

>  <ligand_id>  (271) 
87

>  <original_smiles>  (271) 
COC12CCC3(O)Oc4c(O)ccc5c4C3(CC1)C2C5

>  <smiles>  (271) 
[H]Oc1c([H])c([H])c2c3c1OC1(O[H])C([H])([H])C([H])([H])C4(OC([H])([H])[H])C([H])([H])C([H])([H])C31C4([H])C2([H])[H]

$$$$
89:0:0
     RDKit          3D

 28 30  0  0  1  0  0  0  0  0999 V2000
    5.8454   -4.8671    1.6544 O   0  0  0  0  0  0  0  0  0  0  0  0
    4.6809   -4.5948    1.2753 C   0  0  0  0  0  0  0  0  0  0  0  0
    3.6687   -4.6312    2.0152 O   0  0  0  0  0  0  0  0  0  0  0  0
    4.4848   -4.1629   -0.1993 C   0  0  2  0  0  0  0  0  0  0  0  0
    5.7567   -3.5386   -0.8526 C   0  0  2  0  0  0  0  0  0  0  0  0
    6.0957   -2.1815   -0.1899 C   0  0  0  0  0  0  0  0  0  0  0  0
    4.9053   -1.2139   -0.3727 C   0  0  1  0  0  0  0  0  0  0  0  0
    4.6541   -0.9853   -1.8748 C   0  0  0  0  0  0  0  0  0  0  0  0
    4.3347   -2.3259   -2.5561 C   0  0  1  0  0  0  0  0  0  0  0  0
    5.5023   -3.3095   -2.3653 C   0  0  0  0  0  0  0  0  0  0  0  0
    3.0696   -2.9322   -1.9251 C   0  0  0  0  0  0  0  0  0  0  0  0
    3.3023   -3.1673   -0.4083 C   0  0  2  0  0  0  0  0  0  0  0  0
    3.6343   -1.8123    0.2692 C   0  0  0  0  0  0  0  0  0  0  0  0
    4.2498   -5.0861   -0.7249 H   0  0  0  0  0  0  0  0  0  0  0  0
    6.6052   -4.2192   -0.7365 H   0  0  0  0  0  0  0  0  0  0  0  0
    6.3249   -2.3039    0.8719 H   0  0  0  0  0  0  0  0  0  0  0  0
    6.9957   -1.7722   -0.6452 H   0  0  0  0  0  0  0  0  0  0  0  0
    5.1405   -0.2620    0.1067 H   0  0  0  0  0  0  0  0  0  0  0  0
    3.8240   -0.2925   -2.0139 H   0  0  0  0  0  0  0  0  0  0  0  0
    5.5253   -0.5205   -2.3263 H   0  0  0  0  0  0  0  0  0  0  0  0
    4.1658   -2.1578   -3.6170 H   0  0  0  0  0  0  0  0  0  0  0  0
    6.4011   -2.9267   -2.8455 H   0  0  0  0  0  0  0  0  0  0  0  0
    5.2757   -4.2567   -2.8609 H   0  0  0  0  0  0  0  0  0  0  0  0
    2.2225   -2.2592   -2.0710 H   0  0  0  0  0  0  0  0  0  0  0  0
    2.7992   -3.8514   -2.4282 H   0  0  0  0  0  0  0  0  0  0  0  0
    2.3838   -3.5791    0.0127 H   0  0  0  0  0  0  0  0  0  0  0  0
    3.7636   -1.9263    1.3467 H   0  0  0  0  0  0  0  0  0  0  0  0
    2.7978   -1.1261    0.1487 H   0  0  0  0  0  0  0  0  0  0  0  0
  1  2  2  0
  2  3  1  0
  2  4  1  0
  4 12  1  0
  4  5  1  0
  4 14  1  6
  5 10  1  0
  5  6  1  0
  5 15  1  6
  6  7  1  0
  6 16  1  0
  6 17  1  0
  7 13  1  0
  7  8  1  0
  7 18  1  1
  8  9  1  0
  8 19  1  0
  8 20  1  0
  9 10  1  0
  9 11  1  0
  9 21  1  6
 10 22  1  0
 10 23  1  0
 11 12  1  0
 11 24  1  0
 11 25  1  0
 12 13  1  0
 12 26  1  1
 13 27  1  0
 13 28  1  0
M  CHG  1   3  -1
M  END
>  <i_m_ct_stereo_status>  (272) 
1

>  <s_m_source_file>  (272) 
/var/tmp/pbs.5076255.sched01/tmpux3k924y/120tsqzh4i4.sdf

>  <i_m_source_file_index>  (272) 
2

>  <i_lp_mmshare_version>  (272) 
48012

>  <i_f3d_flags>  (272) 
0

>  <s_epik_input>  (272) 
Tz1DKFtPSF0pW0NASF0oW0NAQEhdMTIpW0NASF0zW0NIMl1bQ0BASF0oW0NIMl0yKVtDSDJdW0NAQEhdKFtDSDJdMSlbQ0gyXTM=

>  <s_epik_cmdline>  (272) 
J2VwaWtfcHl0aG9uJywgJy1waHQnLCAnMi4wJywgJy1waCcsICc3LjAnLCAnLXRuJywgJzgnLCAnLW1hJywgJzIwMCcsICctaW1hZScsICc8aW5maWxlLm1hZT4nLCAnLW9tYWUnLCAnPG91dGZpbGUubWFlPic=

>  <r_epik_Ionization_Penalty>  (272) 
0.00375923

>  <r_epik_Ionization_Penalty_Charging>  (272) 
0.00375923

>  <r_epik_Ionization_Penalty_Neutral>  (272) 
0

>  <r_epik_State_Penalty>  (272) 
0.00268024

>  <r_epik_Charging_Adjusted_Penalty>  (272) 
0.00643947

>  <i_epik_Tot_Q>  (272) 
-1

>  <i_epik_Tot_abs_Q>  (272) 
1

>  <s_lp_Force_Field>  (272) 
OPLS3e

>  <r_lp_Energy>  (272) 
0.559721

>  <b_lp_Chiralities_Consistent>  (272) 
1

>  <s_lp_Variant>  (272) 
89:0-1

>  <s_i_glide_gridfile>  (272) 
pfpi4k_grid

>  <i_i_glide_lignum>  (272) 
2

>  <i_i_glide_rotatable_bonds>  (272) 
1

>  <r_i_docking_score>  (272) 
-3.37838

>  <r_i_glide_ligand_efficiency>  (272) 
-0.259876

>  <r_i_glide_ligand_efficiency_sa>  (272) 
-0.611055

>  <r_i_glide_ligand_efficiency_ln>  (272) 
-0.947667

>  <r_i_glide_gscore>  (272) 
-3.37838

>  <r_i_glide_lipo>  (272) 
-0.414469

>  <r_i_glide_hbond>  (272) 
0

>  <r_i_glide_metal>  (272) 
-0

>  <r_i_glide_rewards>  (272) 
-2.22969

>  <r_i_glide_evdw>  (272) 
-17.4557

>  <r_i_glide_ecoul>  (272) 
0.923729

>  <r_i_glide_erotb>  (272) 
0

>  <r_i_glide_esite>  (272) 
0

>  <r_i_glide_emodel>  (272) 
-21.8182

>  <r_i_glide_energy>  (272) 
-16.5319

>  <r_i_glide_einternal>  (272) 
0.0155972

>  <r_i_glide_intrahb_reward>  (272) 
-0

>  <i_i_glide_confnum>  (272) 
1

>  <i_i_glide_posenum>  (272) 
16

>  <r_i_glide_eff_state_penalty>  (272) 
0

>  <ligand_id>  (272) 
89

>  <original_smiles>  (272) 
O=C(O)C1C2CC3CC(C2)CC1C3

>  <smiles>  (272) 
[H]C1([H])C2([H])C([H])([H])C3([H])C([H])([H])C1([H])C([H])([H])C([H])(C2([H])[H])C3([H])C(=O)[O-]

$$$$
89:0:1
     RDKit          3D

 28 30  0  0  1  0  0  0  0  0999 V2000
    3.3034   -2.7196    2.5358 O   0  0  0  0  0  0  0  0  0  0  0  0
    3.9713   -1.8692    1.9171 C   0  0  0  0  0  0  0  0  0  0  0  0
    4.7904   -1.0845    2.4396 O   0  0  0  0  0  0  0  0  0  0  0  0
    3.7799   -1.7897    0.3676 C   0  0  2  0  0  0  0  0  0  0  0  0
    3.3858   -3.1472   -0.2897 C   0  0  2  0  0  0  0  0  0  0  0  0
    4.5603   -4.1520   -0.1735 C   0  0  0  0  0  0  0  0  0  0  0  0
    5.8001   -3.5689   -0.8878 C   0  0  1  0  0  0  0  0  0  0  0  0
    5.4714   -3.3738   -2.3809 C   0  0  0  0  0  0  0  0  0  0  0  0
    4.2975   -2.3873   -2.5158 C   0  0  1  0  0  0  0  0  0  0  0  0
    3.0607   -2.9325   -1.7891 C   0  0  0  0  0  0  0  0  0  0  0  0
    4.6720   -1.0415   -1.8854 C   0  0  0  0  0  0  0  0  0  0  0  0
    5.0200   -1.2277   -0.3890 C   0  0  2  0  0  0  0  0  0  0  0  0
    6.2033   -2.2197   -0.2682 C   0  0  0  0  0  0  0  0  0  0  0  0
    2.9556   -1.0873    0.2298 H   0  0  0  0  0  0  0  0  0  0  0  0
    2.4997   -3.5593    0.2036 H   0  0  0  0  0  0  0  0  0  0  0  0
    4.7961   -4.3709    0.8747 H   0  0  0  0  0  0  0  0  0  0  0  0
    4.2775   -5.0998   -0.6220 H   0  0  0  0  0  0  0  0  0  0  0  0
    6.6341   -4.2574   -0.7704 H   0  0  0  0  0  0  0  0  0  0  0  0
    6.3515   -2.9972   -2.9112 H   0  0  0  0  0  0  0  0  0  0  0  0
    5.2204   -4.3291   -2.8403 H   0  0  0  0  0  0  0  0  0  0  0  0
    4.0596   -2.2476   -3.5713 H   0  0  0  0  0  0  0  0  0  0  0  0
    2.7368   -3.8602   -2.2504 H   0  0  0  0  0  0  0  0  0  0  0  0
    2.2269   -2.2444   -1.9126 H   0  0  0  0  0  0  0  0  0  0  0  0
    5.5245   -0.6043   -2.3978 H   0  0  0  0  0  0  0  0  0  0  0  0
    3.8521   -0.3272   -2.0078 H   0  0  0  0  0  0  0  0  0  0  0  0
    5.3035   -0.2590    0.0260 H   0  0  0  0  0  0  0  0  0  0  0  0
    6.5048   -2.3601    0.7757 H   0  0  0  0  0  0  0  0  0  0  0  0
    7.0814   -1.8339   -0.7756 H   0  0  0  0  0  0  0  0  0  0  0  0
  1  2  2  0
  2  3  1  0
  2  4  1  0
  4 12  1  0
  4  5  1  0
  4 14  1  1
  5 10  1  0
  5  6  1  0
  5 15  1  1
  6  7  1  0
  6 16  1  0
  6 17  1  0
  7 13  1  0
  7  8  1  0
  7 18  1  6
  8  9  1  0
  8 19  1  0
  8 20  1  0
  9 10  1  0
  9 11  1  0
  9 21  1  6
 10 22  1  0
 10 23  1  0
 11 12  1  0
 11 24  1  0
 11 25  1  0
 12 13  1  0
 12 26  1  1
 13 27  1  0
 13 28  1  0
M  CHG  1   3  -1
M  END
>  <i_m_ct_stereo_status>  (273) 
1

>  <s_m_source_file>  (273) 
/var/tmp/pbs.5076255.sched01/tmpux3k924y/120tsqzh4i4.sdf

>  <i_m_source_file_index>  (273) 
2

>  <i_lp_mmshare_version>  (273) 
48012

>  <i_f3d_flags>  (273) 
0

>  <s_epik_input>  (273) 
Tz1DKFtPSF0pW0NASF0oW0NAQEhdMTIpW0NASF0zW0NIMl1bQ0BASF0oW0NIMl0yKVtDSDJdW0NAQEhdKFtDSDJdMSlbQ0gyXTM=

>  <s_epik_cmdline>  (273) 
J2VwaWtfcHl0aG9uJywgJy1waHQnLCAnMi4wJywgJy1waCcsICc3LjAnLCAnLXRuJywgJzgnLCAnLW1hJywgJzIwMCcsICctaW1hZScsICc8aW5maWxlLm1hZT4nLCAnLW9tYWUnLCAnPG91dGZpbGUubWFlPic=

>  <r_epik_Ionization_Penalty>  (273) 
0.00375923

>  <r_epik_Ionization_Penalty_Charging>  (273) 
0.00375923

>  <r_epik_Ionization_Penalty_Neutral>  (273) 
0

>  <r_epik_State_Penalty>  (273) 
0.00268024

>  <r_epik_Charging_Adjusted_Penalty>  (273) 
0.00643947

>  <i_epik_Tot_Q>  (273) 
-1

>  <i_epik_Tot_abs_Q>  (273) 
1

>  <s_lp_Force_Field>  (273) 
OPLS3e

>  <r_lp_Energy>  (273) 
0.559721

>  <b_lp_Chiralities_Consistent>  (273) 
1

>  <s_lp_Variant>  (273) 
89:0-1

>  <s_i_glide_gridfile>  (273) 
pfpi4k_grid

>  <i_i_glide_lignum>  (273) 
2

>  <i_i_glide_rotatable_bonds>  (273) 
1

>  <r_i_docking_score>  (273) 
-3.28683

>  <r_i_glide_ligand_efficiency>  (273) 
-0.252833

>  <r_i_glide_ligand_efficiency_sa>  (273) 
-0.594495

>  <r_i_glide_ligand_efficiency_ln>  (273) 
-0.921984

>  <r_i_glide_gscore>  (273) 
-3.28683

>  <r_i_glide_lipo>  (273) 
-0.412752

>  <r_i_glide_hbond>  (273) 
0

>  <r_i_glide_metal>  (273) 
-0

>  <r_i_glide_rewards>  (273) 
-2.18703

>  <r_i_glide_evdw>  (273) 
-17.5406

>  <r_i_glide_ecoul>  (273) 
1.28607

>  <r_i_glide_erotb>  (273) 
0

>  <r_i_glide_esite>  (273) 
-0.00292568

>  <r_i_glide_emodel>  (273) 
-21.3626

>  <r_i_glide_energy>  (273) 
-16.2545

>  <r_i_glide_einternal>  (273) 
0.018047

>  <r_i_glide_intrahb_reward>  (273) 
-0

>  <i_i_glide_confnum>  (273) 
1

>  <i_i_glide_posenum>  (273) 
25

>  <r_i_glide_eff_state_penalty>  (273) 
0

>  <ligand_id>  (273) 
89

>  <original_smiles>  (273) 
O=C(O)C1C2CC3CC(C2)CC1C3

>  <smiles>  (273) 
[H]C1([H])C2([H])C([H])([H])C3([H])C([H])([H])C1([H])C([H])([H])C([H])(C2([H])[H])C3([H])C(=O)[O-]

$$$$
89:0:2
     RDKit          3D

 28 30  0  0  1  0  0  0  0  0999 V2000
    3.7091   -1.8182    1.7213 O   0  0  0  0  0  0  0  0  0  0  0  0
    4.2164   -1.1441    0.8002 C   0  0  0  0  0  0  0  0  0  0  0  0
    5.1189   -0.2948    0.9621 O   0  0  0  0  0  0  0  0  0  0  0  0
    3.7321   -1.4171   -0.6527 C   0  0  2  0  0  0  0  0  0  0  0  0
    3.1613   -2.8550   -0.8893 C   0  0  2  0  0  0  0  0  0  0  0  0
    4.3056   -3.8843   -0.7557 C   0  0  0  0  0  0  0  0  0  0  0  0
    5.3842   -3.5627   -1.8124 C   0  0  1  0  0  0  0  0  0  0  0  0
    4.7899   -3.6507   -3.2303 C   0  0  0  0  0  0  0  0  0  0  0  0
    3.6207   -2.6734   -3.3695 C   0  0  1  0  0  0  0  0  0  0  0  0
    2.5479   -2.9706   -2.3132 C   0  0  0  0  0  0  0  0  0  0  0  0
    4.1465   -1.2464   -3.1610 C   0  0  0  0  0  0  0  0  0  0  0  0
    4.7941   -1.1336   -1.7573 C   0  0  2  0  0  0  0  0  0  0  0  0
    5.9394   -2.1550   -1.6074 C   0  0  0  0  0  0  0  0  0  0  0  0
    2.9358   -0.6903   -0.8046 H   0  0  0  0  0  0  0  0  0  0  0  0
    2.3715   -3.0691   -0.1592 H   0  0  0  0  0  0  0  0  0  0  0  0
    4.7360   -3.8688    0.2499 H   0  0  0  0  0  0  0  0  0  0  0  0
    3.9156   -4.8913   -0.8890 H   0  0  0  0  0  0  0  0  0  0  0  0
    6.2062   -4.2567   -1.6997 H   0  0  0  0  0  0  0  0  0  0  0  0
    5.5700   -3.4449   -3.9571 H   0  0  0  0  0  0  0  0  0  0  0  0
    4.4366   -4.6568   -3.4399 H   0  0  0  0  0  0  0  0  0  0  0  0
    3.1718   -2.7640   -4.3621 H   0  0  0  0  0  0  0  0  0  0  0  0
    2.1147   -3.9533   -2.4672 H   0  0  0  0  0  0  0  0  0  0  0  0
    1.7233   -2.2560   -2.4198 H   0  0  0  0  0  0  0  0  0  0  0  0
    4.8752   -1.0247   -3.9347 H   0  0  0  0  0  0  0  0  0  0  0  0
    3.3426   -0.5171   -3.2867 H   0  0  0  0  0  0  0  0  0  0  0  0
    5.1741   -0.1232   -1.6516 H   0  0  0  0  0  0  0  0  0  0  0  0
    6.4207   -2.0719   -0.6267 H   0  0  0  0  0  0  0  0  0  0  0  0
    6.7248   -1.9505   -2.3102 H   0  0  0  0  0  0  0  0  0  0  0  0
  1  2  2  0
  2  3  1  0
  2  4  1  0
  4 12  1  0
  4  5  1  0
  4 14  1  6
  5 10  1  0
  5  6  1  0
  5 15  1  1
  6  7  1  0
  6 16  1  0
  6 17  1  0
  7 13  1  0
  7  8  1  0
  7 18  1  6
  8  9  1  0
  8 19  1  0
  8 20  1  0
  9 10  1  0
  9 11  1  0
  9 21  1  6
 10 22  1  0
 10 23  1  0
 11 12  1  0
 11 24  1  0
 11 25  1  0
 12 13  1  0
 12 26  1  1
 13 27  1  0
 13 28  1  0
M  CHG  1   3  -1
M  END
>  <i_m_ct_stereo_status>  (274) 
1

>  <s_m_source_file>  (274) 
/var/tmp/pbs.5076255.sched01/tmpux3k924y/120tsqzh4i4.sdf

>  <i_m_source_file_index>  (274) 
2

>  <i_lp_mmshare_version>  (274) 
48012

>  <i_f3d_flags>  (274) 
0

>  <s_epik_input>  (274) 
Tz1DKFtPSF0pW0NASF0oW0NAQEhdMTIpW0NASF0zW0NIMl1bQ0BASF0oW0NIMl0yKVtDSDJdW0NAQEhdKFtDSDJdMSlbQ0gyXTM=

>  <s_epik_cmdline>  (274) 
J2VwaWtfcHl0aG9uJywgJy1waHQnLCAnMi4wJywgJy1waCcsICc3LjAnLCAnLXRuJywgJzgnLCAnLW1hJywgJzIwMCcsICctaW1hZScsICc8aW5maWxlLm1hZT4nLCAnLW9tYWUnLCAnPG91dGZpbGUubWFlPic=

>  <r_epik_Ionization_Penalty>  (274) 
0.00375923

>  <r_epik_Ionization_Penalty_Charging>  (274) 
0.00375923

>  <r_epik_Ionization_Penalty_Neutral>  (274) 
0

>  <r_epik_State_Penalty>  (274) 
0.00268024

>  <r_epik_Charging_Adjusted_Penalty>  (274) 
0.00643947

>  <i_epik_Tot_Q>  (274) 
-1

>  <i_epik_Tot_abs_Q>  (274) 
1

>  <s_lp_Force_Field>  (274) 
OPLS3e

>  <r_lp_Energy>  (274) 
0.559721

>  <b_lp_Chiralities_Consistent>  (274) 
1

>  <s_lp_Variant>  (274) 
89:0-1

>  <s_i_glide_gridfile>  (274) 
pfpi4k_grid

>  <i_i_glide_lignum>  (274) 
2

>  <i_i_glide_rotatable_bonds>  (274) 
1

>  <r_i_docking_score>  (274) 
-3.24973

>  <r_i_glide_ligand_efficiency>  (274) 
-0.249979

>  <r_i_glide_ligand_efficiency_sa>  (274) 
-0.587785

>  <r_i_glide_ligand_efficiency_ln>  (274) 
-0.911578

>  <r_i_glide_gscore>  (274) 
-3.24973

>  <r_i_glide_lipo>  (274) 
-0.424181

>  <r_i_glide_hbond>  (274) 
-0.00809768

>  <r_i_glide_metal>  (274) 
-0

>  <r_i_glide_rewards>  (274) 
-2.18703

>  <r_i_glide_evdw>  (274) 
-16.8495

>  <r_i_glide_ecoul>  (274) 
1.42759

>  <r_i_glide_erotb>  (274) 
0

>  <r_i_glide_esite>  (274) 
-0.00208291

>  <r_i_glide_emodel>  (274) 
-20.4235

>  <r_i_glide_energy>  (274) 
-15.4219

>  <r_i_glide_einternal>  (274) 
0.00170199

>  <r_i_glide_intrahb_reward>  (274) 
-0

>  <i_i_glide_confnum>  (274) 
2

>  <i_i_glide_posenum>  (274) 
27

>  <r_i_glide_eff_state_penalty>  (274) 
0

>  <ligand_id>  (274) 
89

>  <original_smiles>  (274) 
O=C(O)C1C2CC3CC(C2)CC1C3

>  <smiles>  (274) 
[H]C1([H])C2([H])C([H])([H])C3([H])C([H])([H])C1([H])C([H])([H])C([H])(C2([H])[H])C3([H])C(=O)[O-]

$$$$
90:0:0
     RDKit          3D

 41 44  0  0  1  0  0  0  0  0999 V2000
    0.9054   -6.2665    0.4830 O   0  0  0  0  0  0  0  0  0  0  0  0
    1.4501   -6.7696    1.4726 C   0  0  0  0  0  0  0  0  0  0  0  0
    2.7815   -6.8319    1.6496 N   0  0  0  0  0  0  0  0  0  0  0  0
    3.8170   -6.4398    0.6900 C   0  0  0  0  0  0  0  0  0  0  0  0
    4.2383   -4.9541    0.7720 C   0  0  2  0  0  0  0  0  0  0  0  0
    3.0501   -4.0095    0.4410 C   0  0  0  0  0  0  0  0  0  0  0  0
    3.4864   -2.5405    0.5095 C   0  0  1  0  0  0  0  0  0  0  0  0
    3.9975   -2.2390    1.9336 C   0  0  0  0  0  0  0  0  0  0  0  0
    5.2144   -3.1351    2.2415 C   0  0  2  0  0  0  0  0  0  0  0  0
    6.3334   -2.8873    1.2086 C   0  0  0  0  0  0  0  0  0  0  0  0
    5.7997   -3.1986   -0.2036 C   0  0  2  0  0  0  0  0  0  0  0  0
    4.6002   -2.2829   -0.5209 C   0  0  0  0  0  0  0  0  0  0  0  0
    5.3605   -4.6793   -0.2671 C   0  0  0  0  0  0  0  0  0  0  0  0
    4.7835   -4.6130    2.1848 C   0  0  0  0  0  0  0  0  0  0  0  0
    0.6292   -7.2919    2.6155 C   0  0  0  0  0  0  0  0  0  0  0  0
    1.0667   -8.3984    3.3752 C   0  0  0  0  0  0  0  0  0  0  0  0
    0.2084   -8.8400    4.3972 C   0  0  0  0  0  0  0  0  0  0  0  0
   -0.9663   -8.2289    4.6431 N   0  0  0  0  0  0  0  0  0  0  0  0
   -1.2863   -7.2056    3.8628 C   0  0  0  0  0  0  0  0  0  0  0  0
   -0.5653   -6.6960    2.8670 N   0  0  0  0  0  0  0  0  0  0  0  0
    3.0958   -7.2004    2.5386 H   0  0  0  0  0  0  0  0  0  0  0  0
    4.6838   -7.0813    0.8663 H   0  0  0  0  0  0  0  0  0  0  0  0
    3.4825   -6.6568   -0.3244 H   0  0  0  0  0  0  0  0  0  0  0  0
    2.6502   -4.2419   -0.5482 H   0  0  0  0  0  0  0  0  0  0  0  0
    2.2373   -4.1325    1.1545 H   0  0  0  0  0  0  0  0  0  0  0  0
    2.6278   -1.9067    0.2867 H   0  0  0  0  0  0  0  0  0  0  0  0
    4.2602   -1.1854    2.0287 H   0  0  0  0  0  0  0  0  0  0  0  0
    3.2043   -2.4306    2.6578 H   0  0  0  0  0  0  0  0  0  0  0  0
    5.5846   -2.9079    3.2407 H   0  0  0  0  0  0  0  0  0  0  0  0
    6.6816   -1.8561    1.2649 H   0  0  0  0  0  0  0  0  0  0  0  0
    7.1916   -3.5236    1.4306 H   0  0  0  0  0  0  0  0  0  0  0  0
    6.5882   -3.0251   -0.9362 H   0  0  0  0  0  0  0  0  0  0  0  0
    4.2283   -2.4847   -1.5266 H   0  0  0  0  0  0  0  0  0  0  0  0
    4.8969   -1.2340   -0.4969 H   0  0  0  0  0  0  0  0  0  0  0  0
    6.2171   -5.3301   -0.0817 H   0  0  0  0  0  0  0  0  0  0  0  0
    5.0097   -4.9166   -1.2750 H   0  0  0  0  0  0  0  0  0  0  0  0
    4.0245   -4.7947    2.9480 H   0  0  0  0  0  0  0  0  0  0  0  0
    5.6306   -5.2565    2.4292 H   0  0  0  0  0  0  0  0  0  0  0  0
    1.9941   -8.9135    3.1793 H   0  0  0  0  0  0  0  0  0  0  0  0
    0.4494   -9.6949    5.0164 H   0  0  0  0  0  0  0  0  0  0  0  0
   -2.2296   -6.7196    4.0666 H   0  0  0  0  0  0  0  0  0  0  0  0
  1  2  2  0
  2  3  1  0
  2 15  1  0
  3  4  1  0
  3 21  1  0
  5  4  1  1
  4 22  1  0
  4 23  1  0
  5 13  1  0
  5 14  1  0
  5  6  1  0
  6  7  1  0
  6 24  1  0
  6 25  1  0
  7 12  1  0
  7  8  1  0
  7 26  1  6
  8  9  1  0
  8 27  1  0
  8 28  1  0
  9 10  1  0
  9 14  1  0
  9 29  1  1
 10 11  1  0
 10 30  1  0
 10 31  1  0
 11 12  1  0
 11 13  1  0
 11 32  1  6
 12 33  1  0
 12 34  1  0
 13 35  1  0
 13 36  1  0
 14 37  1  0
 14 38  1  0
 15 20  1  0
 15 16  2  0
 16 17  1  0
 16 39  1  0
 17 18  2  0
 17 40  1  0
 18 19  1  0
 19 20  2  0
 19 41  1  0
M  END
>  <i_m_ct_stereo_status>  (275) 
1

>  <s_m_source_file>  (275) 
/var/tmp/pbs.5076255.sched01/tmpux3k924y/120tsqzh4i4.sdf

>  <i_m_source_file_index>  (275) 
3

>  <i_lp_mmshare_version>  (275) 
48012

>  <i_f3d_flags>  (275) 
0

>  <s_epik_input>  (275) 
bjFbY0hdbltjSF1bY0hdYzFDKD1PKVtOSF1bQ0gyXUMyM1tDSDJdW0NASF00W0NIMl1bQ0BASF0oW0NIMl0zKVtDSDJdW0NASF0oW0NIMl00KVtDSDJdMg==

>  <s_epik_cmdline>  (275) 
J2VwaWtfcHl0aG9uJywgJy1waHQnLCAnMi4wJywgJy1waCcsICc3LjAnLCAnLXRuJywgJzgnLCAnLW1hJywgJzIwMCcsICctaW1hZScsICc8aW5maWxlLm1hZT4nLCAnLW9tYWUnLCAnPG91dGZpbGUubWFlPic=

>  <r_lp_tautomer_probability>  (275) 
1

>  <r_epik_Ionization_Penalty>  (275) 
3.23829e-06

>  <r_epik_Ionization_Penalty_Charging>  (275) 
0

>  <r_epik_Ionization_Penalty_Neutral>  (275) 
3.23829e-06

>  <r_epik_State_Penalty>  (275) 
-0

>  <r_epik_Charging_Adjusted_Penalty>  (275) 
0

>  <i_epik_Tot_Q>  (275) 
0

>  <i_epik_Tot_abs_Q>  (275) 
0

>  <s_epik_Chemistry_Notes>  (275) 
This compound contains an electron-poor aromatic ring that is susceptible to covalent hydrolysis at low pH, typically resulting in measured values for nitrogen ring protonation that are around two units higher than predicted values.

>  <s_lp_Force_Field>  (275) 
OPLS3e

>  <r_lp_Energy>  (275) 
14.9977

>  <b_lp_Chiralities_Consistent>  (275) 
1

>  <s_lp_Variant>  (275) 
90:0-1

>  <s_i_glide_gridfile>  (275) 
pfpi4k_grid

>  <i_i_glide_lignum>  (275) 
3

>  <i_i_glide_rotatable_bonds>  (275) 
4

>  <r_i_docking_score>  (275) 
-3.9524

>  <r_i_glide_ligand_efficiency>  (275) 
-0.19762

>  <r_i_glide_ligand_efficiency_sa>  (275) 
-0.536423

>  <r_i_glide_ligand_efficiency_ln>  (275) 
-0.989155

>  <r_i_glide_gscore>  (275) 
-3.9524

>  <r_i_glide_lipo>  (275) 
-0.3627

>  <r_i_glide_hbond>  (275) 
-0.373204

>  <r_i_glide_metal>  (275) 
-0

>  <r_i_glide_rewards>  (275) 
-1.55893

>  <r_i_glide_evdw>  (275) 
-19.5816

>  <r_i_glide_ecoul>  (275) 
-6.98483

>  <r_i_glide_erotb>  (275) 
0.486253

>  <r_i_glide_esite>  (275) 
-0.117016

>  <r_i_glide_emodel>  (275) 
-33.5561

>  <r_i_glide_energy>  (275) 
-26.5664

>  <r_i_glide_einternal>  (275) 
0.245033

>  <r_i_glide_intrahb_reward>  (275) 
-0

>  <i_i_glide_confnum>  (275) 
4

>  <i_i_glide_posenum>  (275) 
16

>  <r_i_glide_eff_state_penalty>  (275) 
0

>  <ligand_id>  (275) 
90

>  <original_smiles>  (275) 
O=C(NCC12CC3CC(CC(C3)C1)C2)c1ccncn1

>  <smiles>  (275) 
[H]c1nc([H])c([H])c(C(=O)N([H])C([H])([H])C23C([H])([H])C4([H])C([H])([H])C([H])(C([H])([H])C([H])(C4([H])[H])C2([H])[H])C3([H])[H])n1

$$$$
90:0:1
     RDKit          3D

 41 44  0  0  1  0  0  0  0  0999 V2000
    0.2280   -6.2761    0.6439 O   0  0  0  0  0  0  0  0  0  0  0  0
    1.0742   -6.5855    1.4849 C   0  0  0  0  0  0  0  0  0  0  0  0
    2.3863   -6.3546    1.3340 N   0  0  0  0  0  0  0  0  0  0  0  0
    3.0233   -5.7944    0.1443 C   0  0  0  0  0  0  0  0  0  0  0  0
    3.9943   -4.6267    0.4498 C   0  0  2  0  0  0  0  0  0  0  0  0
    5.2005   -5.1155    1.2920 C   0  0  0  0  0  0  0  0  0  0  0  0
    6.1729   -3.9504    1.5522 C   0  0  1  0  0  0  0  0  0  0  0  0
    6.7044   -3.4032    0.2150 C   0  0  0  0  0  0  0  0  0  0  0  0
    5.5188   -2.8840   -0.6201 C   0  0  2  0  0  0  0  0  0  0  0  0
    4.7746   -1.7650    0.1398 C   0  0  0  0  0  0  0  0  0  0  0  0
    4.2598   -2.3228    1.4821 C   0  0  2  0  0  0  0  0  0  0  0  0
    5.4469   -2.8297    2.3243 C   0  0  0  0  0  0  0  0  0  0  0  0
    3.2784   -3.4799    1.2151 C   0  0  0  0  0  0  0  0  0  0  0  0
    4.5411   -4.0478   -0.8894 C   0  0  0  0  0  0  0  0  0  0  0  0
    0.6675   -7.1628    2.8104 C   0  0  0  0  0  0  0  0  0  0  0  0
    1.5304   -8.0185    3.5278 C   0  0  0  0  0  0  0  0  0  0  0  0
    1.0395   -8.5381    4.7393 C   0  0  0  0  0  0  0  0  0  0  0  0
   -0.1823   -8.2165    5.1928 N   0  0  0  0  0  0  0  0  0  0  0  0
   -0.9202   -7.4239    4.4296 C   0  0  0  0  0  0  0  0  0  0  0  0
   -0.5679   -6.8682    3.2766 N   0  0  0  0  0  0  0  0  0  0  0  0
    2.9876   -6.5928    2.1132 H   0  0  0  0  0  0  0  0  0  0  0  0
    3.5845   -6.5999   -0.3212 H   0  0  0  0  0  0  0  0  0  0  0  0
    2.2673   -5.4539   -0.5640 H   0  0  0  0  0  0  0  0  0  0  0  0
    4.8667   -5.5290    2.2445 H   0  0  0  0  0  0  0  0  0  0  0  0
    5.7219   -5.9209    0.7738 H   0  0  0  0  0  0  0  0  0  0  0  0
    7.0156   -4.3250    2.1334 H   0  0  0  0  0  0  0  0  0  0  0  0
    7.4327   -2.6104    0.3855 H   0  0  0  0  0  0  0  0  0  0  0  0
    7.2248   -4.1960   -0.3225 H   0  0  0  0  0  0  0  0  0  0  0  0
    5.8888   -2.4925   -1.5679 H   0  0  0  0  0  0  0  0  0  0  0  0
    5.4317   -0.9111    0.3145 H   0  0  0  0  0  0  0  0  0  0  0  0
    3.9385   -1.4003   -0.4548 H   0  0  0  0  0  0  0  0  0  0  0  0
    3.7396   -1.5319    2.0253 H   0  0  0  0  0  0  0  0  0  0  0  0
    5.0931   -3.2030    3.2851 H   0  0  0  0  0  0  0  0  0  0  0  0
    6.1311   -2.0106    2.5414 H   0  0  0  0  0  0  0  0  0  0  0  0
    2.4203   -3.1228    0.6427 H   0  0  0  0  0  0  0  0  0  0  0  0
    2.8878   -3.8403    2.1682 H   0  0  0  0  0  0  0  0  0  0  0  0
    5.0454   -4.8274   -1.4651 H   0  0  0  0  0  0  0  0  0  0  0  0
    3.7210   -3.6964   -1.5177 H   0  0  0  0  0  0  0  0  0  0  0  0
    2.5097   -8.2990    3.1679 H   0  0  0  0  0  0  0  0  0  0  0  0
    1.6332   -9.2127    5.3435 H   0  0  0  0  0  0  0  0  0  0  0  0
   -1.9037   -7.1805    4.8089 H   0  0  0  0  0  0  0  0  0  0  0  0
  1  2  2  0
  2  3  1  0
  2 15  1  0
  3  4  1  0
  3 21  1  0
  5  4  1  6
  4 22  1  0
  4 23  1  0
  5 13  1  0
  5 14  1  0
  5  6  1  0
  6  7  1  0
  6 24  1  0
  6 25  1  0
  7 12  1  0
  7  8  1  0
  7 26  1  1
  8  9  1  0
  8 27  1  0
  8 28  1  0
  9 10  1  0
  9 14  1  0
  9 29  1  6
 10 11  1  0
 10 30  1  0
 10 31  1  0
 11 12  1  0
 11 13  1  0
 11 32  1  1
 12 33  1  0
 12 34  1  0
 13 35  1  0
 13 36  1  0
 14 37  1  0
 14 38  1  0
 15 20  1  0
 15 16  2  0
 16 17  1  0
 16 39  1  0
 17 18  2  0
 17 40  1  0
 18 19  1  0
 19 20  2  0
 19 41  1  0
M  END
>  <i_m_ct_stereo_status>  (276) 
1

>  <s_m_source_file>  (276) 
/var/tmp/pbs.5076255.sched01/tmpux3k924y/120tsqzh4i4.sdf

>  <i_m_source_file_index>  (276) 
3

>  <i_lp_mmshare_version>  (276) 
48012

>  <i_f3d_flags>  (276) 
0

>  <s_epik_input>  (276) 
bjFbY0hdbltjSF1bY0hdYzFDKD1PKVtOSF1bQ0gyXUMyM1tDSDJdW0NASF00W0NIMl1bQ0BASF0oW0NIMl0zKVtDSDJdW0NASF0oW0NIMl00KVtDSDJdMg==

>  <s_epik_cmdline>  (276) 
J2VwaWtfcHl0aG9uJywgJy1waHQnLCAnMi4wJywgJy1waCcsICc3LjAnLCAnLXRuJywgJzgnLCAnLW1hJywgJzIwMCcsICctaW1hZScsICc8aW5maWxlLm1hZT4nLCAnLW9tYWUnLCAnPG91dGZpbGUubWFlPic=

>  <r_lp_tautomer_probability>  (276) 
1

>  <r_epik_Ionization_Penalty>  (276) 
3.23829e-06

>  <r_epik_Ionization_Penalty_Charging>  (276) 
0

>  <r_epik_Ionization_Penalty_Neutral>  (276) 
3.23829e-06

>  <r_epik_State_Penalty>  (276) 
-0

>  <r_epik_Charging_Adjusted_Penalty>  (276) 
0

>  <i_epik_Tot_Q>  (276) 
0

>  <i_epik_Tot_abs_Q>  (276) 
0

>  <s_epik_Chemistry_Notes>  (276) 
This compound contains an electron-poor aromatic ring that is susceptible to covalent hydrolysis at low pH, typically resulting in measured values for nitrogen ring protonation that are around two units higher than predicted values.

>  <s_lp_Force_Field>  (276) 
OPLS3e

>  <r_lp_Energy>  (276) 
14.9977

>  <b_lp_Chiralities_Consistent>  (276) 
1

>  <s_lp_Variant>  (276) 
90:0-1

>  <s_i_glide_gridfile>  (276) 
pfpi4k_grid

>  <i_i_glide_lignum>  (276) 
3

>  <i_i_glide_rotatable_bonds>  (276) 
4

>  <r_i_docking_score>  (276) 
-3.82997

>  <r_i_glide_ligand_efficiency>  (276) 
-0.191499

>  <r_i_glide_ligand_efficiency_sa>  (276) 
-0.519807

>  <r_i_glide_ligand_efficiency_ln>  (276) 
-0.958515

>  <r_i_glide_gscore>  (276) 
-3.82997

>  <r_i_glide_lipo>  (276) 
-0.315109

>  <r_i_glide_hbond>  (276) 
-0.299623

>  <r_i_glide_metal>  (276) 
-0

>  <r_i_glide_rewards>  (276) 
-1.55893

>  <r_i_glide_evdw>  (276) 
-18.4147

>  <r_i_glide_ecoul>  (276) 
-7.22797

>  <r_i_glide_erotb>  (276) 
0.486253

>  <r_i_glide_esite>  (276) 
-0.137635

>  <r_i_glide_emodel>  (276) 
-32.3266

>  <r_i_glide_energy>  (276) 
-25.6427

>  <r_i_glide_einternal>  (276) 
0.710346

>  <r_i_glide_intrahb_reward>  (276) 
-0

>  <i_i_glide_confnum>  (276) 
4

>  <i_i_glide_posenum>  (276) 
1

>  <r_i_glide_eff_state_penalty>  (276) 
0

>  <ligand_id>  (276) 
90

>  <original_smiles>  (276) 
O=C(NCC12CC3CC(CC(C3)C1)C2)c1ccncn1

>  <smiles>  (276) 
[H]c1nc([H])c([H])c(C(=O)N([H])C([H])([H])C23C([H])([H])C4([H])C([H])([H])C([H])(C([H])([H])C([H])(C4([H])[H])C2([H])[H])C3([H])[H])n1

$$$$
90:0:2
     RDKit          3D

 41 44  0  0  1  0  0  0  0  0999 V2000
    1.0527   -5.9561    0.4636 O   0  0  0  0  0  0  0  0  0  0  0  0
    1.3733   -6.7744    1.3334 C   0  0  0  0  0  0  0  0  0  0  0  0
    2.6385   -7.0035    1.7048 N   0  0  0  0  0  0  0  0  0  0  0  0
    3.8168   -6.4231    1.0802 C   0  0  0  0  0  0  0  0  0  0  0  0
    5.1324   -6.8399    1.7820 C   0  0  2  0  0  0  0  0  0  0  0  0
    5.4096   -8.3539    1.5661 C   0  0  0  0  0  0  0  0  0  0  0  0
    6.7439   -8.7472    2.2326 C   0  0  1  0  0  0  0  0  0  0  0  0
    7.8896   -7.9295    1.6161 C   0  0  0  0  0  0  0  0  0  0  0  0
    7.6392   -6.4325    1.8475 C   0  0  2  0  0  0  0  0  0  0  0  0
    7.5571   -6.1468    3.3564 C   0  0  0  0  0  0  0  0  0  0  0  0
    6.4163   -6.9687    3.9739 C   0  0  2  0  0  0  0  0  0  0  0  0
    6.6751   -8.4702    3.7484 C   0  0  0  0  0  0  0  0  0  0  0  0
    5.0824   -6.5632    3.3124 C   0  0  0  0  0  0  0  0  0  0  0  0
    6.3111   -6.0285    1.1765 C   0  0  0  0  0  0  0  0  0  0  0  0
    0.3407   -7.5651    2.0787 C   0  0  0  0  0  0  0  0  0  0  0  0
    0.6408   -8.8334    2.6237 C   0  0  0  0  0  0  0  0  0  0  0  0
   -0.4229   -9.5322    3.2035 C   0  0  0  0  0  0  0  0  0  0  0  0
   -1.6699   -9.0358    3.2146 N   0  0  0  0  0  0  0  0  0  0  0  0
   -1.8461   -7.8329    2.6857 C   0  0  0  0  0  0  0  0  0  0  0  0
   -0.9138   -7.0574    2.1312 N   0  0  0  0  0  0  0  0  0  0  0  0
    2.7812   -7.6502    2.4706 H   0  0  0  0  0  0  0  0  0  0  0  0
    3.8372   -6.7320    0.0320 H   0  0  0  0  0  0  0  0  0  0  0  0
    3.7060   -5.3376    1.0762 H   0  0  0  0  0  0  0  0  0  0  0  0
    4.6071   -8.9666    1.9807 H   0  0  0  0  0  0  0  0  0  0  0  0
    5.4488   -8.5887    0.5008 H   0  0  0  0  0  0  0  0  0  0  0  0
    6.9341   -9.8072    2.0685 H   0  0  0  0  0  0  0  0  0  0  0  0
    8.8213   -8.2277    2.0900 H   0  0  0  0  0  0  0  0  0  0  0  0
    7.9852   -8.1363    0.5495 H   0  0  0  0  0  0  0  0  0  0  0  0
    8.4575   -5.8568    1.4167 H   0  0  0  0  0  0  0  0  0  0  0  0
    8.5045   -6.3690    3.8471 H   0  0  0  0  0  0  0  0  0  0  0  0
    7.3451   -5.0940    3.5068 H   0  0  0  0  0  0  0  0  0  0  0  0
    6.3669   -6.7667    5.0439 H   0  0  0  0  0  0  0  0  0  0  0  0
    5.8827   -9.0632    4.2039 H   0  0  0  0  0  0  0  0  0  0  0  0
    7.6059   -8.7675    4.2324 H   0  0  0  0  0  0  0  0  0  0  0  0
    4.8774   -5.5071    3.4968 H   0  0  0  0  0  0  0  0  0  0  0  0
    4.2792   -7.1218    3.7941 H   0  0  0  0  0  0  0  0  0  0  0  0
    6.3777   -6.1922    0.0993 H   0  0  0  0  0  0  0  0  0  0  0  0
    6.1489   -4.9573    1.3130 H   0  0  0  0  0  0  0  0  0  0  0  0
    1.6185   -9.2915    2.5622 H   0  0  0  0  0  0  0  0  0  0  0  0
   -0.2901  -10.5121    3.6438 H   0  0  0  0  0  0  0  0  0  0  0  0
   -2.8493   -7.4494    2.7088 H   0  0  0  0  0  0  0  0  0  0  0  0
  1  2  2  0
  2  3  1  0
  2 15  1  0
  3  4  1  0
  3 21  1  0
  5  4  1  6
  4 22  1  0
  4 23  1  0
  5 13  1  0
  5 14  1  0
  5  6  1  0
  6  7  1  0
  6 24  1  0
  6 25  1  0
  7 12  1  0
  7  8  1  0
  7 26  1  1
  8  9  1  0
  8 27  1  0
  8 28  1  0
  9 10  1  0
  9 14  1  0
  9 29  1  6
 10 11  1  0
 10 30  1  0
 10 31  1  0
 11 12  1  0
 11 13  1  0
 11 32  1  1
 12 33  1  0
 12 34  1  0
 13 35  1  0
 13 36  1  0
 14 37  1  0
 14 38  1  0
 15 20  1  0
 15 16  2  0
 16 17  1  0
 16 39  1  0
 17 18  2  0
 17 40  1  0
 18 19  1  0
 19 20  2  0
 19 41  1  0
M  END
>  <i_m_ct_stereo_status>  (277) 
1

>  <s_m_source_file>  (277) 
/var/tmp/pbs.5076255.sched01/tmpux3k924y/120tsqzh4i4.sdf

>  <i_m_source_file_index>  (277) 
3

>  <i_lp_mmshare_version>  (277) 
48012

>  <i_f3d_flags>  (277) 
0

>  <s_epik_input>  (277) 
bjFbY0hdbltjSF1bY0hdYzFDKD1PKVtOSF1bQ0gyXUMyM1tDSDJdW0NASF00W0NIMl1bQ0BASF0oW0NIMl0zKVtDSDJdW0NASF0oW0NIMl00KVtDSDJdMg==

>  <s_epik_cmdline>  (277) 
J2VwaWtfcHl0aG9uJywgJy1waHQnLCAnMi4wJywgJy1waCcsICc3LjAnLCAnLXRuJywgJzgnLCAnLW1hJywgJzIwMCcsICctaW1hZScsICc8aW5maWxlLm1hZT4nLCAnLW9tYWUnLCAnPG91dGZpbGUubWFlPic=

>  <r_lp_tautomer_probability>  (277) 
1

>  <r_epik_Ionization_Penalty>  (277) 
3.23829e-06

>  <r_epik_Ionization_Penalty_Charging>  (277) 
0

>  <r_epik_Ionization_Penalty_Neutral>  (277) 
3.23829e-06

>  <r_epik_State_Penalty>  (277) 
-0

>  <r_epik_Charging_Adjusted_Penalty>  (277) 
0

>  <i_epik_Tot_Q>  (277) 
0

>  <i_epik_Tot_abs_Q>  (277) 
0

>  <s_epik_Chemistry_Notes>  (277) 
This compound contains an electron-poor aromatic ring that is susceptible to covalent hydrolysis at low pH, typically resulting in measured values for nitrogen ring protonation that are around two units higher than predicted values.

>  <s_lp_Force_Field>  (277) 
OPLS3e

>  <r_lp_Energy>  (277) 
14.9977

>  <b_lp_Chiralities_Consistent>  (277) 
1

>  <s_lp_Variant>  (277) 
90:0-1

>  <s_i_glide_gridfile>  (277) 
pfpi4k_grid

>  <i_i_glide_lignum>  (277) 
3

>  <i_i_glide_rotatable_bonds>  (277) 
4

>  <r_i_docking_score>  (277) 
-3.65585

>  <r_i_glide_ligand_efficiency>  (277) 
-0.182793

>  <r_i_glide_ligand_efficiency_sa>  (277) 
-0.496175

>  <r_i_glide_ligand_efficiency_ln>  (277) 
-0.914939

>  <r_i_glide_gscore>  (277) 
-3.65585

>  <r_i_glide_lipo>  (277) 
-0.373031

>  <r_i_glide_hbond>  (277) 
-0.32

>  <r_i_glide_metal>  (277) 
-0

>  <r_i_glide_rewards>  (277) 
-1.55893

>  <r_i_glide_evdw>  (277) 
-17.4353

>  <r_i_glide_ecoul>  (277) 
-6.17408

>  <r_i_glide_erotb>  (277) 
0.486253

>  <r_i_glide_esite>  (277) 
-0.0922711

>  <r_i_glide_emodel>  (277) 
-29.4536

>  <r_i_glide_energy>  (277) 
-23.6093

>  <r_i_glide_einternal>  (277) 
1.40121

>  <r_i_glide_intrahb_reward>  (277) 
-0

>  <i_i_glide_confnum>  (277) 
3

>  <i_i_glide_posenum>  (277) 
4

>  <r_i_glide_eff_state_penalty>  (277) 
0

>  <ligand_id>  (277) 
90

>  <original_smiles>  (277) 
O=C(NCC12CC3CC(CC(C3)C1)C2)c1ccncn1

>  <smiles>  (277) 
[H]c1nc([H])c([H])c(C(=O)N([H])C([H])([H])C23C([H])([H])C4([H])C([H])([H])C([H])(C([H])([H])C([H])(C4([H])[H])C2([H])[H])C3([H])[H])n1

$$$$
91:0:0
     RDKit          3D

 54 58  0  0  1  0  0  0  0  0999 V2000
    2.0371   -4.2464    3.3146 C   0  0  0  0  0  0  0  0  0  0  0  0
    2.5943   -3.1188    2.8342 C   0  0  0  0  0  0  0  0  0  0  0  0
    2.5774   -1.7964    3.5948 C   0  0  1  0  0  0  0  0  0  0  0  0
    1.7182   -1.7814    4.8742 C   0  0  0  0  0  0  0  0  0  0  0  0
    4.0223   -1.4016    3.8654 C   0  0  0  0  0  0  0  0  0  0  0  0
    4.7618   -1.1212    2.5403 C   0  0  1  0  0  0  0  0  0  0  0  0
    6.1151   -0.8745    2.8645 O   0  0  0  0  0  0  0  0  0  0  0  0
    4.6283   -2.2075    1.4015 C   0  0  2  0  0  0  0  0  0  0  0  0
    5.2369   -3.6068    1.7886 C   0  0  2  0  0  0  0  0  0  0  0  0
    6.6789   -4.0638    1.6416 C   0  0  0  0  0  0  0  0  0  0  0  0
    7.0986   -4.5206    0.2571 C   0  0  0  0  0  0  0  0  0  0  0  0
    6.4284   -3.6819   -0.8203 C   0  0  2  0  0  0  0  0  0  0  0  0
    6.4538   -2.1856   -0.5640 C   0  0  0  0  0  0  0  0  0  0  0  0
    5.1556   -1.5526    0.0031 C   0  0  2  0  0  0  0  0  0  0  0  0
    5.7511   -0.2952    0.2875 O   0  0  0  0  0  0  0  0  0  0  0  0
    4.1298   -1.2341   -1.1802 C   0  0  1  0  0  0  0  0  0  0  0  0
    4.7311   -0.3387   -2.1147 O   0  0  0  0  0  0  0  0  0  0  0  0
    3.5433   -2.3821   -2.0838 C   0  0  1  0  0  0  0  0  0  0  0  0
    2.8687   -1.8734   -3.2137 O   0  0  0  0  0  0  0  0  0  0  0  0
    4.4693   -3.5227   -2.5073 C   0  0  1  0  0  0  0  0  0  0  0  0
    5.4416   -3.1230   -3.4406 O   0  0  0  0  0  0  0  0  0  0  0  0
    5.0750   -4.2543   -1.2857 C   0  0  2  0  0  0  0  0  0  0  0  0
    4.0094   -4.4500   -0.3464 O   0  0  0  0  0  0  0  0  0  0  0  0
    4.0761   -4.3077    1.0785 C   0  0  2  0  0  0  0  0  0  0  0  0
    3.2616   -3.0487    1.4588 C   0  0  1  0  0  0  0  0  0  0  0  0
    2.2182   -2.7443    0.6115 O   0  0  0  0  0  0  0  0  0  0  0  0
    2.0206   -5.1506    2.7348 H   0  0  0  0  0  0  0  0  0  0  0  0
    1.5396   -4.2672    4.2716 H   0  0  0  0  0  0  0  0  0  0  0  0
    2.1435   -1.0540    2.9231 H   0  0  0  0  0  0  0  0  0  0  0  0
    0.6780   -2.0358    4.6489 H   0  0  0  0  0  0  0  0  0  0  0  0
    1.7032   -0.7881    5.3251 H   0  0  0  0  0  0  0  0  0  0  0  0
    2.0803   -2.4791    5.6350 H   0  0  0  0  0  0  0  0  0  0  0  0
    4.0617   -0.5043    4.4857 H   0  0  0  0  0  0  0  0  0  0  0  0
    4.5190   -2.1903    4.4312 H   0  0  0  0  0  0  0  0  0  0  0  0
    4.3257   -0.1768    2.2004 H   0  0  0  0  0  0  0  0  0  0  0  0
    6.5297   -0.5655    2.0569 H   0  0  0  0  0  0  0  0  0  0  0  0
    5.0527   -3.7349    2.8593 H   0  0  0  0  0  0  0  0  0  0  0  0
    7.3203   -3.2254    1.8665 H   0  0  0  0  0  0  0  0  0  0  0  0
    6.9314   -4.8634    2.3535 H   0  0  0  0  0  0  0  0  0  0  0  0
    8.1896   -4.4264    0.1728 H   0  0  0  0  0  0  0  0  0  0  0  0
    6.8708   -5.5748    0.1071 H   0  0  0  0  0  0  0  0  0  0  0  0
    7.1098   -3.7924   -1.6670 H   0  0  0  0  0  0  0  0  0  0  0  0
    7.3299   -1.9430    0.0374 H   0  0  0  0  0  0  0  0  0  0  0  0
    6.6567   -1.7317   -1.5334 H   0  0  0  0  0  0  0  0  0  0  0  0
    5.3274    0.3600   -0.2392 H   0  0  0  0  0  0  0  0  0  0  0  0
    3.2726   -0.7104   -0.7394 H   0  0  0  0  0  0  0  0  0  0  0  0
    4.6338    0.5684   -1.8346 H   0  0  0  0  0  0  0  0  0  0  0  0
    2.7366   -2.9103   -1.6018 H   0  0  0  0  0  0  0  0  0  0  0  0
    2.1099   -1.4053   -2.8940 H   0  0  0  0  0  0  0  0  0  0  0  0
    3.8622   -4.2427   -3.0450 H   0  0  0  0  0  0  0  0  0  0  0  0
    5.9508   -3.8913   -3.6624 H   0  0  0  0  0  0  0  0  0  0  0  0
    5.3082   -5.2440   -1.6366 H   0  0  0  0  0  0  0  0  0  0  0  0
    3.7943   -5.2282    1.5838 H   0  0  0  0  0  0  0  0  0  0  0  0
    2.2597   -1.8289    0.3814 H   0  0  0  0  0  0  0  0  0  0  0  0
  1  2  2  0
  1 27  1  0
  1 28  1  0
  2 25  1  0
  2  3  1  0
  3  4  1  0
  3  5  1  0
  3 29  1  6
  4 30  1  0
  4 31  1  0
  4 32  1  0
  5  6  1  0
  5 33  1  0
  5 34  1  0
  6  7  1  0
  6  8  1  0
  6 35  1  6
  7 36  1  0
  8 14  1  6
  8 25  1  0
  8  9  1  0
  9 24  1  0
  9 10  1  0
  9 37  1  1
 10 11  1  0
 10 38  1  0
 10 39  1  0
 11 12  1  0
 11 40  1  0
 11 41  1  0
 12 22  1  0
 12 13  1  0
 12 42  1  6
 13 14  1  0
 13 43  1  0
 13 44  1  0
 14 15  1  1
 14 16  1  0
 15 45  1  0
 16 17  1  0
 16 18  1  0
 16 46  1  1
 17 47  1  0
 18 19  1  0
 18 20  1  0
 18 48  1  1
 19 49  1  0
 20 21  1  0
 20 22  1  0
 20 50  1  6
 21 51  1  0
 22 23  1  0
 22 52  1  6
 23 24  1  0
 24 25  1  0
 24 53  1  1
 25 26  1  6
 26 54  1  0
M  END
>  <i_m_ct_stereo_status>  (278) 
1

>  <s_m_source_file>  (278) 
/var/tmp/pbs.5076255.sched01/tmpux3k924y/120tsqzh4i4.sdf

>  <i_m_source_file_index>  (278) 
4

>  <i_lp_mmshare_version>  (278) 
48012

>  <i_f3d_flags>  (278) 
0

>  <s_epik_input>  (278) 
W09IXVtDQEBIXTFbQ0gyXVtDQEhdKFtDSDNdKUMoPVtDSDJdKVtDQF0yKFtPSF0pW0NASF0oW0NAQEhdM1tDQF0xMjQpT1tDQEBIXTVbQ0BIXShbQ0gyXVtDSDJdMylbQ0gyXVtDQEBdNChbT0hdKVtDQEBIXShbT0hdKVtDQEBIXShbT0hdKVtDQEhdNVtPSF0=

>  <s_epik_cmdline>  (278) 
J2VwaWtfcHl0aG9uJywgJy1waHQnLCAnMi4wJywgJy1waCcsICc3LjAnLCAnLXRuJywgJzgnLCAnLW1hJywgJzIwMCcsICctaW1hZScsICc8aW5maWxlLm1hZT4nLCAnLW9tYWUnLCAnPG91dGZpbGUubWFlPic=

>  <r_lp_tautomer_probability>  (278) 
1

>  <r_epik_Ionization_Penalty>  (278) 
4.0204e-07

>  <r_epik_Ionization_Penalty_Charging>  (278) 
0

>  <r_epik_Ionization_Penalty_Neutral>  (278) 
4.0204e-07

>  <r_epik_State_Penalty>  (278) 
-0

>  <r_epik_Charging_Adjusted_Penalty>  (278) 
0

>  <i_epik_Tot_Q>  (278) 
0

>  <i_epik_Tot_abs_Q>  (278) 
0

>  <s_lp_Force_Field>  (278) 
OPLS3e

>  <r_lp_Energy>  (278) 
96.3231

>  <b_lp_Chiralities_Consistent>  (278) 
1

>  <s_lp_Variant>  (278) 
91:0-1

>  <s_i_glide_gridfile>  (278) 
pfpi4k_grid

>  <i_i_glide_lignum>  (278) 
4

>  <i_i_glide_rotatable_bonds>  (278) 
6

>  <r_i_docking_score>  (278) 
-4.01958

>  <r_i_glide_ligand_efficiency>  (278) 
-0.154599

>  <r_i_glide_ligand_efficiency_sa>  (278) 
-0.457999

>  <r_i_glide_ligand_efficiency_ln>  (278) 
-0.943985

>  <r_i_glide_gscore>  (278) 
-4.01958

>  <r_i_glide_lipo>  (278) 
-0.432697

>  <r_i_glide_hbond>  (278) 
0

>  <r_i_glide_metal>  (278) 
-0

>  <r_i_glide_rewards>  (278) 
-1.39713

>  <r_i_glide_evdw>  (278) 
-15.0373

>  <r_i_glide_ecoul>  (278) 
-9.58594

>  <r_i_glide_erotb>  (278) 
0

>  <r_i_glide_esite>  (278) 
0

>  <r_i_glide_emodel>  (278) 
-34.8346

>  <r_i_glide_energy>  (278) 
-24.6232

>  <r_i_glide_einternal>  (278) 
3.55654

>  <r_i_glide_intrahb_reward>  (278) 
-0.5

>  <i_i_glide_confnum>  (278) 
2

>  <i_i_glide_posenum>  (278) 
34

>  <r_i_glide_eff_state_penalty>  (278) 
0

>  <ligand_id>  (278) 
91

>  <original_smiles>  (278) 
C=C1C(C)CC(O)C23C4CCC5CC2(O)C(O)C(O)C(O)C5OC4C13O

>  <smiles>  (278) 
[H]OC1([H])C([H])(O[H])C([H])(O[H])C2(O[H])C([H])([H])C3([H])C([H])([H])C([H])([H])C4([H])C([H])(OC13[H])C1(O[H])C(=C([H])[H])C([H])(C([H])([H])[H])C([H])([H])C([H])(O[H])C142

$$$$
91:0:1
     RDKit          3D

 54 58  0  0  1  0  0  0  0  0999 V2000
    4.3040   -6.0997    2.5454 C   0  0  0  0  0  0  0  0  0  0  0  0
    4.0773   -4.7874    2.3124 C   0  0  0  0  0  0  0  0  0  0  0  0
    3.6305   -3.8112    3.3815 C   0  0  1  0  0  0  0  0  0  0  0  0
    3.2799   -4.4370    4.7435 C   0  0  0  0  0  0  0  0  0  0  0  0
    4.7176   -2.7489    3.5011 C   0  0  0  0  0  0  0  0  0  0  0  0
    4.8518   -1.9353    2.1940 C   0  0  1  0  0  0  0  0  0  0  0  0
    5.9990   -1.1224    2.3619 O   0  0  0  0  0  0  0  0  0  0  0  0
    4.9201   -2.7301    0.8318 C   0  0  2  0  0  0  0  0  0  0  0  0
    6.2069   -3.6303    0.7457 C   0  0  2  0  0  0  0  0  0  0  0  0
    7.6039   -3.1827    0.2565 C   0  0  0  0  0  0  0  0  0  0  0  0
    7.7828   -3.1200   -1.2496 C   0  0  0  0  0  0  0  0  0  0  0  0
    6.4866   -2.6941   -1.9416 C   0  0  2  0  0  0  0  0  0  0  0  0
    5.8521   -1.4645   -1.3138 C   0  0  0  0  0  0  0  0  0  0  0  0
    4.6477   -1.7301   -0.4242 C   0  0  2  0  0  0  0  0  0  0  0  0
    4.5109   -0.4050    0.0876 O   0  0  0  0  0  0  0  0  0  0  0  0
    3.3516   -1.9030   -1.3412 C   0  0  1  0  0  0  0  0  0  0  0  0
    3.0217   -0.7575   -2.1348 O   0  0  0  0  0  0  0  0  0  0  0  0
    3.1098   -3.0663   -2.3494 C   0  0  1  0  0  0  0  0  0  0  0  0
    2.0092   -2.8424   -3.1946 O   0  0  0  0  0  0  0  0  0  0  0  0
    4.2920   -3.4202   -3.2117 C   0  0  1  0  0  0  0  0  0  0  0  0
    4.5492   -2.4004   -4.1533 O   0  0  0  0  0  0  0  0  0  0  0  0
    5.5061   -3.7991   -2.3407 C   0  0  2  0  0  0  0  0  0  0  0  0
    4.9873   -4.6509   -1.3107 O   0  0  0  0  0  0  0  0  0  0  0  0
    5.3630   -4.7118    0.0632 C   0  0  2  0  0  0  0  0  0  0  0  0
    4.1908   -4.1467    0.9155 C   0  0  1  0  0  0  0  0  0  0  0  0
    2.8870   -4.2659    0.4312 O   0  0  0  0  0  0  0  0  0  0  0  0
    4.5619   -6.7847    1.7538 H   0  0  0  0  0  0  0  0  0  0  0  0
    4.1847   -6.5182    3.5356 H   0  0  0  0  0  0  0  0  0  0  0  0
    2.7237   -3.3285    3.0086 H   0  0  0  0  0  0  0  0  0  0  0  0
    2.4850   -5.1772    4.6349 H   0  0  0  0  0  0  0  0  0  0  0  0
    2.9156   -3.6747    5.4342 H   0  0  0  0  0  0  0  0  0  0  0  0
    4.1410   -4.9218    5.2089 H   0  0  0  0  0  0  0  0  0  0  0  0
    4.4834   -2.0604    4.3201 H   0  0  0  0  0  0  0  0  0  0  0  0
    5.6688   -3.2246    3.7589 H   0  0  0  0  0  0  0  0  0  0  0  0
    3.9707   -1.2952    2.2054 H   0  0  0  0  0  0  0  0  0  0  0  0
    6.0368   -0.5539    1.6046 H   0  0  0  0  0  0  0  0  0  0  0  0
    6.4250   -4.0058    1.7499 H   0  0  0  0  0  0  0  0  0  0  0  0
    7.8283   -2.1970    0.6677 H   0  0  0  0  0  0  0  0  0  0  0  0
    8.3810   -3.8361    0.6590 H   0  0  0  0  0  0  0  0  0  0  0  0
    8.5738   -2.4010   -1.4983 H   0  0  0  0  0  0  0  0  0  0  0  0
    8.1902   -4.0558   -1.6320 H   0  0  0  0  0  0  0  0  0  0  0  0
    6.8613   -2.3938   -2.9020 H   0  0  0  0  0  0  0  0  0  0  0  0
    6.6221   -0.9476   -0.7343 H   0  0  0  0  0  0  0  0  0  0  0  0
    5.5680   -0.7995   -2.1283 H   0  0  0  0  0  0  0  0  0  0  0  0
    4.3942    0.1980   -0.6388 H   0  0  0  0  0  0  0  0  0  0  0  0
    2.6035   -1.9530   -0.5459 H   0  0  0  0  0  0  0  0  0  0  0  0
    3.6637   -0.6769   -2.8452 H   0  0  0  0  0  0  0  0  0  0  0  0
    2.7941   -3.9489   -1.8564 H   0  0  0  0  0  0  0  0  0  0  0  0
    1.2697   -2.6662   -2.6316 H   0  0  0  0  0  0  0  0  0  0  0  0
    4.0231   -4.3038   -3.7924 H   0  0  0  0  0  0  0  0  0  0  0  0
    4.6968   -1.5937   -3.6910 H   0  0  0  0  0  0  0  0  0  0  0  0
    6.1014   -4.3453   -3.0483 H   0  0  0  0  0  0  0  0  0  0  0  0
    5.7097   -5.7213    0.2937 H   0  0  0  0  0  0  0  0  0  0  0  0
    2.9734   -4.2176   -0.5127 H   0  0  0  0  0  0  0  0  0  0  0  0
  1  2  2  0
  1 27  1  0
  1 28  1  0
  2 25  1  0
  2  3  1  0
  3  4  1  0
  3  5  1  0
  3 29  1  6
  4 30  1  0
  4 31  1  0
  4 32  1  0
  5  6  1  0
  5 33  1  0
  5 34  1  0
  6  7  1  0
  6  8  1  0
  6 35  1  6
  7 36  1  0
  8 14  1  6
  8 25  1  0
  8  9  1  0
  9 24  1  0
  9 10  1  0
  9 37  1  1
 10 11  1  0
 10 38  1  0
 10 39  1  0
 11 12  1  0
 11 40  1  0
 11 41  1  0
 12 22  1  0
 12 13  1  0
 12 42  1  6
 13 14  1  0
 13 43  1  0
 13 44  1  0
 14 15  1  1
 14 16  1  0
 15 45  1  0
 16 17  1  0
 16 18  1  0
 16 46  1  1
 17 47  1  0
 18 19  1  0
 18 20  1  0
 18 48  1  1
 19 49  1  0
 20 21  1  0
 20 22  1  0
 20 50  1  6
 21 51  1  0
 22 23  1  0
 22 52  1  6
 23 24  1  0
 24 25  1  0
 24 53  1  1
 25 26  1  6
 26 54  1  0
M  END
>  <i_m_ct_stereo_status>  (279) 
1

>  <s_m_source_file>  (279) 
/var/tmp/pbs.5076255.sched01/tmpux3k924y/120tsqzh4i4.sdf

>  <i_m_source_file_index>  (279) 
4

>  <i_lp_mmshare_version>  (279) 
48012

>  <i_f3d_flags>  (279) 
0

>  <s_epik_input>  (279) 
W09IXVtDQEBIXTFbQ0gyXVtDQEhdKFtDSDNdKUMoPVtDSDJdKVtDQF0yKFtPSF0pW0NASF0oW0NAQEhdM1tDQF0xMjQpT1tDQEBIXTVbQ0BIXShbQ0gyXVtDSDJdMylbQ0gyXVtDQEBdNChbT0hdKVtDQEBIXShbT0hdKVtDQEBIXShbT0hdKVtDQEhdNVtPSF0=

>  <s_epik_cmdline>  (279) 
J2VwaWtfcHl0aG9uJywgJy1waHQnLCAnMi4wJywgJy1waCcsICc3LjAnLCAnLXRuJywgJzgnLCAnLW1hJywgJzIwMCcsICctaW1hZScsICc8aW5maWxlLm1hZT4nLCAnLW9tYWUnLCAnPG91dGZpbGUubWFlPic=

>  <r_lp_tautomer_probability>  (279) 
1

>  <r_epik_Ionization_Penalty>  (279) 
4.0204e-07

>  <r_epik_Ionization_Penalty_Charging>  (279) 
0

>  <r_epik_Ionization_Penalty_Neutral>  (279) 
4.0204e-07

>  <r_epik_State_Penalty>  (279) 
-0

>  <r_epik_Charging_Adjusted_Penalty>  (279) 
0

>  <i_epik_Tot_Q>  (279) 
0

>  <i_epik_Tot_abs_Q>  (279) 
0

>  <s_lp_Force_Field>  (279) 
OPLS3e

>  <r_lp_Energy>  (279) 
96.3231

>  <b_lp_Chiralities_Consistent>  (279) 
1

>  <s_lp_Variant>  (279) 
91:0-1

>  <s_i_glide_gridfile>  (279) 
pfpi4k_grid

>  <i_i_glide_lignum>  (279) 
4

>  <i_i_glide_rotatable_bonds>  (279) 
6

>  <r_i_docking_score>  (279) 
-3.0803

>  <r_i_glide_ligand_efficiency>  (279) 
-0.118473

>  <r_i_glide_ligand_efficiency_sa>  (279) 
-0.350976

>  <r_i_glide_ligand_efficiency_ln>  (279) 
-0.723399

>  <r_i_glide_gscore>  (279) 
-3.0803

>  <r_i_glide_lipo>  (279) 
-0.639234

>  <r_i_glide_hbond>  (279) 
0

>  <r_i_glide_metal>  (279) 
-0

>  <r_i_glide_rewards>  (279) 
-1.39713

>  <r_i_glide_evdw>  (279) 
-11.0055

>  <r_i_glide_ecoul>  (279) 
-3.29111

>  <r_i_glide_erotb>  (279) 
0

>  <r_i_glide_esite>  (279) 
0

>  <r_i_glide_emodel>  (279) 
-24.1612

>  <r_i_glide_energy>  (279) 
-14.2966

>  <r_i_glide_einternal>  (279) 
1.00712

>  <r_i_glide_intrahb_reward>  (279) 
-0.5

>  <i_i_glide_confnum>  (279) 
1

>  <i_i_glide_posenum>  (279) 
5

>  <r_i_glide_eff_state_penalty>  (279) 
0

>  <ligand_id>  (279) 
91

>  <original_smiles>  (279) 
C=C1C(C)CC(O)C23C4CCC5CC2(O)C(O)C(O)C(O)C5OC4C13O

>  <smiles>  (279) 
[H]OC1([H])C([H])(O[H])C([H])(O[H])C2(O[H])C([H])([H])C3([H])C([H])([H])C([H])([H])C4([H])C([H])(OC13[H])C1(O[H])C(=C([H])[H])C([H])(C([H])([H])[H])C([H])([H])C([H])(O[H])C142

$$$$
91:0:2
     RDKit          3D

 54 58  0  0  1  0  0  0  0  0999 V2000
    6.5857   -1.6334    0.1655 C   0  0  0  0  0  0  0  0  0  0  0  0
    5.2595   -1.7583    0.3653 C   0  0  0  0  0  0  0  0  0  0  0  0
    4.3646   -2.6071   -0.5235 C   0  0  1  0  0  0  0  0  0  0  0  0
    5.0316   -3.1668   -1.7992 C   0  0  0  0  0  0  0  0  0  0  0  0
    3.7894   -3.7176    0.3460 C   0  0  0  0  0  0  0  0  0  0  0  0
    2.8908   -3.1501    1.4581 C   0  0  1  0  0  0  0  0  0  0  0  0
    2.5747   -4.2619    2.2770 O   0  0  0  0  0  0  0  0  0  0  0  0
    3.4454   -1.9334    2.3049 C   0  0  2  0  0  0  0  0  0  0  0  0
    4.7026   -2.3090    3.1531 C   0  0  2  0  0  0  0  0  0  0  0  0
    4.6956   -2.9374    4.5552 C   0  0  0  0  0  0  0  0  0  0  0  0
    4.5112   -1.9578    5.7014 C   0  0  0  0  0  0  0  0  0  0  0  0
    3.5275   -0.8452    5.3597 C   0  0  2  0  0  0  0  0  0  0  0  0
    2.2615   -1.3355    4.6414 C   0  0  0  0  0  0  0  0  0  0  0  0
    2.2221   -1.1993    3.0972 C   0  0  2  0  0  0  0  0  0  0  0  0
    1.0328   -1.9465    2.8850 O   0  0  0  0  0  0  0  0  0  0  0  0
    1.7635    0.2741    2.6745 C   0  0  1  0  0  0  0  0  0  0  0  0
    0.4347    0.5176    3.1219 O   0  0  0  0  0  0  0  0  0  0  0  0
    2.5726    1.5559    3.1013 C   0  0  1  0  0  0  0  0  0  0  0  0
    1.7978    2.7318    2.9119 O   0  0  0  0  0  0  0  0  0  0  0  0
    3.2487    1.5810    4.4928 C   0  0  1  0  0  0  0  0  0  0  0  0
    2.3265    1.7425    5.5540 O   0  0  0  0  0  0  0  0  0  0  0  0
    4.2098    0.3912    4.7425 C   0  0  2  0  0  0  0  0  0  0  0  0
    4.9945    0.2581    3.5464 O   0  0  0  0  0  0  0  0  0  0  0  0
    5.3092   -0.9392    2.8271 C   0  0  2  0  0  0  0  0  0  0  0  0
    4.5059   -1.0428    1.4986 C   0  0  1  0  0  0  0  0  0  0  0  0
    4.0738    0.1332    0.8857 O   0  0  0  0  0  0  0  0  0  0  0  0
    7.1990   -0.9892    0.7746 H   0  0  0  0  0  0  0  0  0  0  0  0
    7.0802   -2.1521   -0.6415 H   0  0  0  0  0  0  0  0  0  0  0  0
    3.5434   -1.9671   -0.8552 H   0  0  0  0  0  0  0  0  0  0  0  0
    5.4231   -2.3620   -2.4241 H   0  0  0  0  0  0  0  0  0  0  0  0
    4.3059   -3.7114   -2.4059 H   0  0  0  0  0  0  0  0  0  0  0  0
    5.8489   -3.8578   -1.5811 H   0  0  0  0  0  0  0  0  0  0  0  0
    3.1990   -4.3983   -0.2696 H   0  0  0  0  0  0  0  0  0  0  0  0
    4.6046   -4.3142    0.7632 H   0  0  0  0  0  0  0  0  0  0  0  0
    1.9894   -2.8442    0.9256 H   0  0  0  0  0  0  0  0  0  0  0  0
    3.3674   -4.5496    2.7139 H   0  0  0  0  0  0  0  0  0  0  0  0
    5.2653   -3.0391    2.5697 H   0  0  0  0  0  0  0  0  0  0  0  0
    3.9174   -3.6985    4.6140 H   0  0  0  0  0  0  0  0  0  0  0  0
    5.6248   -3.4866    4.7250 H   0  0  0  0  0  0  0  0  0  0  0  0
    4.1550   -2.5057    6.5803 H   0  0  0  0  0  0  0  0  0  0  0  0
    5.4700   -1.5256    5.9952 H   0  0  0  0  0  0  0  0  0  0  0  0
    3.1776   -0.5200    6.3406 H   0  0  0  0  0  0  0  0  0  0  0  0
    2.0780   -2.3670    4.9391 H   0  0  0  0  0  0  0  0  0  0  0  0
    1.4122   -0.7941    5.0630 H   0  0  0  0  0  0  0  0  0  0  0  0
    0.7685   -1.8004    1.9855 H   0  0  0  0  0  0  0  0  0  0  0  0
    1.6593    0.2872    1.5881 H   0  0  0  0  0  0  0  0  0  0  0  0
    0.1640    1.3406    2.7342 H   0  0  0  0  0  0  0  0  0  0  0  0
    3.4099    1.7214    2.4271 H   0  0  0  0  0  0  0  0  0  0  0  0
    1.6170    2.8545    1.9862 H   0  0  0  0  0  0  0  0  0  0  0  0
    3.8728    2.4759    4.5119 H   0  0  0  0  0  0  0  0  0  0  0  0
    1.6535    1.0801    5.4579 H   0  0  0  0  0  0  0  0  0  0  0  0
    4.9103    0.7319    5.5106 H   0  0  0  0  0  0  0  0  0  0  0  0
    6.3881   -1.0200    2.7330 H   0  0  0  0  0  0  0  0  0  0  0  0
    3.2707   -0.0932    0.4251 H   0  0  0  0  0  0  0  0  0  0  0  0
  1  2  2  0
  1 27  1  0
  1 28  1  0
  2 25  1  0
  2  3  1  0
  3  4  1  0
  3  5  1  0
  3 29  1  6
  4 30  1  0
  4 31  1  0
  4 32  1  0
  5  6  1  0
  5 33  1  0
  5 34  1  0
  6  7  1  0
  6  8  1  0
  6 35  1  6
  7 36  1  0
  8 14  1  1
  8 25  1  0
  8  9  1  0
  9 24  1  0
  9 10  1  0
  9 37  1  6
 10 11  1  0
 10 38  1  0
 10 39  1  0
 11 12  1  0
 11 40  1  0
 11 41  1  0
 12 22  1  0
 12 13  1  0
 12 42  1  1
 13 14  1  0
 13 43  1  0
 13 44  1  0
 14 15  1  6
 14 16  1  0
 15 45  1  0
 16 17  1  0
 16 18  1  0
 16 46  1  6
 17 47  1  0
 18 19  1  0
 18 20  1  0
 18 48  1  6
 19 49  1  0
 20 21  1  0
 20 22  1  0
 20 50  1  6
 21 51  1  0
 22 23  1  0
 22 52  1  1
 23 24  1  0
 24 25  1  0
 24 53  1  6
 25 26  1  6
 26 54  1  0
M  END
>  <i_m_ct_stereo_status>  (280) 
1

>  <s_m_source_file>  (280) 
/var/tmp/pbs.5076255.sched01/tmpux3k924y/120tsqzh4i4.sdf

>  <i_m_source_file_index>  (280) 
4

>  <i_lp_mmshare_version>  (280) 
48012

>  <i_f3d_flags>  (280) 
0

>  <s_epik_input>  (280) 
W09IXVtDQEBIXTFbQ0gyXVtDQEhdKFtDSDNdKUMoPVtDSDJdKVtDQF0yKFtPSF0pW0NASF0oW0NAQEhdM1tDQF0xMjQpT1tDQEBIXTVbQ0BIXShbQ0gyXVtDSDJdMylbQ0gyXVtDQEBdNChbT0hdKVtDQEBIXShbT0hdKVtDQEBIXShbT0hdKVtDQEhdNVtPSF0=

>  <s_epik_cmdline>  (280) 
J2VwaWtfcHl0aG9uJywgJy1waHQnLCAnMi4wJywgJy1waCcsICc3LjAnLCAnLXRuJywgJzgnLCAnLW1hJywgJzIwMCcsICctaW1hZScsICc8aW5maWxlLm1hZT4nLCAnLW9tYWUnLCAnPG91dGZpbGUubWFlPic=

>  <r_lp_tautomer_probability>  (280) 
1

>  <r_epik_Ionization_Penalty>  (280) 
4.0204e-07

>  <r_epik_Ionization_Penalty_Charging>  (280) 
0

>  <r_epik_Ionization_Penalty_Neutral>  (280) 
4.0204e-07

>  <r_epik_State_Penalty>  (280) 
-0

>  <r_epik_Charging_Adjusted_Penalty>  (280) 
0

>  <i_epik_Tot_Q>  (280) 
0

>  <i_epik_Tot_abs_Q>  (280) 
0

>  <s_lp_Force_Field>  (280) 
OPLS3e

>  <r_lp_Energy>  (280) 
96.3231

>  <b_lp_Chiralities_Consistent>  (280) 
1

>  <s_lp_Variant>  (280) 
91:0-1

>  <s_i_glide_gridfile>  (280) 
pfpi4k_grid

>  <i_i_glide_lignum>  (280) 
4

>  <i_i_glide_rotatable_bonds>  (280) 
6

>  <r_i_docking_score>  (280) 
-2.82035

>  <r_i_glide_ligand_efficiency>  (280) 
-0.108475

>  <r_i_glide_ligand_efficiency_sa>  (280) 
-0.321357

>  <r_i_glide_ligand_efficiency_ln>  (280) 
-0.66235

>  <r_i_glide_gscore>  (280) 
-2.82035

>  <r_i_glide_lipo>  (280) 
-0.379433

>  <r_i_glide_hbond>  (280) 
-0.00381377

>  <r_i_glide_metal>  (280) 
-0

>  <r_i_glide_rewards>  (280) 
-0.897127

>  <r_i_glide_evdw>  (280) 
-24.7723

>  <r_i_glide_ecoul>  (280) 
-2.0091

>  <r_i_glide_erotb>  (280) 
0

>  <r_i_glide_esite>  (280) 
0

>  <r_i_glide_emodel>  (280) 
-30.4109

>  <r_i_glide_energy>  (280) 
-26.7814

>  <r_i_glide_einternal>  (280) 
1.57127

>  <r_i_glide_intrahb_reward>  (280) 
-0

>  <i_i_glide_confnum>  (280) 
1

>  <i_i_glide_posenum>  (280) 
39

>  <r_i_glide_eff_state_penalty>  (280) 
0

>  <ligand_id>  (280) 
91

>  <original_smiles>  (280) 
C=C1C(C)CC(O)C23C4CCC5CC2(O)C(O)C(O)C(O)C5OC4C13O

>  <smiles>  (280) 
[H]OC1([H])C([H])(O[H])C([H])(O[H])C2(O[H])C([H])([H])C3([H])C([H])([H])C([H])([H])C4([H])C([H])(OC13[H])C1(O[H])C(=C([H])[H])C([H])(C([H])([H])[H])C([H])([H])C([H])(O[H])C142

$$$$
92:0:0
     RDKit          3D

 65 70  0  0  1  0  0  0  0  0999 V2000
    4.7338    0.4727    8.0378 C   0  0  0  0  0  0  0  0  0  0  0  0
    4.4203   -0.1108    6.6469 C   0  0  2  0  0  0  0  0  0  0  0  0
    5.5859    0.1191    5.6669 C   0  0  0  0  0  0  0  0  0  0  0  0
    5.3052   -0.4642    4.2655 C   0  0  0  0  0  0  0  0  0  0  0  0
    3.9491   -0.0894    3.5684 C   0  0  1  0  0  0  0  0  0  0  0  0
    3.7074   -0.8878    2.2018 C   0  0  1  0  0  0  0  0  0  0  0  0
    2.8190    0.0122    1.2955 C   0  0  0  0  0  0  0  0  0  0  0  0
    5.0180   -1.0361    1.3515 C   0  0  0  0  0  0  0  0  0  0  0  0
    5.7913   -2.3443    1.5186 C   0  0  0  0  0  0  0  0  0  0  0  0
    4.8699   -3.5211    1.2188 C   0  0  0  0  0  0  0  0  0  0  0  0
    3.7211   -3.6421    2.2371 C   0  0  0  0  0  0  0  0  0  0  0  0
    2.7808   -4.7398    1.6743 C   0  0  0  0  0  0  0  0  0  0  0  0
    4.2803   -4.1829    3.5757 C   0  0  0  0  0  0  0  0  0  0  0  0
    2.9371   -2.2752    2.3517 C   0  0  1  0  0  0  0  0  0  0  0  0
    1.8728   -2.2547    3.4778 C   0  0  0  0  0  0  0  0  0  0  0  0
    2.3871   -1.6486    4.7936 C   0  0  0  0  0  0  0  0  0  0  0  0
    2.7736   -0.1639    4.6095 C   0  0  2  0  0  0  0  0  0  0  0  0
    1.5183    0.6466    4.4418 C   0  0  0  0  0  0  0  0  0  0  0  0
    0.6751    0.9671    3.3979 N   0  0  0  0  0  0  0  0  0  0  0  0
   -0.4001    1.7008    3.8731 C   0  0  0  0  0  0  0  0  0  0  0  0
   -1.5081    2.2732    3.2260 C   0  0  0  0  0  0  0  0  0  0  0  0
   -2.4749    2.9592    3.9803 C   0  0  0  0  0  0  0  0  0  0  0  0
   -2.3201    3.0813    5.3766 C   0  0  0  0  0  0  0  0  0  0  0  0
   -1.2015    2.5173    6.0175 C   0  0  0  0  0  0  0  0  0  0  0  0
   -0.2153    1.8158    5.2873 C   0  0  0  0  0  0  0  0  0  0  0  0
    1.0128    1.1436    5.5914 C   0  0  0  0  0  0  0  0  0  0  0  0
    1.9096    0.8670    6.7430 C   0  0  0  0  0  0  0  0  0  0  0  0
    3.2032    0.5184    5.9576 C   0  0  1  0  0  0  0  0  0  0  0  0
    0.8625    0.7324    2.4341 H   0  0  0  0  0  0  0  0  0  0  0  0
    4.9140    1.5467    8.0045 H   0  0  0  0  0  0  0  0  0  0  0  0
    5.6230   -0.0023    8.4513 H   0  0  0  0  0  0  0  0  0  0  0  0
    3.9160    0.2855    8.7333 H   0  0  0  0  0  0  0  0  0  0  0  0
    4.2654   -1.1824    6.7813 H   0  0  0  0  0  0  0  0  0  0  0  0
    5.7982    1.1841    5.5786 H   0  0  0  0  0  0  0  0  0  0  0  0
    6.4952   -0.3288    6.0667 H   0  0  0  0  0  0  0  0  0  0  0  0
    6.1417   -0.1635    3.6362 H   0  0  0  0  0  0  0  0  0  0  0  0
    5.3761   -1.5369    4.3720 H   0  0  0  0  0  0  0  0  0  0  0  0
    4.0655    0.9667    3.3268 H   0  0  0  0  0  0  0  0  0  0  0  0
    2.8665   -0.2784    0.2448 H   0  0  0  0  0  0  0  0  0  0  0  0
    3.0940    1.0676    1.3433 H   0  0  0  0  0  0  0  0  0  0  0  0
    1.7622   -0.0925    1.5124 H   0  0  0  0  0  0  0  0  0  0  0  0
    4.7977   -0.9933    0.2835 H   0  0  0  0  0  0  0  0  0  0  0  0
    5.6781   -0.1877    1.5110 H   0  0  0  0  0  0  0  0  0  0  0  0
    6.6254   -2.3555    0.8161 H   0  0  0  0  0  0  0  0  0  0  0  0
    6.2362   -2.4355    2.5024 H   0  0  0  0  0  0  0  0  0  0  0  0
    4.4661   -3.3884    0.2150 H   0  0  0  0  0  0  0  0  0  0  0  0
    5.4520   -4.4437    1.1849 H   0  0  0  0  0  0  0  0  0  0  0  0
    1.9427   -4.9530    2.3360 H   0  0  0  0  0  0  0  0  0  0  0  0
    3.3143   -5.6798    1.5230 H   0  0  0  0  0  0  0  0  0  0  0  0
    2.3698   -4.4559    0.7038 H   0  0  0  0  0  0  0  0  0  0  0  0
    3.4903   -4.3775    4.3011 H   0  0  0  0  0  0  0  0  0  0  0  0
    4.9929   -3.5112    4.0376 H   0  0  0  0  0  0  0  0  0  0  0  0
    4.8112   -5.1256    3.4251 H   0  0  0  0  0  0  0  0  0  0  0  0
    2.3314   -2.3213    1.4486 H   0  0  0  0  0  0  0  0  0  0  0  0
    1.0007   -1.6964    3.1391 H   0  0  0  0  0  0  0  0  0  0  0  0
    1.4891   -3.2539    3.6734 H   0  0  0  0  0  0  0  0  0  0  0  0
    1.6174   -1.7552    5.5622 H   0  0  0  0  0  0  0  0  0  0  0  0
    3.2327   -2.2353    5.1475 H   0  0  0  0  0  0  0  0  0  0  0  0
   -1.6113    2.1807    2.1576 H   0  0  0  0  0  0  0  0  0  0  0  0
   -3.3381    3.3809    3.4809 H   0  0  0  0  0  0  0  0  0  0  0  0
   -3.0667    3.6039    5.9552 H   0  0  0  0  0  0  0  0  0  0  0  0
   -1.0877    2.6175    7.0865 H   0  0  0  0  0  0  0  0  0  0  0  0
    2.0286    1.7259    7.4035 H   0  0  0  0  0  0  0  0  0  0  0  0
    1.5601    0.0148    7.3241 H   0  0  0  0  0  0  0  0  0  0  0  0
    3.5501    1.5144    5.6659 H   0  0  0  0  0  0  0  0  0  0  0  0
  1  2  1  0
  1 30  1  0
  1 31  1  0
  1 32  1  0
  2 28  1  0
  2  3  1  0
  2 33  1  1
  3  4  1  0
  3 34  1  0
  3 35  1  0
  4  5  1  0
  4 36  1  0
  4 37  1  0
  5 17  1  0
  5  6  1  0
  5 38  1  6
  6 14  1  0
  6  7  1  6
  6  8  1  0
  7 39  1  0
  7 40  1  0
  7 41  1  0
  8  9  1  0
  8 42  1  0
  8 43  1  0
  9 10  1  0
  9 44  1  0
  9 45  1  0
 10 11  1  0
 10 46  1  0
 10 47  1  0
 11 12  1  0
 11 13  1  0
 11 14  1  0
 12 48  1  0
 12 49  1  0
 12 50  1  0
 13 51  1  0
 13 52  1  0
 13 53  1  0
 14 15  1  0
 14 54  1  6
 15 16  1  0
 15 55  1  0
 15 56  1  0
 17 16  1  1
 16 57  1  0
 16 58  1  0
 17 28  1  0
 17 18  1  0
 18 26  2  0
 18 19  1  0
 19 29  1  0
 19 20  1  0
 20 25  2  0
 20 21  1  0
 21 22  2  0
 21 59  1  0
 22 23  1  0
 22 60  1  0
 23 24  2  0
 23 61  1  0
 24 25  1  0
 24 62  1  0
 25 26  1  0
 26 27  1  0
 27 28  1  0
 27 63  1  0
 27 64  1  0
 28 65  1  6
M  END
>  <i_m_ct_stereo_status>  (281) 
1

>  <s_m_source_file>  (281) 
/var/tmp/pbs.5076255.sched01/tmpux3k924y/120tsqzh4i4.sdf

>  <i_m_source_file_index>  (281) 
5

>  <i_lp_mmshare_version>  (281) 
48012

>  <i_f3d_flags>  (281) 
0

>  <s_epik_input>  (281) 
W0NIMl0xW0NIMl1bQ0gyXUMoW0NIM10pKFtDSDNdKVtDQEBIXShbQ0gyXVtDSDJdMilbQ0BAXTEoW0NIM10pW0NAQEhdKFtDQF0yMzQpW0NIMl1bQ0gyXVtDQEBIXShbQ0gzXSlbQ0BASF00W0NIMl1jNWMzW25IXWM2YzVbY0hdW2NIXVtjSF1bY0hdNg==

>  <s_epik_cmdline>  (281) 
J2VwaWtfcHl0aG9uJywgJy1waHQnLCAnMi4wJywgJy1waCcsICc3LjAnLCAnLXRuJywgJzgnLCAnLW1hJywgJzIwMCcsICctaW1hZScsICc8aW5maWxlLm1hZT4nLCAnLW9tYWUnLCAnPG91dGZpbGUubWFlPic=

>  <r_lp_tautomer_probability>  (281) 
1

>  <r_epik_Ionization_Penalty>  (281) 
2.10826e-06

>  <r_epik_Ionization_Penalty_Charging>  (281) 
0

>  <r_epik_Ionization_Penalty_Neutral>  (281) 
2.10826e-06

>  <r_epik_State_Penalty>  (281) 
-0

>  <r_epik_Charging_Adjusted_Penalty>  (281) 
0

>  <i_epik_Tot_Q>  (281) 
0

>  <i_epik_Tot_abs_Q>  (281) 
0

>  <s_lp_Force_Field>  (281) 
OPLS3e

>  <r_lp_Energy>  (281) 
87.193

>  <b_lp_Chiralities_Consistent>  (281) 
1

>  <s_lp_Variant>  (281) 
92:0-1

>  <s_i_glide_gridfile>  (281) 
pfpi4k_grid

>  <i_i_glide_lignum>  (281) 
5

>  <i_i_glide_rotatable_bonds>  (281) 
0

>  <r_i_docking_score>  (281) 
-2.56657

>  <r_i_glide_ligand_efficiency>  (281) 
-0.0916632

>  <r_i_glide_ligand_efficiency_sa>  (281) 
-0.278344

>  <r_i_glide_ligand_efficiency_ln>  (281) 
-0.59244

>  <r_i_glide_gscore>  (281) 
-2.56657

>  <r_i_glide_lipo>  (281) 
-0.397254

>  <r_i_glide_hbond>  (281) 
0

>  <r_i_glide_metal>  (281) 
-0

>  <r_i_glide_rewards>  (281) 
-0.848254

>  <r_i_glide_evdw>  (281) 
-24.7884

>  <r_i_glide_ecoul>  (281) 
-0.405886

>  <r_i_glide_erotb>  (281) 
0

>  <r_i_glide_esite>  (281) 
-0.0207584

>  <r_i_glide_emodel>  (281) 
-29.1052

>  <r_i_glide_energy>  (281) 
-25.1943

>  <r_i_glide_einternal>  (281) 
0

>  <r_i_glide_intrahb_reward>  (281) 
-0

>  <i_i_glide_confnum>  (281) 
1

>  <i_i_glide_posenum>  (281) 
1

>  <r_i_glide_eff_state_penalty>  (281) 
0

>  <ligand_id>  (281) 
92

>  <original_smiles>  (281) 
CC1CCC2C3(C)CCCC(C)(C)C3CCC23c2[nH]c4ccccc4c2CC13

>  <smiles>  (281) 
[H]c1c([H])c([H])c2c(c1[H])c1c(n2[H])C23C([H])([H])C([H])([H])C4([H])C(C([H])([H])[H])(C([H])([H])[H])C([H])([H])C([H])([H])C([H])([H])C4(C([H])([H])[H])C2([H])C([H])([H])C([H])([H])C([H])(C([H])([H])[H])C3([H])C1([H])[H]

$$$$
93:0:0
     RDKit          3D

 80 88  0  0  1  0  0  0  0  0999 V2000
    1.2472   -6.1533    3.9784 C   0  0  0  0  0  0  0  0  0  0  0  0
    2.7049   -5.6673    4.0914 C   0  0  2  0  0  0  0  0  0  0  0  0
    2.7024   -4.1410    3.8242 C   0  0  0  0  0  0  0  0  0  0  0  0
    2.4288   -3.6926    2.7065 O   0  0  0  0  0  0  0  0  0  0  0  0
    2.9707   -3.1676    4.9774 C   0  0  0  0  0  0  0  0  0  0  0  0
    4.1223   -3.6736    5.8373 C   0  0  0  0  0  0  0  0  0  0  0  0
    4.2950   -4.9595    6.1456 C   0  0  0  0  0  0  0  0  0  0  0  0
    5.5767   -5.4310    6.8881 C   0  0  1  0  0  0  0  0  0  0  0  0
    5.3358   -6.0898    8.1099 O   0  0  0  0  0  0  0  0  0  0  0  0
    6.7283   -5.9768    6.0110 C   0  0  1  0  0  0  0  0  0  0  0  0
    7.4305   -7.2047    6.3648 O   0  0  0  0  0  0  0  0  0  0  0  0
    6.8129   -7.1955    5.0665 C   0  0  2  0  0  0  0  0  0  0  0  0
    7.3688   -6.8801    3.6571 C   0  0  2  0  0  0  0  0  0  0  0  0
    8.6171   -7.7677    3.3820 C   0  0  0  0  0  0  0  0  0  0  0  0
    7.6372   -5.5351    2.9065 C   0  0  0  0  0  0  0  0  0  0  0  0
    7.4690   -5.6641    1.3305 C   0  0  0  0  0  0  0  0  0  0  0  0
    6.4099   -4.7509    0.6455 C   0  0  0  0  0  0  0  0  0  0  0  0
    5.0986   -5.0397    0.3240 C   0  0  0  0  0  0  0  0  0  0  0  0
    4.1867   -3.9860   -0.3116 C   0  0  0  0  0  0  0  0  0  0  0  0
    4.6029   -2.5512   -0.0169 C   0  0  0  0  0  0  0  0  0  0  0  0
    6.0779   -2.3996   -0.3044 C   0  0  0  0  0  0  0  0  0  0  0  0
    6.4755   -1.5324   -1.0683 O   0  0  0  0  0  0  0  0  0  0  0  0
    7.0295   -3.3696    0.4001 C   0  0  0  0  0  0  0  0  0  0  0  0
    4.2683   -6.3443    0.5677 C   0  0  1  0  0  0  0  0  0  0  0  0
    5.0839   -7.4617    0.6545 O   0  0  0  0  0  0  0  0  0  0  0  0
    4.5500   -8.7796    0.7814 C   0  0  0  0  0  0  0  0  0  0  0  0
    5.6272   -9.7890    1.3200 C   0  0  1  0  0  0  0  0  0  0  0  0
    6.9351   -9.4851    0.8802 O   0  0  0  0  0  0  0  0  0  0  0  0
    5.5776  -10.3175    2.8161 C   0  0  1  0  0  0  0  0  0  0  0  0
    6.0023  -11.6707    2.7663 O   0  0  0  0  0  0  0  0  0  0  0  0
    6.2657   -9.5942    4.0545 C   0  0  0  0  0  0  0  0  0  0  0  0
    7.1550  -10.1926    4.6599 O   0  0  0  0  0  0  0  0  0  0  0  0
    5.7331   -8.2064    4.5208 C   0  0  2  0  0  0  0  0  0  0  0  0
    5.9391   -7.3026    3.3178 C   0  0  1  0  0  0  0  0  0  0  0  0
    4.9631   -6.1343    3.2365 C   0  0  0  0  0  0  0  0  0  0  0  0
    3.5410   -6.4444    2.9984 C   0  0  2  0  0  0  0  0  0  0  0  0
    3.2532   -6.2267    1.5879 O   0  0  0  0  0  0  0  0  0  0  0  0
    4.3871   -8.4452    5.3306 C   0  0  1  0  0  0  0  0  0  0  0  0
    3.7013   -9.8110    5.2239 C   0  0  0  0  0  0  0  0  0  0  0  0
    4.4500   -7.9600    6.6829 O   0  0  0  0  0  0  0  0  0  0  0  0
    3.3862   -7.4321    5.8818 C   0  0  1  0  0  0  0  0  0  0  0  0
    3.2532   -5.9584    5.5755 C   0  0  2  0  0  0  0  0  0  0  0  0
    1.1545   -7.2230    4.1671 H   0  0  0  0  0  0  0  0  0  0  0  0
    0.8378   -5.9603    2.9864 H   0  0  0  0  0  0  0  0  0  0  0  0
    0.6097   -5.6365    4.6919 H   0  0  0  0  0  0  0  0  0  0  0  0
    3.2407   -2.1986    4.5588 H   0  0  0  0  0  0  0  0  0  0  0  0
    2.0704   -3.0259    5.5719 H   0  0  0  0  0  0  0  0  0  0  0  0
    4.8086   -2.9047    6.1731 H   0  0  0  0  0  0  0  0  0  0  0  0
    5.9744   -4.4968    7.2840 H   0  0  0  0  0  0  0  0  0  0  0  0
    5.0460   -6.9674    7.8846 H   0  0  0  0  0  0  0  0  0  0  0  0
    7.4277   -5.1840    5.7851 H   0  0  0  0  0  0  0  0  0  0  0  0
    9.5456   -7.1989    3.2942 H   0  0  0  0  0  0  0  0  0  0  0  0
    8.5201   -8.3295    2.4597 H   0  0  0  0  0  0  0  0  0  0  0  0
    8.8162   -8.4803    4.1794 H   0  0  0  0  0  0  0  0  0  0  0  0
    6.9822   -4.7557    3.2617 H   0  0  0  0  0  0  0  0  0  0  0  0
    8.6232   -5.1488    3.1339 H   0  0  0  0  0  0  0  0  0  0  0  0
    8.4333   -5.4323    0.8686 H   0  0  0  0  0  0  0  0  0  0  0  0
    7.3089   -6.6936    1.0304 H   0  0  0  0  0  0  0  0  0  0  0  0
    4.1466   -4.1542   -1.3880 H   0  0  0  0  0  0  0  0  0  0  0  0
    3.1751   -4.1043    0.0648 H   0  0  0  0  0  0  0  0  0  0  0  0
    4.0375   -1.8323   -0.6139 H   0  0  0  0  0  0  0  0  0  0  0  0
    4.4384   -2.2991    1.0280 H   0  0  0  0  0  0  0  0  0  0  0  0
    7.3358   -2.9198    1.3415 H   0  0  0  0  0  0  0  0  0  0  0  0
    7.9284   -3.4677   -0.2072 H   0  0  0  0  0  0  0  0  0  0  0  0
    3.7195   -6.4731   -0.3556 H   0  0  0  0  0  0  0  0  0  0  0  0
    3.6670   -8.8055    1.4184 H   0  0  0  0  0  0  0  0  0  0  0  0
    4.2345   -9.0998   -0.2102 H   0  0  0  0  0  0  0  0  0  0  0  0
    5.4149  -10.6554    0.7047 H   0  0  0  0  0  0  0  0  0  0  0  0
    7.2369   -8.6896    1.2866 H   0  0  0  0  0  0  0  0  0  0  0  0
    4.5212  -10.4190    3.0206 H   0  0  0  0  0  0  0  0  0  0  0  0
    5.4980  -12.1114    2.0955 H   0  0  0  0  0  0  0  0  0  0  0  0
    6.1320   -7.8225    2.4431 H   0  0  0  0  0  0  0  0  0  0  0  0
    5.1385   -5.5388    4.0890 H   0  0  0  0  0  0  0  0  0  0  0  0
    5.1525   -5.3155    2.6048 H   0  0  0  0  0  0  0  0  0  0  0  0
    3.4067   -7.5091    3.1511 H   0  0  0  0  0  0  0  0  0  0  0  0
    3.1222   -9.8774    4.3029 H   0  0  0  0  0  0  0  0  0  0  0  0
    2.9828   -9.9411    6.0270 H   0  0  0  0  0  0  0  0  0  0  0  0
    4.3705  -10.6655    5.3290 H   0  0  0  0  0  0  0  0  0  0  0  0
    2.4235   -7.8434    6.1662 H   0  0  0  0  0  0  0  0  0  0  0  0
    2.4146   -5.6805    6.2140 H   0  0  0  0  0  0  0  0  0  0  0  0
  2  1  1  1
  1 43  1  0
  1 44  1  0
  1 45  1  0
  2 36  1  0
  2 42  1  0
  2  3  1  0
  3  4  2  0
  3  5  1  0
  5  6  1  0
  5 46  1  0
  5 47  1  0
  6  7  2  0
  6 48  1  0
  7 42  1  0
  7  8  1  0
  8  9  1  0
  8 10  1  0
  8 49  1  1
  9 50  1  0
 10 12  1  0
 10 11  1  0
 10 51  1  6
 12 11  1  1
 12 33  1  0
 12 13  1  0
 13 34  1  0
 13 14  1  6
 13 15  1  0
 14 52  1  0
 14 53  1  0
 14 54  1  0
 15 16  1  0
 15 55  1  0
 15 56  1  0
 16 17  1  0
 16 57  1  0
 16 58  1  0
 17 23  1  0
 17 18  2  0
 18 19  1  0
 18 24  1  0
 19 20  1  0
 19 59  1  0
 19 60  1  0
 20 21  1  0
 20 61  1  0
 20 62  1  0
 21 22  2  0
 21 23  1  0
 23 63  1  0
 23 64  1  0
 24 37  1  0
 24 25  1  0
 24 65  1  6
 25 26  1  0
 26 27  1  0
 26 66  1  0
 26 67  1  0
 27 28  1  0
 27 29  1  0
 27 68  1  6
 28 69  1  0
 29 30  1  0
 29 31  1  0
 29 70  1  1
 30 71  1  0
 31 32  2  0
 33 31  1  6
 33 34  1  0
 33 38  1  0
 34 35  1  0
 34 72  1  6
 35 36  1  0
 35 73  1  0
 35 74  1  0
 36 37  1  0
 36 75  1  1
 38 41  1  0
 38 39  1  1
 38 40  1  0
 39 76  1  0
 39 77  1  0
 39 78  1  0
 40 41  1  0
 41 42  1  0
 41 79  1  1
 42 80  1  1
M  END
>  <i_m_ct_stereo_status>  (282) 
1

>  <s_m_source_file>  (282) 
/var/tmp/pbs.5076255.sched01/tmpux3k924y/120tsqzh4i4.sdf

>  <i_m_source_file_index>  (282) 
6

>  <i_lp_mmshare_version>  (282) 
48012

>  <i_f3d_flags>  (282) 
0

>  <s_epik_input>  (282) 
Tz1DMVtDSDJdW0NIXT1DKFtDQEBIXShbT0hdKVtDQEhdMk8zKVtDQEhdKFtDQEhdNFtDQEBdNShPNClbQ0gzXSlbQ0BdMShbQ0gzXSlbQ0BIXShbQ0gyXTYpT1tDQEhdKE9bQ0gyXVtDQEBIXShbT0hdKVtDQEBIXShbT0hdKUM3PU8pQyhbQ0gyXVtDSDJdQyg9TylbQ0gyXTgpPUM4W0NIMl1bQ0gyXVtDQF05KFtDSDNdKVtDQEhdNltDQEBdNTdbQ0BAXTIzOQ==

>  <s_epik_cmdline>  (282) 
J2VwaWtfcHl0aG9uJywgJy1waHQnLCAnMi4wJywgJy1waCcsICc3LjAnLCAnLXRuJywgJzgnLCAnLW1hJywgJzIwMCcsICctaW1hZScsICc8aW5maWxlLm1hZT4nLCAnLW9tYWUnLCAnPG91dGZpbGUubWFlPic=

>  <r_lp_tautomer_probability>  (282) 
1

>  <r_epik_Ionization_Penalty>  (282) 
6.92825e-06

>  <r_epik_Ionization_Penalty_Charging>  (282) 
0

>  <r_epik_Ionization_Penalty_Neutral>  (282) 
6.92825e-06

>  <r_epik_State_Penalty>  (282) 
-0

>  <r_epik_Charging_Adjusted_Penalty>  (282) 
0

>  <i_epik_Tot_Q>  (282) 
0

>  <i_epik_Tot_abs_Q>  (282) 
0

>  <s_epik_Chemistry_Notes>  (282) 
This compound contains an acetal/aminal-like group ( X-CH(R)-Y where X, Y are N, S, or O) that may be acid/base labile, releasing an aldehyde.

>  <s_lp_Force_Field>  (282) 
OPLS3e

>  <r_lp_Energy>  (282) 
177.091

>  <b_lp_Chiralities_Consistent>  (282) 
1

>  <s_lp_Variant>  (282) 
93:0-1

>  <s_i_glide_gridfile>  (282) 
pfpi4k_grid

>  <i_i_glide_lignum>  (282) 
6

>  <i_i_glide_rotatable_bonds>  (282) 
3

>  <r_i_docking_score>  (282) 
-3.20485

>  <r_i_glide_ligand_efficiency>  (282) 
-0.0763059

>  <r_i_glide_ligand_efficiency_sa>  (282) 
-0.265241

>  <r_i_glide_ligand_efficiency_ln>  (282) 
-0.676461

>  <r_i_glide_gscore>  (282) 
-3.20485

>  <r_i_glide_lipo>  (282) 
-0.407997

>  <r_i_glide_hbond>  (282) 
-0.137069

>  <r_i_glide_metal>  (282) 
-0

>  <r_i_glide_rewards>  (282) 
-0.684371

>  <r_i_glide_evdw>  (282) 
-15.2686

>  <r_i_glide_ecoul>  (282) 
-8.01614

>  <r_i_glide_erotb>  (282) 
0

>  <r_i_glide_esite>  (282) 
-0.00955865

>  <r_i_glide_emodel>  (282) 
-34.9344

>  <r_i_glide_energy>  (282) 
-23.2848

>  <r_i_glide_einternal>  (282) 
0.0108745

>  <r_i_glide_intrahb_reward>  (282) 
-0.5

>  <i_i_glide_confnum>  (282) 
1

>  <i_i_glide_posenum>  (282) 
32

>  <r_i_glide_eff_state_penalty>  (282) 
0

>  <ligand_id>  (282) 
93

>  <original_smiles>  (282) 
CC12C(=O)CC=C3C(O)C4OC45C4(C)CCC6=C(CCC(=O)C6)C6OCC(O)C(O)C(=O)C5(C4CC1O6)C1(C)OC1C32

>  <smiles>  (282) 
[H]OC1([H])C(=O)C23C4([H])C([H])([H])C5([H])OC([H])(OC([H])([H])C1([H])O[H])C1=C(C([H])([H])C(=O)C([H])([H])C1([H])[H])C([H])([H])C([H])([H])C4(C([H])([H])[H])C21OC1([H])C([H])(O[H])C1=C([H])C([H])([H])C(=O)C5(C([H])([H])[H])C1([H])C1([H])OC13C([H])([H])[H]

$$$$
93:0:1
     RDKit          3D

 80 88  0  0  1  0  0  0  0  0999 V2000
    1.1577   -4.6796    5.4205 C   0  0  0  0  0  0  0  0  0  0  0  0
    2.6448   -4.6824    4.9979 C   0  0  2  0  0  0  0  0  0  0  0  0
    3.0281   -3.2126    4.6902 C   0  0  0  0  0  0  0  0  0  0  0  0
    2.5554   -2.6234    3.7207 O   0  0  0  0  0  0  0  0  0  0  0  0
    3.9672   -2.4652    5.6443 C   0  0  0  0  0  0  0  0  0  0  0  0
    5.1198   -3.3581    6.0731 C   0  0  0  0  0  0  0  0  0  0  0  0
    4.9701   -4.6645    6.3543 C   0  0  0  0  0  0  0  0  0  0  0  0
    6.2072   -5.5535    6.6286 C   0  0  1  0  0  0  0  0  0  0  0  0
    6.2010   -6.1961    7.8832 O   0  0  0  0  0  0  0  0  0  0  0  0
    6.7634   -6.3724    5.4313 C   0  0  1  0  0  0  0  0  0  0  0  0
    7.1078   -7.7743    5.5706 O   0  0  0  0  0  0  0  0  0  0  0  0
    6.1380   -7.4744    4.5688 C   0  0  2  0  0  0  0  0  0  0  0  0
    6.2628   -7.2347    3.0332 C   0  0  2  0  0  0  0  0  0  0  0  0
    6.9621   -8.4528    2.3696 C   0  0  0  0  0  0  0  0  0  0  0  0
    6.7380   -5.9884    2.2010 C   0  0  0  0  0  0  0  0  0  0  0  0
    5.9437   -5.9181    0.8115 C   0  0  0  0  0  0  0  0  0  0  0  0
    5.0562   -4.6841    0.4700 C   0  0  0  0  0  0  0  0  0  0  0  0
    3.6836   -4.5401    0.6223 C   0  0  0  0  0  0  0  0  0  0  0  0
    3.0014   -3.2114    0.2845 C   0  0  0  0  0  0  0  0  0  0  0  0
    3.9328   -1.9932    0.3364 C   0  0  0  0  0  0  0  0  0  0  0  0
    5.2006   -2.2803   -0.4403 C   0  0  0  0  0  0  0  0  0  0  0  0
    5.6289   -1.5101   -1.2979 O   0  0  0  0  0  0  0  0  0  0  0  0
    5.9491   -3.5499   -0.0570 C   0  0  0  0  0  0  0  0  0  0  0  0
    2.6268   -5.5573    1.1719 C   0  0  1  0  0  0  0  0  0  0  0  0
    3.0173   -6.8807    0.9928 O   0  0  0  0  0  0  0  0  0  0  0  0
    2.1706   -7.9758    1.3693 C   0  0  0  0  0  0  0  0  0  0  0  0
    2.9567   -9.3318    1.5372 C   0  0  1  0  0  0  0  0  0  0  0  0
    4.0457   -9.4579    0.6275 O   0  0  0  0  0  0  0  0  0  0  0  0
    3.2856   -9.9006    2.9822 C   0  0  1  0  0  0  0  0  0  0  0  0
    3.1965  -11.3163    2.8747 O   0  0  0  0  0  0  0  0  0  0  0  0
    4.5455   -9.5010    3.8813 C   0  0  0  0  0  0  0  0  0  0  0  0
    5.3385  -10.3933    4.1730 O   0  0  0  0  0  0  0  0  0  0  0  0
    4.6664   -8.0545    4.4453 C   0  0  2  0  0  0  0  0  0  0  0  0
    4.7446   -7.1661    3.2132 C   0  0  1  0  0  0  0  0  0  0  0  0
    4.2460   -5.7497    3.4155 C   0  0  0  0  0  0  0  0  0  0  0  0
    2.7903   -5.5859    3.7013 C   0  0  2  0  0  0  0  0  0  0  0  0
    2.1061   -5.2120    2.4709 O   0  0  0  0  0  0  0  0  0  0  0  0
    3.6727   -7.9238    5.6972 C   0  0  1  0  0  0  0  0  0  0  0  0
    2.5903   -9.0041    5.8825 C   0  0  0  0  0  0  0  0  0  0  0  0
    4.3377   -7.5925    6.9164 O   0  0  0  0  0  0  0  0  0  0  0  0
    3.2939   -6.7059    6.5120 C   0  0  1  0  0  0  0  0  0  0  0  0
    3.5368   -5.2354    6.2132 C   0  0  2  0  0  0  0  0  0  0  0  0
    0.7970   -5.6769    5.6779 H   0  0  0  0  0  0  0  0  0  0  0  0
    0.5147   -4.2931    4.6280 H   0  0  0  0  0  0  0  0  0  0  0  0
    0.9983   -4.0447    6.2883 H   0  0  0  0  0  0  0  0  0  0  0  0
    4.3732   -1.5968    5.1208 H   0  0  0  0  0  0  0  0  0  0  0  0
    3.4179   -2.0909    6.5083 H   0  0  0  0  0  0  0  0  0  0  0  0
    6.0867   -2.8757    6.1219 H   0  0  0  0  0  0  0  0  0  0  0  0
    6.9930   -4.8249    6.8236 H   0  0  0  0  0  0  0  0  0  0  0  0
    5.5979   -6.9288    7.8028 H   0  0  0  0  0  0  0  0  0  0  0  0
    7.5590   -5.8143    4.9479 H   0  0  0  0  0  0  0  0  0  0  0  0
    7.9284   -8.2084    1.9251 H   0  0  0  0  0  0  0  0  0  0  0  0
    6.3580   -8.8874    1.5758 H   0  0  0  0  0  0  0  0  0  0  0  0
    7.1887   -9.2465    3.0756 H   0  0  0  0  0  0  0  0  0  0  0  0
    6.6853   -5.0501    2.7444 H   0  0  0  0  0  0  0  0  0  0  0  0
    7.8009   -6.0712    1.9741 H   0  0  0  0  0  0  0  0  0  0  0  0
    6.6984   -5.9672    0.0321 H   0  0  0  0  0  0  0  0  0  0  0  0
    5.3756   -6.8260    0.6174 H   0  0  0  0  0  0  0  0  0  0  0  0
    2.5274   -3.2766   -0.6981 H   0  0  0  0  0  0  0  0  0  0  0  0
    2.2059   -3.0316    1.0077 H   0  0  0  0  0  0  0  0  0  0  0  0
    3.4336   -1.0950   -0.0342 H   0  0  0  0  0  0  0  0  0  0  0  0
    4.2127   -1.7956    1.3725 H   0  0  0  0  0  0  0  0  0  0  0  0
    6.6810   -3.2991    0.7104 H   0  0  0  0  0  0  0  0  0  0  0  0
    6.5032   -3.8951   -0.9287 H   0  0  0  0  0  0  0  0  0  0  0  0
    1.7846   -5.4390    0.4950 H   0  0  0  0  0  0  0  0  0  0  0  0
    1.6209   -7.7635    2.2812 H   0  0  0  0  0  0  0  0  0  0  0  0
    1.3994   -8.0914    0.6064 H   0  0  0  0  0  0  0  0  0  0  0  0
    2.2379  -10.0490    1.1416 H   0  0  0  0  0  0  0  0  0  0  0  0
    4.2051  -10.4028    0.4771 H   0  0  0  0  0  0  0  0  0  0  0  0
    2.3998   -9.6678    3.5552 H   0  0  0  0  0  0  0  0  0  0  0  0
    3.5943  -11.6039    2.0605 H   0  0  0  0  0  0  0  0  0  0  0  0
    4.4239   -7.6673    2.3511 H   0  0  0  0  0  0  0  0  0  0  0  0
    4.8646   -5.3135    4.1491 H   0  0  0  0  0  0  0  0  0  0  0  0
    4.5475   -4.9946    2.7429 H   0  0  0  0  0  0  0  0  0  0  0  0
    2.3749   -6.5614    3.9467 H   0  0  0  0  0  0  0  0  0  0  0  0
    1.7443   -8.8186    5.2230 H   0  0  0  0  0  0  0  0  0  0  0  0
    2.1867   -8.9626    6.8908 H   0  0  0  0  0  0  0  0  0  0  0  0
    2.9460  -10.0278    5.7854 H   0  0  0  0  0  0  0  0  0  0  0  0
    2.4063   -6.8106    7.1365 H   0  0  0  0  0  0  0  0  0  0  0  0
    3.0991   -4.7632    7.0939 H   0  0  0  0  0  0  0  0  0  0  0  0
  2  1  1  1
  1 43  1  0
  1 44  1  0
  1 45  1  0
  2 36  1  0
  2 42  1  0
  2  3  1  0
  3  4  2  0
  3  5  1  0
  5  6  1  0
  5 46  1  0
  5 47  1  0
  6  7  2  0
  6 48  1  0
  7 42  1  0
  7  8  1  0
  8  9  1  0
  8 10  1  0
  8 49  1  1
  9 50  1  0
 10 12  1  0
 10 11  1  0
 10 51  1  6
 12 11  1  6
 12 33  1  0
 12 13  1  0
 13 34  1  0
 13 14  1  6
 13 15  1  0
 14 52  1  0
 14 53  1  0
 14 54  1  0
 15 16  1  0
 15 55  1  0
 15 56  1  0
 16 17  1  0
 16 57  1  0
 16 58  1  0
 17 23  1  0
 17 18  2  0
 18 19  1  0
 18 24  1  0
 19 20  1  0
 19 59  1  0
 19 60  1  0
 20 21  1  0
 20 61  1  0
 20 62  1  0
 21 22  2  0
 21 23  1  0
 23 63  1  0
 23 64  1  0
 24 37  1  0
 24 25  1  0
 24 65  1  6
 25 26  1  0
 26 27  1  0
 26 66  1  0
 26 67  1  0
 27 28  1  0
 27 29  1  0
 27 68  1  6
 28 69  1  0
 29 30  1  0
 29 31  1  0
 29 70  1  1
 30 71  1  0
 31 32  2  0
 33 31  1  6
 33 34  1  0
 33 38  1  0
 34 35  1  0
 34 72  1  6
 35 36  1  0
 35 73  1  0
 35 74  1  0
 36 37  1  0
 36 75  1  1
 38 41  1  0
 38 39  1  1
 38 40  1  0
 39 76  1  0
 39 77  1  0
 39 78  1  0
 40 41  1  0
 41 42  1  0
 41 79  1  1
 42 80  1  1
M  END
>  <i_m_ct_stereo_status>  (283) 
1

>  <s_m_source_file>  (283) 
/var/tmp/pbs.5076255.sched01/tmpux3k924y/120tsqzh4i4.sdf

>  <i_m_source_file_index>  (283) 
6

>  <i_lp_mmshare_version>  (283) 
48012

>  <i_f3d_flags>  (283) 
0

>  <s_epik_input>  (283) 
Tz1DMVtDSDJdW0NIXT1DKFtDQEBIXShbT0hdKVtDQEhdMk8zKVtDQEhdKFtDQEhdNFtDQEBdNShPNClbQ0gzXSlbQ0BdMShbQ0gzXSlbQ0BIXShbQ0gyXTYpT1tDQEhdKE9bQ0gyXVtDQEBIXShbT0hdKVtDQEBIXShbT0hdKUM3PU8pQyhbQ0gyXVtDSDJdQyg9TylbQ0gyXTgpPUM4W0NIMl1bQ0gyXVtDQF05KFtDSDNdKVtDQEhdNltDQEBdNTdbQ0BAXTIzOQ==

>  <s_epik_cmdline>  (283) 
J2VwaWtfcHl0aG9uJywgJy1waHQnLCAnMi4wJywgJy1waCcsICc3LjAnLCAnLXRuJywgJzgnLCAnLW1hJywgJzIwMCcsICctaW1hZScsICc8aW5maWxlLm1hZT4nLCAnLW9tYWUnLCAnPG91dGZpbGUubWFlPic=

>  <r_lp_tautomer_probability>  (283) 
1

>  <r_epik_Ionization_Penalty>  (283) 
6.92825e-06

>  <r_epik_Ionization_Penalty_Charging>  (283) 
0

>  <r_epik_Ionization_Penalty_Neutral>  (283) 
6.92825e-06

>  <r_epik_State_Penalty>  (283) 
-0

>  <r_epik_Charging_Adjusted_Penalty>  (283) 
0

>  <i_epik_Tot_Q>  (283) 
0

>  <i_epik_Tot_abs_Q>  (283) 
0

>  <s_epik_Chemistry_Notes>  (283) 
This compound contains an acetal/aminal-like group ( X-CH(R)-Y where X, Y are N, S, or O) that may be acid/base labile, releasing an aldehyde.

>  <s_lp_Force_Field>  (283) 
OPLS3e

>  <r_lp_Energy>  (283) 
177.091

>  <b_lp_Chiralities_Consistent>  (283) 
1

>  <s_lp_Variant>  (283) 
93:0-1

>  <s_i_glide_gridfile>  (283) 
pfpi4k_grid

>  <i_i_glide_lignum>  (283) 
6

>  <i_i_glide_rotatable_bonds>  (283) 
3

>  <r_i_docking_score>  (283) 
-3.12896

>  <r_i_glide_ligand_efficiency>  (283) 
-0.0744989

>  <r_i_glide_ligand_efficiency_sa>  (283) 
-0.25896

>  <r_i_glide_ligand_efficiency_ln>  (283) 
-0.660442

>  <r_i_glide_gscore>  (283) 
-3.12896

>  <r_i_glide_lipo>  (283) 
-0.343692

>  <r_i_glide_hbond>  (283) 
-0.0227606

>  <r_i_glide_metal>  (283) 
-0

>  <r_i_glide_rewards>  (283) 
-0.5

>  <r_i_glide_evdw>  (283) 
-22.909

>  <r_i_glide_ecoul>  (283) 
-7.2074

>  <r_i_glide_erotb>  (283) 
0

>  <r_i_glide_esite>  (283) 
-0.0359449

>  <r_i_glide_emodel>  (283) 
-40.4148

>  <r_i_glide_energy>  (283) 
-30.1164

>  <r_i_glide_einternal>  (283) 
2.439

>  <r_i_glide_intrahb_reward>  (283) 
-0.5

>  <i_i_glide_confnum>  (283) 
2

>  <i_i_glide_posenum>  (283) 
40

>  <r_i_glide_eff_state_penalty>  (283) 
0

>  <ligand_id>  (283) 
93

>  <original_smiles>  (283) 
CC12C(=O)CC=C3C(O)C4OC45C4(C)CCC6=C(CCC(=O)C6)C6OCC(O)C(O)C(=O)C5(C4CC1O6)C1(C)OC1C32

>  <smiles>  (283) 
[H]OC1([H])C(=O)C23C4([H])C([H])([H])C5([H])OC([H])(OC([H])([H])C1([H])O[H])C1=C(C([H])([H])C(=O)C([H])([H])C1([H])[H])C([H])([H])C([H])([H])C4(C([H])([H])[H])C21OC1([H])C([H])(O[H])C1=C([H])C([H])([H])C(=O)C5(C([H])([H])[H])C1([H])C1([H])OC13C([H])([H])[H]

$$$$
93:0:2
     RDKit          3D

 80 88  0  0  1  0  0  0  0  0999 V2000
    0.5250   -6.8676    3.7679 C   0  0  0  0  0  0  0  0  0  0  0  0
    1.9207   -6.3240    4.1489 C   0  0  2  0  0  0  0  0  0  0  0  0
    1.8271   -4.7748    4.0997 C   0  0  0  0  0  0  0  0  0  0  0  0
    1.6746   -4.1841    3.0344 O   0  0  0  0  0  0  0  0  0  0  0  0
    1.8640   -3.9805    5.4110 C   0  0  0  0  0  0  0  0  0  0  0  0
    2.9254   -4.5335    6.3449 C   0  0  0  0  0  0  0  0  0  0  0  0
    3.1610   -5.8537    6.4932 C   0  0  0  0  0  0  0  0  0  0  0  0
    4.3624   -6.3410    7.3389 C   0  0  1  0  0  0  0  0  0  0  0  0
    4.0169   -7.1917    8.4087 O   0  0  0  0  0  0  0  0  0  0  0  0
    5.6686   -6.6847    6.5681 C   0  0  1  0  0  0  0  0  0  0  0  0
    6.4040   -7.9076    6.8407 O   0  0  0  0  0  0  0  0  0  0  0  0
    5.9719   -7.7381    5.4879 C   0  0  2  0  0  0  0  0  0  0  0  0
    6.6893   -7.1787    4.2244 C   0  0  2  0  0  0  0  0  0  0  0  0
    8.0138   -7.9585    3.9834 C   0  0  0  0  0  0  0  0  0  0  0  0
    7.0001   -5.7166    3.7612 C   0  0  0  0  0  0  0  0  0  0  0  0
    6.9812   -5.6010    2.1566 C   0  0  0  0  0  0  0  0  0  0  0  0
    5.9549   -4.6661    1.4367 C   0  0  0  0  0  0  0  0  0  0  0  0
    4.7265   -4.9907    0.8857 C   0  0  0  0  0  0  0  0  0  0  0  0
    3.8324   -3.9020    0.2784 C   0  0  0  0  0  0  0  0  0  0  0  0
    4.1060   -2.4903    0.8139 C   0  0  0  0  0  0  0  0  0  0  0  0
    5.5933   -2.2090    0.7517 C   0  0  0  0  0  0  0  0  0  0  0  0
    6.0505   -1.2046    0.2086 O   0  0  0  0  0  0  0  0  0  0  0  0
    6.4899   -3.2258    1.4493 C   0  0  0  0  0  0  0  0  0  0  0  0
    3.9964   -6.3749    0.8122 C   0  0  1  0  0  0  0  0  0  0  0  0
    4.8875   -7.4494    0.8304 O   0  0  0  0  0  0  0  0  0  0  0  0
    4.4270   -8.8035    0.7307 C   0  0  0  0  0  0  0  0  0  0  0  0
    5.4879   -9.8462    1.2500 C   0  0  1  0  0  0  0  0  0  0  0  0
    6.8071   -9.4218    0.9958 O   0  0  0  0  0  0  0  0  0  0  0  0
    5.2922  -10.5685    2.6529 C   0  0  1  0  0  0  0  0  0  0  0  0
    5.8085  -11.8798    2.4763 O   0  0  0  0  0  0  0  0  0  0  0  0
    5.7494   -9.9879    4.0657 C   0  0  0  0  0  0  0  0  0  0  0  0
    6.5958  -10.6217    4.7010 O   0  0  0  0  0  0  0  0  0  0  0  0
    5.0546   -8.7133    4.6365 C   0  0  2  0  0  0  0  0  0  0  0  0
    5.3549   -7.6177    3.6224 C   0  0  1  0  0  0  0  0  0  0  0  0
    4.3374   -6.4927    3.5727 C   0  0  0  0  0  0  0  0  0  0  0  0
    2.9731   -6.8531    3.0888 C   0  0  2  0  0  0  0  0  0  0  0  0
    2.8558   -6.4682    1.6902 O   0  0  0  0  0  0  0  0  0  0  0  0
    3.6284   -9.1529    5.2120 C   0  0  1  0  0  0  0  0  0  0  0  0
    3.0701  -10.5301    4.8141 C   0  0  0  0  0  0  0  0  0  0  0  0
    3.4847   -8.8772    6.6079 O   0  0  0  0  0  0  0  0  0  0  0  0
    2.4954   -8.3022    5.7535 C   0  0  1  0  0  0  0  0  0  0  0  0
    2.2834   -6.8006    5.6404 C   0  0  2  0  0  0  0  0  0  0  0  0
    0.4864   -7.9574    3.7934 H   0  0  0  0  0  0  0  0  0  0  0  0
    0.2322   -6.5577    2.7649 H   0  0  0  0  0  0  0  0  0  0  0  0
   -0.2432   -6.5031    4.4506 H   0  0  0  0  0  0  0  0  0  0  0  0
    2.1142   -2.9448    5.1733 H   0  0  0  0  0  0  0  0  0  0  0  0
    0.8838   -3.9769    5.8850 H   0  0  0  0  0  0  0  0  0  0  0  0
    3.5042   -3.7971    6.8841 H   0  0  0  0  0  0  0  0  0  0  0  0
    4.6352   -5.4568    7.9140 H   0  0  0  0  0  0  0  0  0  0  0  0
    3.8475   -8.0477    8.0273 H   0  0  0  0  0  0  0  0  0  0  0  0
    6.3276   -5.8206    6.5623 H   0  0  0  0  0  0  0  0  0  0  0  0
    8.9095   -7.3450    4.0892 H   0  0  0  0  0  0  0  0  0  0  0  0
    8.0664   -8.3866    2.9854 H   0  0  0  0  0  0  0  0  0  0  0  0
    8.1667   -8.7643    4.6965 H   0  0  0  0  0  0  0  0  0  0  0  0
    6.3665   -4.9645    4.2294 H   0  0  0  0  0  0  0  0  0  0  0  0
    7.9987   -5.4595    4.1101 H   0  0  0  0  0  0  0  0  0  0  0  0
    7.9691   -5.2596    1.8451 H   0  0  0  0  0  0  0  0  0  0  0  0
    6.9430   -6.5811    1.6926 H   0  0  0  0  0  0  0  0  0  0  0  0
    3.9309   -3.9170   -0.8093 H   0  0  0  0  0  0  0  0  0  0  0  0
    2.7900   -4.1347    0.4969 H   0  0  0  0  0  0  0  0  0  0  0  0
    3.5448   -1.7336    0.2625 H   0  0  0  0  0  0  0  0  0  0  0  0
    3.7886   -2.4249    1.8558 H   0  0  0  0  0  0  0  0  0  0  0  0
    6.6007   -2.9065    2.4811 H   0  0  0  0  0  0  0  0  0  0  0  0
    7.4756   -3.1954    0.9846 H   0  0  0  0  0  0  0  0  0  0  0  0
    3.5753   -6.3900   -0.1915 H   0  0  0  0  0  0  0  0  0  0  0  0
    3.4833   -8.9535    1.2461 H   0  0  0  0  0  0  0  0  0  0  0  0
    4.2162   -8.9980   -0.3166 H   0  0  0  0  0  0  0  0  0  0  0  0
    5.4193  -10.6492    0.5230 H   0  0  0  0  0  0  0  0  0  0  0  0
    7.0374   -8.7609    1.6338 H   0  0  0  0  0  0  0  0  0  0  0  0
    4.2254  -10.7467    2.6911 H   0  0  0  0  0  0  0  0  0  0  0  0
    5.3275  -12.2472    1.7353 H   0  0  0  0  0  0  0  0  0  0  0  0
    5.6733   -8.0004    2.7057 H   0  0  0  0  0  0  0  0  0  0  0  0
    4.3380   -6.0399    4.5273 H   0  0  0  0  0  0  0  0  0  0  0  0
    4.6132   -5.5654    3.1507 H   0  0  0  0  0  0  0  0  0  0  0  0
    2.8860   -7.9369    3.0719 H   0  0  0  0  0  0  0  0  0  0  0  0
    2.6208  -10.4911    3.8225 H   0  0  0  0  0  0  0  0  0  0  0  0
    2.2623  -10.8222    5.4856 H   0  0  0  0  0  0  0  0  0  0  0  0
    3.7792  -11.3518    4.8920 H   0  0  0  0  0  0  0  0  0  0  0  0
    1.5336   -8.8058    5.8471 H   0  0  0  0  0  0  0  0  0  0  0  0
    1.3490   -6.6780    6.1895 H   0  0  0  0  0  0  0  0  0  0  0  0
  2  1  1  6
  1 43  1  0
  1 44  1  0
  1 45  1  0
  2 36  1  0
  2 42  1  0
  2  3  1  0
  3  4  2  0
  3  5  1  0
  5  6  1  0
  5 46  1  0
  5 47  1  0
  6  7  2  0
  6 48  1  0
  7 42  1  0
  7  8  1  0
  8  9  1  0
  8 10  1  0
  8 49  1  1
  9 50  1  0
 10 12  1  0
 10 11  1  0
 10 51  1  6
 12 11  1  1
 12 33  1  0
 12 13  1  0
 13 34  1  0
 13 14  1  6
 13 15  1  0
 14 52  1  0
 14 53  1  0
 14 54  1  0
 15 16  1  0
 15 55  1  0
 15 56  1  0
 16 17  1  0
 16 57  1  0
 16 58  1  0
 17 23  1  0
 17 18  2  0
 18 19  1  0
 18 24  1  0
 19 20  1  0
 19 59  1  0
 19 60  1  0
 20 21  1  0
 20 61  1  0
 20 62  1  0
 21 22  2  0
 21 23  1  0
 23 63  1  0
 23 64  1  0
 24 37  1  0
 24 25  1  0
 24 65  1  6
 25 26  1  0
 26 27  1  0
 26 66  1  0
 26 67  1  0
 27 28  1  0
 27 29  1  0
 27 68  1  6
 28 69  1  0
 29 30  1  0
 29 31  1  0
 29 70  1  1
 30 71  1  0
 31 32  2  0
 33 31  1  6
 33 34  1  0
 33 38  1  0
 34 35  1  0
 34 72  1  6
 35 36  1  0
 35 73  1  0
 35 74  1  0
 36 37  1  0
 36 75  1  6
 38 41  1  0
 38 39  1  1
 38 40  1  0
 39 76  1  0
 39 77  1  0
 39 78  1  0
 40 41  1  0
 41 42  1  0
 41 79  1  1
 42 80  1  1
M  END
>  <i_m_ct_stereo_status>  (284) 
1

>  <s_m_source_file>  (284) 
/var/tmp/pbs.5076255.sched01/tmpux3k924y/120tsqzh4i4.sdf

>  <i_m_source_file_index>  (284) 
6

>  <i_lp_mmshare_version>  (284) 
48012

>  <i_f3d_flags>  (284) 
0

>  <s_epik_input>  (284) 
Tz1DMVtDSDJdW0NIXT1DKFtDQEBIXShbT0hdKVtDQEhdMk8zKVtDQEhdKFtDQEhdNFtDQEBdNShPNClbQ0gzXSlbQ0BdMShbQ0gzXSlbQ0BIXShbQ0gyXTYpT1tDQEhdKE9bQ0gyXVtDQEBIXShbT0hdKVtDQEBIXShbT0hdKUM3PU8pQyhbQ0gyXVtDSDJdQyg9TylbQ0gyXTgpPUM4W0NIMl1bQ0gyXVtDQF05KFtDSDNdKVtDQEhdNltDQEBdNTdbQ0BAXTIzOQ==

>  <s_epik_cmdline>  (284) 
J2VwaWtfcHl0aG9uJywgJy1waHQnLCAnMi4wJywgJy1waCcsICc3LjAnLCAnLXRuJywgJzgnLCAnLW1hJywgJzIwMCcsICctaW1hZScsICc8aW5maWxlLm1hZT4nLCAnLW9tYWUnLCAnPG91dGZpbGUubWFlPic=

>  <r_lp_tautomer_probability>  (284) 
1

>  <r_epik_Ionization_Penalty>  (284) 
6.92825e-06

>  <r_epik_Ionization_Penalty_Charging>  (284) 
0

>  <r_epik_Ionization_Penalty_Neutral>  (284) 
6.92825e-06

>  <r_epik_State_Penalty>  (284) 
-0

>  <r_epik_Charging_Adjusted_Penalty>  (284) 
0

>  <i_epik_Tot_Q>  (284) 
0

>  <i_epik_Tot_abs_Q>  (284) 
0

>  <s_epik_Chemistry_Notes>  (284) 
This compound contains an acetal/aminal-like group ( X-CH(R)-Y where X, Y are N, S, or O) that may be acid/base labile, releasing an aldehyde.

>  <s_lp_Force_Field>  (284) 
OPLS3e

>  <r_lp_Energy>  (284) 
177.091

>  <b_lp_Chiralities_Consistent>  (284) 
1

>  <s_lp_Variant>  (284) 
93:0-1

>  <s_i_glide_gridfile>  (284) 
pfpi4k_grid

>  <i_i_glide_lignum>  (284) 
6

>  <i_i_glide_rotatable_bonds>  (284) 
3

>  <r_i_docking_score>  (284) 
-2.98

>  <r_i_glide_ligand_efficiency>  (284) 
-0.0709524

>  <r_i_glide_ligand_efficiency_sa>  (284) 
-0.246632

>  <r_i_glide_ligand_efficiency_ln>  (284) 
-0.629001

>  <r_i_glide_gscore>  (284) 
-2.98

>  <r_i_glide_lipo>  (284) 
-0.233572

>  <r_i_glide_hbond>  (284) 
0

>  <r_i_glide_metal>  (284) 
-0

>  <r_i_glide_rewards>  (284) 
-0.721479

>  <r_i_glide_evdw>  (284) 
-22.2193

>  <r_i_glide_ecoul>  (284) 
-6.06707

>  <r_i_glide_erotb>  (284) 
0

>  <r_i_glide_esite>  (284) 
-0.00392322

>  <r_i_glide_emodel>  (284) 
-39.5006

>  <r_i_glide_energy>  (284) 
-28.2864

>  <r_i_glide_einternal>  (284) 
0.134448

>  <r_i_glide_intrahb_reward>  (284) 
-0.5

>  <i_i_glide_confnum>  (284) 
2

>  <i_i_glide_posenum>  (284) 
29

>  <r_i_glide_eff_state_penalty>  (284) 
0

>  <ligand_id>  (284) 
93

>  <original_smiles>  (284) 
CC12C(=O)CC=C3C(O)C4OC45C4(C)CCC6=C(CCC(=O)C6)C6OCC(O)C(O)C(=O)C5(C4CC1O6)C1(C)OC1C32

>  <smiles>  (284) 
[H]OC1([H])C(=O)C23C4([H])C([H])([H])C5([H])OC([H])(OC([H])([H])C1([H])O[H])C1=C(C([H])([H])C(=O)C([H])([H])C1([H])[H])C([H])([H])C([H])([H])C4(C([H])([H])[H])C21OC1([H])C([H])(O[H])C1=C([H])C([H])([H])C(=O)C5(C([H])([H])[H])C1([H])C1([H])OC13C([H])([H])[H]

$$$$
94:0:0
     RDKit          3D

 32 33  0  0  1  0  0  0  0  0999 V2000
   -1.4799   -9.0020    3.6308 C   0  0  0  0  0  0  0  0  0  0  0  0
   -1.4888   -7.5579    3.1226 C   0  0  0  0  0  0  0  0  0  0  0  0
   -0.0963   -6.9146    3.1390 C   0  0  0  0  0  0  0  0  0  0  0  0
    0.9115   -7.6846    2.2632 C   0  0  0  0  0  0  0  0  0  0  0  0
    2.0894   -6.8714    1.9380 N   0  0  0  0  0  0  0  0  0  0  0  0
    3.2263   -6.9152    2.6401 C   0  0  0  0  0  0  0  0  0  0  0  0
    3.4086   -7.6037    3.6396 O   0  0  0  0  0  0  0  0  0  0  0  0
    4.4794   -5.8911    2.0255 S   0  0  0  0  0  0  0  0  0  0  0  0
    3.3878   -5.3407    0.7536 C   0  0  0  0  0  0  0  0  0  0  0  0
    3.6426   -4.4677   -0.2458 C   0  0  0  0  0  0  0  0  0  0  0  0
    4.8597   -3.6843   -0.4424 C   0  0  0  0  0  0  0  0  0  0  0  0
    5.3669   -3.5146   -1.7431 C   0  0  0  0  0  0  0  0  0  0  0  0
    6.5707   -2.8001   -1.9050 C   0  0  0  0  0  0  0  0  0  0  0  0
    7.2597   -2.2541   -0.8815 N   0  0  0  0  0  0  0  0  0  0  0  0
    6.7600   -2.4117    0.3605 C   0  0  0  0  0  0  0  0  0  0  0  0
    5.5748   -3.1150    0.6323 C   0  0  0  0  0  0  0  0  0  0  0  0
    2.0998   -6.0238    0.8912 C   0  0  0  0  0  0  0  0  0  0  0  0
    1.1233   -5.8567    0.1586 O   0  0  0  0  0  0  0  0  0  0  0  0
   -2.4810   -9.4295    3.5888 H   0  0  0  0  0  0  0  0  0  0  0  0
   -1.1286   -9.0542    4.6623 H   0  0  0  0  0  0  0  0  0  0  0  0
   -0.8403   -9.6496    3.0304 H   0  0  0  0  0  0  0  0  0  0  0  0
   -1.8818   -7.5461    2.1054 H   0  0  0  0  0  0  0  0  0  0  0  0
   -2.1791   -6.9702    3.7318 H   0  0  0  0  0  0  0  0  0  0  0  0
   -0.1813   -5.8865    2.7929 H   0  0  0  0  0  0  0  0  0  0  0  0
    0.2759   -6.8468    4.1609 H   0  0  0  0  0  0  0  0  0  0  0  0
    1.2009   -8.6111    2.7651 H   0  0  0  0  0  0  0  0  0  0  0  0
    0.4291   -8.0074    1.3346 H   0  0  0  0  0  0  0  0  0  0  0  0
    2.8473   -4.2698   -0.9476 H   0  0  0  0  0  0  0  0  0  0  0  0
    4.8671   -3.9412   -2.5999 H   0  0  0  0  0  0  0  0  0  0  0  0
    7.0032   -2.6661   -2.8844 H   0  0  0  0  0  0  0  0  0  0  0  0
    7.3178   -1.9563    1.1633 H   0  0  0  0  0  0  0  0  0  0  0  0
    5.2171   -3.1914    1.6439 H   0  0  0  0  0  0  0  0  0  0  0  0
  1  2  1  0
  1 19  1  0
  1 20  1  0
  1 21  1  0
  2  3  1  0
  2 22  1  0
  2 23  1  0
  3  4  1  0
  3 24  1  0
  3 25  1  0
  4  5  1  0
  4 26  1  0
  4 27  1  0
  5 17  1  0
  5  6  1  0
  6  7  2  0
  6  8  1  0
  8  9  1  0
  9 10  2  3
  9 17  1  0
 10 11  1  0
 10 28  1  0
 11 16  1  0
 11 12  2  0
 12 13  1  0
 12 29  1  0
 13 14  2  0
 13 30  1  0
 14 15  1  0
 15 16  2  0
 15 31  1  0
 16 32  1  0
 17 18  2  0
M  END
>  <i_m_ct_stereo_status>  (285) 
1

>  <s_m_source_file>  (285) 
/var/tmp/pbs.5076255.sched01/tmpux3k924y/120tsqzh4i4.sdf

>  <i_m_source_file_index>  (285) 
7

>  <i_lp_mmshare_version>  (285) 
48012

>  <i_f3d_flags>  (285) 
0

>  <s_epik_input>  (285) 
W0NIM11bQ0gyXVtDSDJdW0NIMl1OMUMoPU8pUy9DKEMxPU8pPVtDSF1cYzJbY0hdW2NIXW5bY0hdW2NIXTI=

>  <s_epik_cmdline>  (285) 
J2VwaWtfcHl0aG9uJywgJy1waHQnLCAnMi4wJywgJy1waCcsICc3LjAnLCAnLXRuJywgJzgnLCAnLW1hJywgJzIwMCcsICctaW1hZScsICc8aW5maWxlLm1hZT4nLCAnLW9tYWUnLCAnPG91dGZpbGUubWFlPic=

>  <r_epik_Ionization_Penalty>  (285) 
0.00439095

>  <r_epik_Ionization_Penalty_Charging>  (285) 
0

>  <r_epik_Ionization_Penalty_Neutral>  (285) 
0.00439095

>  <r_epik_State_Penalty>  (285) 
0.00316394

>  <r_epik_Charging_Adjusted_Penalty>  (285) 
0.00316394

>  <i_epik_Tot_Q>  (285) 
0

>  <i_epik_Tot_abs_Q>  (285) 
0

>  <s_lp_Force_Field>  (285) 
OPLS3e

>  <r_lp_Energy>  (285) 
17.4736

>  <b_lp_Chiralities_Consistent>  (285) 
1

>  <s_lp_Variant>  (285) 
94:0-1

>  <s_i_glide_gridfile>  (285) 
pfpi4k_grid

>  <i_i_glide_lignum>  (285) 
7

>  <i_i_glide_rotatable_bonds>  (285) 
4

>  <r_i_docking_score>  (285) 
-3.9976

>  <r_i_glide_ligand_efficiency>  (285) 
-0.222089

>  <r_i_glide_ligand_efficiency_sa>  (285) 
-0.582038

>  <r_i_glide_ligand_efficiency_ln>  (285) 
-1.02756

>  <r_i_glide_gscore>  (285) 
-3.9976

>  <r_i_glide_lipo>  (285) 
-0.309691

>  <r_i_glide_hbond>  (285) 
-0.456366

>  <r_i_glide_metal>  (285) 
-0

>  <r_i_glide_rewards>  (285) 
-1.62049

>  <r_i_glide_evdw>  (285) 
-21.052

>  <r_i_glide_ecoul>  (285) 
-6.79711

>  <r_i_glide_erotb>  (285) 
0.515523

>  <r_i_glide_esite>  (285) 
-0.0544144

>  <r_i_glide_emodel>  (285) 
-34.1473

>  <r_i_glide_energy>  (285) 
-27.8491

>  <r_i_glide_einternal>  (285) 
2.98881

>  <r_i_glide_intrahb_reward>  (285) 
-0

>  <i_i_glide_confnum>  (285) 
1

>  <i_i_glide_posenum>  (285) 
30

>  <r_i_glide_eff_state_penalty>  (285) 
0

>  <ligand_id>  (285) 
94

>  <original_smiles>  (285) 
CCCCN1C(=O)SC(=Cc2ccncc2)C1=O

>  <smiles>  (285) 
[H]C(=C1SC(=O)N(C([H])([H])C([H])([H])C([H])([H])C([H])([H])[H])C1=O)c1c([H])c([H])nc([H])c1[H]

$$$$
94:0:1
     RDKit          3D

 32 33  0  0  1  0  0  0  0  0999 V2000
   -1.8141   -8.7856    2.8502 C   0  0  0  0  0  0  0  0  0  0  0  0
   -0.7816   -8.5353    3.9613 C   0  0  0  0  0  0  0  0  0  0  0  0
    0.3462   -7.5882    3.5333 C   0  0  0  0  0  0  0  0  0  0  0  0
    1.1779   -8.1613    2.3691 C   0  0  0  0  0  0  0  0  0  0  0  0
    2.1900   -7.2081    1.9071 N   0  0  0  0  0  0  0  0  0  0  0  0
    3.4371   -7.1952    2.3765 C   0  0  0  0  0  0  0  0  0  0  0  0
    3.8650   -7.9539    3.2430 O   0  0  0  0  0  0  0  0  0  0  0  0
    4.4480   -5.9910    1.6573 S   0  0  0  0  0  0  0  0  0  0  0  0
    3.0959   -5.4698    0.6480 C   0  0  0  0  0  0  0  0  0  0  0  0
    3.0620   -4.4715   -0.2589 C   0  0  0  0  0  0  0  0  0  0  0  0
    4.1583   -3.6044   -0.7088 C   0  0  0  0  0  0  0  0  0  0  0  0
    5.5132   -3.9988   -0.6751 C   0  0  0  0  0  0  0  0  0  0  0  0
    6.4983   -3.0898   -1.0856 C   0  0  0  0  0  0  0  0  0  0  0  0
    6.2146   -1.8501   -1.5201 N   0  0  0  0  0  0  0  0  0  0  0  0
    4.9171   -1.4697   -1.5582 C   0  0  0  0  0  0  0  0  0  0  0  0
    3.8591   -2.3074   -1.1641 C   0  0  0  0  0  0  0  0  0  0  0  0
    1.9233   -6.2850    0.9607 C   0  0  0  0  0  0  0  0  0  0  0  0
    0.8138   -6.1754    0.4267 O   0  0  0  0  0  0  0  0  0  0  0  0
   -2.5847   -9.4546    3.2081 H   0  0  0  0  0  0  0  0  0  0  0  0
   -1.3802   -9.2772    1.9785 H   0  0  0  0  0  0  0  0  0  0  0  0
   -2.2753   -7.8531    2.5185 H   0  0  0  0  0  0  0  0  0  0  0  0
   -1.2914   -8.1249    4.8350 H   0  0  0  0  0  0  0  0  0  0  0  0
   -0.3543   -9.4858    4.2829 H   0  0  0  0  0  0  0  0  0  0  0  0
   -0.0738   -6.6168    3.2689 H   0  0  0  0  0  0  0  0  0  0  0  0
    1.0004   -7.4043    4.3862 H   0  0  0  0  0  0  0  0  0  0  0  0
    1.6254   -9.1148    2.6612 H   0  0  0  0  0  0  0  0  0  0  0  0
    0.5373   -8.3971    1.5195 H   0  0  0  0  0  0  0  0  0  0  0  0
    2.1332   -4.3084   -0.7767 H   0  0  0  0  0  0  0  0  0  0  0  0
    5.8172   -4.9851   -0.3727 H   0  0  0  0  0  0  0  0  0  0  0  0
    7.5374   -3.3745   -1.0748 H   0  0  0  0  0  0  0  0  0  0  0  0
    4.7298   -0.4660   -1.9102 H   0  0  0  0  0  0  0  0  0  0  0  0
    2.8418   -1.9412   -1.2068 H   0  0  0  0  0  0  0  0  0  0  0  0
  1  2  1  0
  1 19  1  0
  1 20  1  0
  1 21  1  0
  2  3  1  0
  2 22  1  0
  2 23  1  0
  3  4  1  0
  3 24  1  0
  3 25  1  0
  4  5  1  0
  4 26  1  0
  4 27  1  0
  5 17  1  0
  5  6  1  0
  6  7  2  0
  6  8  1  0
  8  9  1  0
  9 10  2  3
  9 17  1  0
 10 11  1  0
 10 28  1  0
 11 16  1  0
 11 12  2  0
 12 13  1  0
 12 29  1  0
 13 14  2  0
 13 30  1  0
 14 15  1  0
 15 16  2  0
 15 31  1  0
 16 32  1  0
 17 18  2  0
M  END
>  <i_m_ct_stereo_status>  (286) 
1

>  <s_m_source_file>  (286) 
/var/tmp/pbs.5076255.sched01/tmpux3k924y/120tsqzh4i4.sdf

>  <i_m_source_file_index>  (286) 
7

>  <i_lp_mmshare_version>  (286) 
48012

>  <i_f3d_flags>  (286) 
0

>  <s_epik_input>  (286) 
W0NIM11bQ0gyXVtDSDJdW0NIMl1OMUMoPU8pUy9DKEMxPU8pPVtDSF1cYzJbY0hdW2NIXW5bY0hdW2NIXTI=

>  <s_epik_cmdline>  (286) 
J2VwaWtfcHl0aG9uJywgJy1waHQnLCAnMi4wJywgJy1waCcsICc3LjAnLCAnLXRuJywgJzgnLCAnLW1hJywgJzIwMCcsICctaW1hZScsICc8aW5maWxlLm1hZT4nLCAnLW9tYWUnLCAnPG91dGZpbGUubWFlPic=

>  <r_epik_Ionization_Penalty>  (286) 
0.00439095

>  <r_epik_Ionization_Penalty_Charging>  (286) 
0

>  <r_epik_Ionization_Penalty_Neutral>  (286) 
0.00439095

>  <r_epik_State_Penalty>  (286) 
0.00316394

>  <r_epik_Charging_Adjusted_Penalty>  (286) 
0.00316394

>  <i_epik_Tot_Q>  (286) 
0

>  <i_epik_Tot_abs_Q>  (286) 
0

>  <s_lp_Force_Field>  (286) 
OPLS3e

>  <r_lp_Energy>  (286) 
17.4736

>  <b_lp_Chiralities_Consistent>  (286) 
1

>  <s_lp_Variant>  (286) 
94:0-1

>  <s_i_glide_gridfile>  (286) 
pfpi4k_grid

>  <i_i_glide_lignum>  (286) 
7

>  <i_i_glide_rotatable_bonds>  (286) 
4

>  <r_i_docking_score>  (286) 
-3.89941

>  <r_i_glide_ligand_efficiency>  (286) 
-0.216634

>  <r_i_glide_ligand_efficiency_sa>  (286) 
-0.567741

>  <r_i_glide_ligand_efficiency_ln>  (286) 
-1.00232

>  <r_i_glide_gscore>  (286) 
-3.89941

>  <r_i_glide_lipo>  (286) 
-0.155899

>  <r_i_glide_hbond>  (286) 
-0.386324

>  <r_i_glide_metal>  (286) 
-0

>  <r_i_glide_rewards>  (286) 
-1.62081

>  <r_i_glide_evdw>  (286) 
-22.1656

>  <r_i_glide_ecoul>  (286) 
-7.26329

>  <r_i_glide_erotb>  (286) 
0.515523

>  <r_i_glide_esite>  (286) 
-0.0541236

>  <r_i_glide_emodel>  (286) 
-36.527

>  <r_i_glide_energy>  (286) 
-29.4288

>  <r_i_glide_einternal>  (286) 
0.975061

>  <r_i_glide_intrahb_reward>  (286) 
-0

>  <i_i_glide_confnum>  (286) 
1

>  <i_i_glide_posenum>  (286) 
24

>  <r_i_glide_eff_state_penalty>  (286) 
0

>  <ligand_id>  (286) 
94

>  <original_smiles>  (286) 
CCCCN1C(=O)SC(=Cc2ccncc2)C1=O

>  <smiles>  (286) 
[H]C(=C1SC(=O)N(C([H])([H])C([H])([H])C([H])([H])C([H])([H])[H])C1=O)c1c([H])c([H])nc([H])c1[H]

$$$$
94:0:2
     RDKit          3D

 32 33  0  0  1  0  0  0  0  0999 V2000
   -1.8159   -8.9033    2.8210 C   0  0  0  0  0  0  0  0  0  0  0  0
   -0.9419   -8.4388    3.9949 C   0  0  0  0  0  0  0  0  0  0  0  0
    0.1711   -7.4772    3.5645 C   0  0  0  0  0  0  0  0  0  0  0  0
    1.1646   -8.1259    2.5801 C   0  0  0  0  0  0  0  0  0  0  0  0
    2.1569   -7.1623    2.0986 N   0  0  0  0  0  0  0  0  0  0  0  0
    3.3933   -7.0894    2.5947 C   0  0  0  0  0  0  0  0  0  0  0  0
    3.8191   -7.7719    3.5246 O   0  0  0  0  0  0  0  0  0  0  0  0
    4.4009   -5.9208    1.8072 S   0  0  0  0  0  0  0  0  0  0  0  0
    3.0481   -5.4770    0.7616 C   0  0  0  0  0  0  0  0  0  0  0  0
    3.0368   -4.5698   -0.2344 C   0  0  0  0  0  0  0  0  0  0  0  0
    4.1114   -3.6425   -0.6096 C   0  0  0  0  0  0  0  0  0  0  0  0
    4.3395   -3.3538   -1.9668 C   0  0  0  0  0  0  0  0  0  0  0  0
    5.3964   -2.4909   -2.3029 C   0  0  0  0  0  0  0  0  0  0  0  0
    6.2151   -1.9216   -1.3925 N   0  0  0  0  0  0  0  0  0  0  0  0
    5.9887   -2.1999   -0.0915 C   0  0  0  0  0  0  0  0  0  0  0  0
    4.9590   -3.0488    0.3461 C   0  0  0  0  0  0  0  0  0  0  0  0
    1.8906   -6.3081    1.0888 C   0  0  0  0  0  0  0  0  0  0  0  0
    0.7906   -6.2568    0.5251 O   0  0  0  0  0  0  0  0  0  0  0  0
   -2.5875   -9.5733    3.1839 H   0  0  0  0  0  0  0  0  0  0  0  0
   -1.2590   -9.4785    2.0809 H   0  0  0  0  0  0  0  0  0  0  0  0
   -2.2903   -8.0608    2.3138 H   0  0  0  0  0  0  0  0  0  0  0  0
   -1.5758   -7.9544    4.7397 H   0  0  0  0  0  0  0  0  0  0  0  0
   -0.5062   -9.3072    4.4896 H   0  0  0  0  0  0  0  0  0  0  0  0
   -0.2738   -6.5844    3.1285 H   0  0  0  0  0  0  0  0  0  0  0  0
    0.7096   -7.1373    4.4478 H   0  0  0  0  0  0  0  0  0  0  0  0
    1.6240   -8.9993    3.0531 H   0  0  0  0  0  0  0  0  0  0  0  0
    0.6511   -8.5240    1.7029 H   0  0  0  0  0  0  0  0  0  0  0  0
    2.1231   -4.4551   -0.7988 H   0  0  0  0  0  0  0  0  0  0  0  0
    3.7204   -3.7907   -2.7399 H   0  0  0  0  0  0  0  0  0  0  0  0
    5.5986   -2.2655   -3.3385 H   0  0  0  0  0  0  0  0  0  0  0  0
    6.6468   -1.7379    0.6254 H   0  0  0  0  0  0  0  0  0  0  0  0
    4.8155   -3.2135    1.4028 H   0  0  0  0  0  0  0  0  0  0  0  0
  1  2  1  0
  1 19  1  0
  1 20  1  0
  1 21  1  0
  2  3  1  0
  2 22  1  0
  2 23  1  0
  3  4  1  0
  3 24  1  0
  3 25  1  0
  4  5  1  0
  4 26  1  0
  4 27  1  0
  5 17  1  0
  5  6  1  0
  6  7  2  0
  6  8  1  0
  8  9  1  0
  9 10  2  3
  9 17  1  0
 10 11  1  0
 10 28  1  0
 11 16  1  0
 11 12  2  0
 12 13  1  0
 12 29  1  0
 13 14  2  0
 13 30  1  0
 14 15  1  0
 15 16  2  0
 15 31  1  0
 16 32  1  0
 17 18  2  0
M  END
>  <i_m_ct_stereo_status>  (287) 
1

>  <s_m_source_file>  (287) 
/var/tmp/pbs.5076255.sched01/tmpux3k924y/120tsqzh4i4.sdf

>  <i_m_source_file_index>  (287) 
7

>  <i_lp_mmshare_version>  (287) 
48012

>  <i_f3d_flags>  (287) 
0

>  <s_epik_input>  (287) 
W0NIM11bQ0gyXVtDSDJdW0NIMl1OMUMoPU8pUy9DKEMxPU8pPVtDSF1cYzJbY0hdW2NIXW5bY0hdW2NIXTI=

>  <s_epik_cmdline>  (287) 
J2VwaWtfcHl0aG9uJywgJy1waHQnLCAnMi4wJywgJy1waCcsICc3LjAnLCAnLXRuJywgJzgnLCAnLW1hJywgJzIwMCcsICctaW1hZScsICc8aW5maWxlLm1hZT4nLCAnLW9tYWUnLCAnPG91dGZpbGUubWFlPic=

>  <r_epik_Ionization_Penalty>  (287) 
0.00439095

>  <r_epik_Ionization_Penalty_Charging>  (287) 
0

>  <r_epik_Ionization_Penalty_Neutral>  (287) 
0.00439095

>  <r_epik_State_Penalty>  (287) 
0.00316394

>  <r_epik_Charging_Adjusted_Penalty>  (287) 
0.00316394

>  <i_epik_Tot_Q>  (287) 
0

>  <i_epik_Tot_abs_Q>  (287) 
0

>  <s_lp_Force_Field>  (287) 
OPLS3e

>  <r_lp_Energy>  (287) 
17.4736

>  <b_lp_Chiralities_Consistent>  (287) 
1

>  <s_lp_Variant>  (287) 
94:0-1

>  <s_i_glide_gridfile>  (287) 
pfpi4k_grid

>  <i_i_glide_lignum>  (287) 
7

>  <i_i_glide_rotatable_bonds>  (287) 
4

>  <r_i_docking_score>  (287) 
-3.65042

>  <r_i_glide_ligand_efficiency>  (287) 
-0.202801

>  <r_i_glide_ligand_efficiency_sa>  (287) 
-0.531489

>  <r_i_glide_ligand_efficiency_ln>  (287) 
-0.938321

>  <r_i_glide_gscore>  (287) 
-3.65042

>  <r_i_glide_lipo>  (287) 
-0.127512

>  <r_i_glide_hbond>  (287) 
-0.348388

>  <r_i_glide_metal>  (287) 
-0

>  <r_i_glide_rewards>  (287) 
-1.62049

>  <r_i_glide_evdw>  (287) 
-22.3177

>  <r_i_glide_ecoul>  (287) 
-5.99965

>  <r_i_glide_erotb>  (287) 
0.515523

>  <r_i_glide_esite>  (287) 
-0.0537191

>  <r_i_glide_emodel>  (287) 
-34.3197

>  <r_i_glide_energy>  (287) 
-28.3174

>  <r_i_glide_einternal>  (287) 
2.14429

>  <r_i_glide_intrahb_reward>  (287) 
-0

>  <i_i_glide_confnum>  (287) 
1

>  <i_i_glide_posenum>  (287) 
27

>  <r_i_glide_eff_state_penalty>  (287) 
0

>  <ligand_id>  (287) 
94

>  <original_smiles>  (287) 
CCCCN1C(=O)SC(=Cc2ccncc2)C1=O

>  <smiles>  (287) 
[H]C(=C1SC(=O)N(C([H])([H])C([H])([H])C([H])([H])C([H])([H])[H])C1=O)c1c([H])c([H])nc([H])c1[H]

$$$$
94:1:0
     RDKit          3D

 32 33  0  0  1  0  0  0  0  0999 V2000
    3.2045    0.3265   -4.6338 C   0  0  0  0  0  0  0  0  0  0  0  0
    3.6375   -1.0986   -4.2842 C   0  0  0  0  0  0  0  0  0  0  0  0
    3.7319   -1.3408   -2.7707 C   0  0  0  0  0  0  0  0  0  0  0  0
    4.1881   -2.7828   -2.4716 C   0  0  0  0  0  0  0  0  0  0  0  0
    4.5199   -2.9611   -1.0416 N   0  0  0  0  0  0  0  0  0  0  0  0
    5.6676   -2.5016   -0.5067 C   0  0  0  0  0  0  0  0  0  0  0  0
    6.5537   -1.8755   -1.1112 O   0  0  0  0  0  0  0  0  0  0  0  0
    5.8066   -2.8413    1.1896 S   0  0  0  0  0  0  0  0  0  0  0  0
    4.2422   -3.6831    1.1690 C   0  0  0  0  0  0  0  0  0  0  0  0
    3.7270   -4.3099    2.2439 C   0  0  0  0  0  0  0  0  0  0  0  0
    2.5188   -5.1563    2.3674 C   0  0  0  0  0  0  0  0  0  0  0  0
    2.0499   -6.0086    1.3389 C   0  0  0  0  0  0  0  0  0  0  0  0
    0.8501   -6.7125    1.5265 C   0  0  0  0  0  0  0  0  0  0  0  0
    0.1216   -6.6404    2.6558 N   0  0  0  0  0  0  0  0  0  0  0  0
    0.6075   -5.9043    3.6757 C   0  0  0  0  0  0  0  0  0  0  0  0
    1.7751   -5.1289    3.5668 C   0  0  0  0  0  0  0  0  0  0  0  0
    3.6544   -3.5377   -0.1651 C   0  0  0  0  0  0  0  0  0  0  0  0
    2.4992   -3.8654   -0.4596 O   0  0  0  0  0  0  0  0  0  0  0  0
    3.1609    0.4604   -5.7149 H   0  0  0  0  0  0  0  0  0  0  0  0
    3.9011    1.0601   -4.2232 H   0  0  0  0  0  0  0  0  0  0  0  0
    2.2145    0.5426   -4.2290 H   0  0  0  0  0  0  0  0  0  0  0  0
    2.9434   -1.8142   -4.7223 H   0  0  0  0  0  0  0  0  0  0  0  0
    4.6099   -1.2929   -4.7308 H   0  0  0  0  0  0  0  0  0  0  0  0
    4.4226   -0.6198   -2.3415 H   0  0  0  0  0  0  0  0  0  0  0  0
    2.7634   -1.1495   -2.3043 H   0  0  0  0  0  0  0  0  0  0  0  0
    3.3915   -3.4499   -2.7974 H   0  0  0  0  0  0  0  0  0  0  0  0
    5.0432   -3.0637   -3.0899 H   0  0  0  0  0  0  0  0  0  0  0  0
    4.3073   -4.2339    3.1456 H   0  0  0  0  0  0  0  0  0  0  0  0
    2.5892   -6.1173    0.4070 H   0  0  0  0  0  0  0  0  0  0  0  0
    0.4494   -7.3167    0.7283 H   0  0  0  0  0  0  0  0  0  0  0  0
    0.0273   -5.9145    4.5868 H   0  0  0  0  0  0  0  0  0  0  0  0
    2.0888   -4.5192    4.4058 H   0  0  0  0  0  0  0  0  0  0  0  0
  1  2  1  0
  1 19  1  0
  1 20  1  0
  1 21  1  0
  2  3  1  0
  2 22  1  0
  2 23  1  0
  3  4  1  0
  3 24  1  0
  3 25  1  0
  4  5  1  0
  4 26  1  0
  4 27  1  0
  5 17  1  0
  5  6  1  0
  6  7  2  0
  6  8  1  0
  8  9  1  0
  9 10  2  3
  9 17  1  0
 10 11  1  0
 10 28  1  0
 11 16  1  0
 11 12  2  0
 12 13  1  0
 12 29  1  0
 13 14  2  0
 13 30  1  0
 14 15  1  0
 15 16  2  0
 15 31  1  0
 16 32  1  0
 17 18  2  0
M  END
>  <i_m_ct_stereo_status>  (288) 
1

>  <s_m_source_file>  (288) 
/var/tmp/pbs.5076255.sched01/tmpux3k924y/120tsqzh4i4.sdf

>  <i_m_source_file_index>  (288) 
8

>  <i_lp_mmshare_version>  (288) 
48012

>  <i_f3d_flags>  (288) 
0

>  <s_epik_input>  (288) 
W0NIM11bQ0gyXVtDSDJdW0NIMl1OMUMoPU8pUy9DKEMxPU8pPVtDSF1cYzJbY0hdW2NIXW5bY0hdW2NIXTI=

>  <s_epik_cmdline>  (288) 
J2VwaWtfcHl0aG9uJywgJy1waHQnLCAnMi4wJywgJy1waCcsICc3LjAnLCAnLXRuJywgJzgnLCAnLW1hJywgJzIwMCcsICctaW1hZScsICc8aW5maWxlLm1hZT4nLCAnLW9tYWUnLCAnPG91dGZpbGUubWFlPic=

>  <r_epik_Ionization_Penalty>  (288) 
0.00439095

>  <r_epik_Ionization_Penalty_Charging>  (288) 
0

>  <r_epik_Ionization_Penalty_Neutral>  (288) 
0.00439095

>  <r_epik_State_Penalty>  (288) 
0.00316394

>  <r_epik_Charging_Adjusted_Penalty>  (288) 
0.00316394

>  <i_epik_Tot_Q>  (288) 
0

>  <i_epik_Tot_abs_Q>  (288) 
0

>  <s_lp_Force_Field>  (288) 
OPLS3e

>  <r_lp_Energy>  (288) 
19.7747

>  <b_lp_Chiralities_Consistent>  (288) 
1

>  <s_lp_Variant>  (288) 
94:0-2

>  <s_i_glide_gridfile>  (288) 
pfpi4k_grid

>  <i_i_glide_lignum>  (288) 
8

>  <i_i_glide_rotatable_bonds>  (288) 
4

>  <r_i_docking_score>  (288) 
-3.33297

>  <r_i_glide_ligand_efficiency>  (288) 
-0.185165

>  <r_i_glide_ligand_efficiency_sa>  (288) 
-0.485269

>  <r_i_glide_ligand_efficiency_ln>  (288) 
-0.856722

>  <r_i_glide_gscore>  (288) 
-3.33297

>  <r_i_glide_lipo>  (288) 
-0.134232

>  <r_i_glide_hbond>  (288) 
-0.266849

>  <r_i_glide_metal>  (288) 
-0

>  <r_i_glide_rewards>  (288) 
-1.63885

>  <r_i_glide_evdw>  (288) 
-25.1212

>  <r_i_glide_ecoul>  (288) 
-3.5984

>  <r_i_glide_erotb>  (288) 
0.515523

>  <r_i_glide_esite>  (288) 
-0.0127446

>  <r_i_glide_emodel>  (288) 
-34.4872

>  <r_i_glide_energy>  (288) 
-28.7196

>  <r_i_glide_einternal>  (288) 
0.881846

>  <r_i_glide_intrahb_reward>  (288) 
-0

>  <i_i_glide_confnum>  (288) 
1

>  <i_i_glide_posenum>  (288) 
32

>  <r_i_glide_eff_state_penalty>  (288) 
0

>  <ligand_id>  (288) 
94

>  <original_smiles>  (288) 
CCCCN1C(=O)SC(=Cc2ccncc2)C1=O

>  <smiles>  (288) 
[H]C(=C1SC(=O)N(C([H])([H])C([H])([H])C([H])([H])C([H])([H])[H])C1=O)c1c([H])c([H])nc([H])c1[H]

$$$$
94:1:1
     RDKit          3D

 32 33  0  0  1  0  0  0  0  0999 V2000
   -1.6849    1.7066    4.2041 C   0  0  0  0  0  0  0  0  0  0  0  0
   -1.2441    1.2390    2.8090 C   0  0  0  0  0  0  0  0  0  0  0  0
    0.0978    1.8643    2.3993 C   0  0  0  0  0  0  0  0  0  0  0  0
    1.3141    1.4166    3.2541 C   0  0  0  0  0  0  0  0  0  0  0  0
    1.5867   -0.0359    3.1464 N   0  0  0  0  0  0  0  0  0  0  0  0
    1.0414   -0.9823    3.9285 C   0  0  0  0  0  0  0  0  0  0  0  0
    0.2907   -0.7876    4.9092 O   0  0  0  0  0  0  0  0  0  0  0  0
    1.4622   -2.6065    3.4972 S   0  0  0  0  0  0  0  0  0  0  0  0
    2.4945   -1.9834    2.2161 C   0  0  0  0  0  0  0  0  0  0  0  0
    3.2681   -2.8030    1.4766 C   0  0  0  0  0  0  0  0  0  0  0  0
    4.2209   -2.5057    0.3859 C   0  0  0  0  0  0  0  0  0  0  0  0
    4.0084   -1.4929   -0.5684 C   0  0  0  0  0  0  0  0  0  0  0  0
    5.0472   -1.1847   -1.4611 C   0  0  0  0  0  0  0  0  0  0  0  0
    6.2223   -1.8644   -1.4992 N   0  0  0  0  0  0  0  0  0  0  0  0
    6.3763   -2.9017   -0.6628 C   0  0  0  0  0  0  0  0  0  0  0  0
    5.4213   -3.2435    0.3156 C   0  0  0  0  0  0  0  0  0  0  0  0
    2.4576   -0.5269    2.2012 C   0  0  0  0  0  0  0  0  0  0  0  0
    3.1413    0.1982    1.4762 O   0  0  0  0  0  0  0  0  0  0  0  0
   -2.5898    1.1713    4.4936 H   0  0  0  0  0  0  0  0  0  0  0  0
   -1.8872    2.7769    4.2133 H   0  0  0  0  0  0  0  0  0  0  0  0
   -0.9503    1.5062    4.9829 H   0  0  0  0  0  0  0  0  0  0  0  0
   -1.1925    0.1518    2.7744 H   0  0  0  0  0  0  0  0  0  0  0  0
   -2.0087    1.4867    2.0673 H   0  0  0  0  0  0  0  0  0  0  0  0
    0.2804    1.6579    1.3411 H   0  0  0  0  0  0  0  0  0  0  0  0
    0.0078    2.9482    2.4579 H   0  0  0  0  0  0  0  0  0  0  0  0
    2.1633    2.0109    2.9039 H   0  0  0  0  0  0  0  0  0  0  0  0
    1.2121    1.7346    4.3008 H   0  0  0  0  0  0  0  0  0  0  0  0
    3.1935   -3.8522    1.7277 H   0  0  0  0  0  0  0  0  0  0  0  0
    3.0914   -0.9128   -0.5976 H   0  0  0  0  0  0  0  0  0  0  0  0
    4.9566   -0.3517   -2.1338 H   0  0  0  0  0  0  0  0  0  0  0  0
    7.2995   -3.4608   -0.7654 H   0  0  0  0  0  0  0  0  0  0  0  0
    5.6257   -4.0593    0.9959 H   0  0  0  0  0  0  0  0  0  0  0  0
  1  2  1  0
  1 19  1  0
  1 20  1  0
  1 21  1  0
  2  3  1  0
  2 22  1  0
  2 23  1  0
  3  4  1  0
  3 24  1  0
  3 25  1  0
  4  5  1  0
  4 26  1  0
  4 27  1  0
  5 17  1  0
  5  6  1  0
  6  7  2  0
  6  8  1  0
  8  9  1  0
  9 10  2  3
  9 17  1  0
 10 11  1  0
 10 28  1  0
 11 16  1  0
 11 12  2  0
 12 13  1  0
 12 29  1  0
 13 14  2  0
 13 30  1  0
 14 15  1  0
 15 16  2  0
 15 31  1  0
 16 32  1  0
 17 18  2  0
M  END
>  <i_m_ct_stereo_status>  (289) 
1

>  <s_m_source_file>  (289) 
/var/tmp/pbs.5076255.sched01/tmpux3k924y/120tsqzh4i4.sdf

>  <i_m_source_file_index>  (289) 
8

>  <i_lp_mmshare_version>  (289) 
48012

>  <i_f3d_flags>  (289) 
0

>  <s_epik_input>  (289) 
W0NIM11bQ0gyXVtDSDJdW0NIMl1OMUMoPU8pUy9DKEMxPU8pPVtDSF1cYzJbY0hdW2NIXW5bY0hdW2NIXTI=

>  <s_epik_cmdline>  (289) 
J2VwaWtfcHl0aG9uJywgJy1waHQnLCAnMi4wJywgJy1waCcsICc3LjAnLCAnLXRuJywgJzgnLCAnLW1hJywgJzIwMCcsICctaW1hZScsICc8aW5maWxlLm1hZT4nLCAnLW9tYWUnLCAnPG91dGZpbGUubWFlPic=

>  <r_epik_Ionization_Penalty>  (289) 
0.00439095

>  <r_epik_Ionization_Penalty_Charging>  (289) 
0

>  <r_epik_Ionization_Penalty_Neutral>  (289) 
0.00439095

>  <r_epik_State_Penalty>  (289) 
0.00316394

>  <r_epik_Charging_Adjusted_Penalty>  (289) 
0.00316394

>  <i_epik_Tot_Q>  (289) 
0

>  <i_epik_Tot_abs_Q>  (289) 
0

>  <s_lp_Force_Field>  (289) 
OPLS3e

>  <r_lp_Energy>  (289) 
19.7747

>  <b_lp_Chiralities_Consistent>  (289) 
1

>  <s_lp_Variant>  (289) 
94:0-2

>  <s_i_glide_gridfile>  (289) 
pfpi4k_grid

>  <i_i_glide_lignum>  (289) 
8

>  <i_i_glide_rotatable_bonds>  (289) 
4

>  <r_i_docking_score>  (289) 
-3.10442

>  <r_i_glide_ligand_efficiency>  (289) 
-0.172468

>  <r_i_glide_ligand_efficiency_sa>  (289) 
-0.451994

>  <r_i_glide_ligand_efficiency_ln>  (289) 
-0.797976

>  <r_i_glide_gscore>  (289) 
-3.10442

>  <r_i_glide_lipo>  (289) 
-0.0996488

>  <r_i_glide_hbond>  (289) 
-0.145077

>  <r_i_glide_metal>  (289) 
-0

>  <r_i_glide_rewards>  (289) 
-1.62049

>  <r_i_glide_evdw>  (289) 
-20.7234

>  <r_i_glide_ecoul>  (289) 
-4.47021

>  <r_i_glide_erotb>  (289) 
0.515523

>  <r_i_glide_esite>  (289) 
-0.0480285

>  <r_i_glide_emodel>  (289) 
-28.9041

>  <r_i_glide_energy>  (289) 
-25.1937

>  <r_i_glide_einternal>  (289) 
3.20313

>  <r_i_glide_intrahb_reward>  (289) 
-0

>  <i_i_glide_confnum>  (289) 
3

>  <i_i_glide_posenum>  (289) 
24

>  <r_i_glide_eff_state_penalty>  (289) 
0

>  <ligand_id>  (289) 
94

>  <original_smiles>  (289) 
CCCCN1C(=O)SC(=Cc2ccncc2)C1=O

>  <smiles>  (289) 
[H]C(=C1SC(=O)N(C([H])([H])C([H])([H])C([H])([H])C([H])([H])[H])C1=O)c1c([H])c([H])nc([H])c1[H]

$$$$
94:1:2
     RDKit          3D

 32 33  0  0  1  0  0  0  0  0999 V2000
    1.1738   -0.1280    5.3916 C   0  0  0  0  0  0  0  0  0  0  0  0
    0.1226   -1.2457    5.3097 C   0  0  0  0  0  0  0  0  0  0  0  0
    0.4086   -2.2598    4.1931 C   0  0  0  0  0  0  0  0  0  0  0  0
    1.6608   -3.1097    4.4934 C   0  0  0  0  0  0  0  0  0  0  0  0
    1.9678   -4.0296    3.3910 N   0  0  0  0  0  0  0  0  0  0  0  0
    1.4460   -5.2662    3.2950 C   0  0  0  0  0  0  0  0  0  0  0  0
    0.6276   -5.7565    4.0887 O   0  0  0  0  0  0  0  0  0  0  0  0
    1.9797   -6.1342    1.8941 S   0  0  0  0  0  0  0  0  0  0  0  0
    2.9837   -4.7634    1.4146 C   0  0  0  0  0  0  0  0  0  0  0  0
    3.8029   -4.7765    0.3373 C   0  0  0  0  0  0  0  0  0  0  0  0
    4.7930   -3.7868   -0.1332 C   0  0  0  0  0  0  0  0  0  0  0  0
    5.4907   -2.9074    0.7330 C   0  0  0  0  0  0  0  0  0  0  0  0
    6.3385   -1.9430    0.1792 C   0  0  0  0  0  0  0  0  0  0  0  0
    6.6079   -1.8565   -1.1410 N   0  0  0  0  0  0  0  0  0  0  0  0
    6.0055   -2.7483   -1.9660 C   0  0  0  0  0  0  0  0  0  0  0  0
    5.0826   -3.7091   -1.5178 C   0  0  0  0  0  0  0  0  0  0  0  0
    2.7510   -3.6589    2.3538 C   0  0  0  0  0  0  0  0  0  0  0  0
    3.1713   -2.5060    2.2264 O   0  0  0  0  0  0  0  0  0  0  0  0
    0.9376    0.5685    6.1949 H   0  0  0  0  0  0  0  0  0  0  0  0
    1.2240    0.4320    4.4566 H   0  0  0  0  0  0  0  0  0  0  0  0
    2.1717   -0.5150    5.5974 H   0  0  0  0  0  0  0  0  0  0  0  0
    0.0695   -1.7740    6.2617 H   0  0  0  0  0  0  0  0  0  0  0  0
   -0.8592   -0.7997    5.1441 H   0  0  0  0  0  0  0  0  0  0  0  0
   -0.4472   -2.9238    4.0841 H   0  0  0  0  0  0  0  0  0  0  0  0
    0.5031   -1.7372    3.2381 H   0  0  0  0  0  0  0  0  0  0  0  0
    2.5163   -2.4501    4.6439 H   0  0  0  0  0  0  0  0  0  0  0  0
    1.5535   -3.6420    5.4433 H   0  0  0  0  0  0  0  0  0  0  0  0
    3.7796   -5.6777   -0.2602 H   0  0  0  0  0  0  0  0  0  0  0  0
    5.3726   -2.9306    1.8016 H   0  0  0  0  0  0  0  0  0  0  0  0
    6.8231   -1.2179    0.8183 H   0  0  0  0  0  0  0  0  0  0  0  0
    6.2839   -2.6724   -3.0078 H   0  0  0  0  0  0  0  0  0  0  0  0
    4.6223   -4.3724   -2.2308 H   0  0  0  0  0  0  0  0  0  0  0  0
  1  2  1  0
  1 19  1  0
  1 20  1  0
  1 21  1  0
  2  3  1  0
  2 22  1  0
  2 23  1  0
  3  4  1  0
  3 24  1  0
  3 25  1  0
  4  5  1  0
  4 26  1  0
  4 27  1  0
  5 17  1  0
  5  6  1  0
  6  7  2  0
  6  8  1  0
  8  9  1  0
  9 10  2  3
  9 17  1  0
 10 11  1  0
 10 28  1  0
 11 16  1  0
 11 12  2  0
 12 13  1  0
 12 29  1  0
 13 14  2  0
 13 30  1  0
 14 15  1  0
 15 16  2  0
 15 31  1  0
 16 32  1  0
 17 18  2  0
M  END
>  <i_m_ct_stereo_status>  (290) 
1

>  <s_m_source_file>  (290) 
/var/tmp/pbs.5076255.sched01/tmpux3k924y/120tsqzh4i4.sdf

>  <i_m_source_file_index>  (290) 
8

>  <i_lp_mmshare_version>  (290) 
48012

>  <i_f3d_flags>  (290) 
0

>  <s_epik_input>  (290) 
W0NIM11bQ0gyXVtDSDJdW0NIMl1OMUMoPU8pUy9DKEMxPU8pPVtDSF1cYzJbY0hdW2NIXW5bY0hdW2NIXTI=

>  <s_epik_cmdline>  (290) 
J2VwaWtfcHl0aG9uJywgJy1waHQnLCAnMi4wJywgJy1waCcsICc3LjAnLCAnLXRuJywgJzgnLCAnLW1hJywgJzIwMCcsICctaW1hZScsICc8aW5maWxlLm1hZT4nLCAnLW9tYWUnLCAnPG91dGZpbGUubWFlPic=

>  <r_epik_Ionization_Penalty>  (290) 
0.00439095

>  <r_epik_Ionization_Penalty_Charging>  (290) 
0

>  <r_epik_Ionization_Penalty_Neutral>  (290) 
0.00439095

>  <r_epik_State_Penalty>  (290) 
0.00316394

>  <r_epik_Charging_Adjusted_Penalty>  (290) 
0.00316394

>  <i_epik_Tot_Q>  (290) 
0

>  <i_epik_Tot_abs_Q>  (290) 
0

>  <s_lp_Force_Field>  (290) 
OPLS3e

>  <r_lp_Energy>  (290) 
19.7747

>  <b_lp_Chiralities_Consistent>  (290) 
1

>  <s_lp_Variant>  (290) 
94:0-2

>  <s_i_glide_gridfile>  (290) 
pfpi4k_grid

>  <i_i_glide_lignum>  (290) 
8

>  <i_i_glide_rotatable_bonds>  (290) 
4

>  <r_i_docking_score>  (290) 
-3.00317

>  <r_i_glide_ligand_efficiency>  (290) 
-0.166843

>  <r_i_glide_ligand_efficiency_sa>  (290) 
-0.437252

>  <r_i_glide_ligand_efficiency_ln>  (290) 
-0.77195

>  <r_i_glide_gscore>  (290) 
-3.00317

>  <r_i_glide_lipo>  (290) 
-0.192448

>  <r_i_glide_hbond>  (290) 
-0.16

>  <r_i_glide_metal>  (290) 
-0

>  <r_i_glide_rewards>  (290) 
-1.62049

>  <r_i_glide_evdw>  (290) 
-16.882

>  <r_i_glide_ecoul>  (290) 
-4.53418

>  <r_i_glide_erotb>  (290) 
0.515523

>  <r_i_glide_esite>  (290) 
-0.0215302

>  <r_i_glide_emodel>  (290) 
-26.4481

>  <r_i_glide_energy>  (290) 
-21.4162

>  <r_i_glide_einternal>  (290) 
0.950593

>  <r_i_glide_intrahb_reward>  (290) 
-0

>  <i_i_glide_confnum>  (290) 
1

>  <i_i_glide_posenum>  (290) 
4

>  <r_i_glide_eff_state_penalty>  (290) 
0

>  <ligand_id>  (290) 
94

>  <original_smiles>  (290) 
CCCCN1C(=O)SC(=Cc2ccncc2)C1=O

>  <smiles>  (290) 
[H]C(=C1SC(=O)N(C([H])([H])C([H])([H])C([H])([H])C([H])([H])[H])C1=O)c1c([H])c([H])nc([H])c1[H]

$$$$
95:0:0
     RDKit          3D

 35 37  0  0  1  0  0  0  0  0999 V2000
    3.1976   -2.4955   -3.9244 C   0  0  0  0  0  0  0  0  0  0  0  0
    3.8176   -2.4647   -2.5263 C   0  0  0  0  0  0  0  0  0  0  0  0
    3.8947   -0.9969   -2.0931 C   0  0  0  0  0  0  0  0  0  0  0  0
    2.9093   -3.2575   -1.5579 C   0  0  0  0  0  0  0  0  0  0  0  0
    3.5053   -3.4033   -0.1636 C   0  0  0  0  0  0  0  0  0  0  0  0
    2.7368   -3.4747    0.8009 O   0  0  0  0  0  0  0  0  0  0  0  0
    4.9861   -3.4837   -0.0595 C   0  0  0  0  0  0  0  0  0  0  0  0
    5.7582   -3.3496   -1.1607 C   0  0  0  0  0  0  0  0  0  0  0  0
    7.1500   -3.4235   -1.0573 N   0  0  0  0  0  0  0  0  0  0  0  0
    7.8280   -3.6801    0.0746 C   0  0  0  0  0  0  0  0  0  0  0  0
    9.0491   -3.7871    0.1008 O   0  0  0  0  0  0  0  0  0  0  0  0
    7.0829   -3.8287    1.1819 N   0  0  0  0  0  0  0  0  0  0  0  0
    5.6295   -3.6950    1.3051 C   0  0  1  0  0  0  0  0  0  0  0  0
    5.2763   -2.5862    2.2632 C   0  0  0  0  0  0  0  0  0  0  0  0
    4.4339   -2.7712    3.4041 C   0  0  0  0  0  0  0  0  0  0  0  0
    4.2097   -1.6143    4.1060 C   0  0  0  0  0  0  0  0  0  0  0  0
    5.0297   -0.2626    3.3793 S   0  0  0  0  0  0  0  0  0  0  0  0
    5.6882   -1.2807    2.1301 C   0  0  0  0  0  0  0  0  0  0  0  0
    5.2371   -3.0658   -2.5565 C   0  0  0  0  0  0  0  0  0  0  0  0
    2.1803   -2.1055   -3.9224 H   0  0  0  0  0  0  0  0  0  0  0  0
    3.1521   -3.5073   -4.3260 H   0  0  0  0  0  0  0  0  0  0  0  0
    3.7651   -1.8831   -4.6223 H   0  0  0  0  0  0  0  0  0  0  0  0
    4.3474   -0.8559   -1.1128 H   0  0  0  0  0  0  0  0  0  0  0  0
    2.8761   -0.6246   -2.0419 H   0  0  0  0  0  0  0  0  0  0  0  0
    4.4519   -0.3781   -2.7979 H   0  0  0  0  0  0  0  0  0  0  0  0
    1.9427   -2.7677   -1.4720 H   0  0  0  0  0  0  0  0  0  0  0  0
    2.7150   -4.2537   -1.9286 H   0  0  0  0  0  0  0  0  0  0  0  0
    7.6882   -3.3362   -1.9085 H   0  0  0  0  0  0  0  0  0  0  0  0
    7.5913   -4.0132    2.0366 H   0  0  0  0  0  0  0  0  0  0  0  0
    5.2674   -4.6483    1.6892 H   0  0  0  0  0  0  0  0  0  0  0  0
    4.0016   -3.7323    3.6476 H   0  0  0  0  0  0  0  0  0  0  0  0
    3.5934   -1.4731    4.9884 H   0  0  0  0  0  0  0  0  0  0  0  0
    6.3109   -0.8620    1.3495 H   0  0  0  0  0  0  0  0  0  0  0  0
    5.2463   -4.0022   -3.1136 H   0  0  0  0  0  0  0  0  0  0  0  0
    5.9138   -2.3901   -3.0728 H   0  0  0  0  0  0  0  0  0  0  0  0
  1  2  1  0
  1 20  1  0
  1 21  1  0
  1 22  1  0
  2 19  1  0
  2  3  1  0
  2  4  1  0
  3 23  1  0
  3 24  1  0
  3 25  1  0
  4 26  1  0
  4 27  1  0
  4  5  1  0
  5  6  2  0
  5  7  1  0
  7 13  1  0
  7  8  2  0
  8 19  1  0
  8  9  1  0
  9 10  1  0
  9 28  1  0
 10 11  2  0
 10 12  1  0
 12 13  1  0
 12 29  1  0
 13 14  1  0
 13 30  1  1
 14 18  2  0
 14 15  1  0
 15 16  2  0
 15 31  1  0
 16 17  1  0
 16 32  1  0
 17 18  1  0
 18 33  1  0
 19 34  1  0
 19 35  1  0
M  END
>  <i_m_ct_stereo_status>  (291) 
1

>  <s_m_source_file>  (291) 
/var/tmp/pbs.5076255.sched01/tmpux3k924y/120tsqzh4i4.sdf

>  <i_m_source_file_index>  (291) 
9

>  <i_lp_mmshare_version>  (291) 
48012

>  <i_f3d_flags>  (291) 
0

>  <s_epik_input>  (291) 
Tz1DMVtDSDJdQyhbQ0gzXSkoW0NIM10pW0NIMl1DKFtDQEBIXTEyKT1OQyg9TylbTkhdW0NASF0yYzNbY0hdW2NIXXNbY0hdMw==

>  <s_epik_cmdline>  (291) 
J2VwaWtfcHl0aG9uJywgJy1waHQnLCAnMi4wJywgJy1waCcsICc3LjAnLCAnLXRuJywgJzgnLCAnLW1hJywgJzIwMCcsICctaW1hZScsICc8aW5maWxlLm1hZT4nLCAnLW9tYWUnLCAnPG91dGZpbGUubWFlPic=

>  <r_lp_tautomer_probability>  (291) 
1

>  <r_epik_Ionization_Penalty>  (291) 
2.12506e-05

>  <r_epik_Ionization_Penalty_Charging>  (291) 
0

>  <r_epik_Ionization_Penalty_Neutral>  (291) 
2.12506e-05

>  <r_epik_State_Penalty>  (291) 
-0

>  <r_epik_Charging_Adjusted_Penalty>  (291) 
0

>  <i_epik_Tot_Q>  (291) 
0

>  <i_epik_Tot_abs_Q>  (291) 
0

>  <s_lp_Force_Field>  (291) 
OPLS3e

>  <r_lp_Energy>  (291) 
31.2239

>  <b_lp_Chiralities_Consistent>  (291) 
1

>  <s_lp_Variant>  (291) 
95:0-1

>  <s_i_glide_gridfile>  (291) 
pfpi4k_grid

>  <i_i_glide_lignum>  (291) 
9

>  <i_i_glide_rotatable_bonds>  (291) 
1

>  <r_i_docking_score>  (291) 
-4.35851

>  <r_i_glide_ligand_efficiency>  (291) 
-0.229395

>  <r_i_glide_ligand_efficiency_sa>  (291) 
-0.612119

>  <r_i_glide_ligand_efficiency_ln>  (291) 
-1.10498

>  <r_i_glide_gscore>  (291) 
-4.35851

>  <r_i_glide_lipo>  (291) 
-0.946573

>  <r_i_glide_hbond>  (291) 
-0.101939

>  <r_i_glide_metal>  (291) 
-0

>  <r_i_glide_rewards>  (291) 
-1.81515

>  <r_i_glide_evdw>  (291) 
-26.0332

>  <r_i_glide_ecoul>  (291) 
-2.85834

>  <r_i_glide_erotb>  (291) 
0.23556

>  <r_i_glide_esite>  (291) 
0

>  <r_i_glide_emodel>  (291) 
-36.9109

>  <r_i_glide_energy>  (291) 
-28.8915

>  <r_i_glide_einternal>  (291) 
0.000151746

>  <r_i_glide_intrahb_reward>  (291) 
-0

>  <i_i_glide_confnum>  (291) 
3

>  <i_i_glide_posenum>  (291) 
1

>  <r_i_glide_eff_state_penalty>  (291) 
0

>  <ligand_id>  (291) 
95

>  <original_smiles>  (291) 
CC1(C)CC(=O)C2C(=NC(=O)NC2c2ccsc2)C1

>  <smiles>  (291) 
[H]c1sc([H])c(C2([H])C3=C(N([H])C(=O)N2[H])C([H])([H])C(C([H])([H])[H])(C([H])([H])[H])C([H])([H])C3=O)c1[H]

$$$$
95:0:1
     RDKit          3D

 35 37  0  0  1  0  0  0  0  0999 V2000
   -0.5954    1.2731    2.0732 C   0  0  0  0  0  0  0  0  0  0  0  0
   -0.6459    1.7474    3.5293 C   0  0  0  0  0  0  0  0  0  0  0  0
   -1.8595    2.6935    3.6760 C   0  0  0  0  0  0  0  0  0  0  0  0
   -0.7876    0.5094    4.4428 C   0  0  0  0  0  0  0  0  0  0  0  0
   -0.6930    0.8527    5.9259 C   0  0  0  0  0  0  0  0  0  0  0  0
   -1.3595    0.1912    6.7272 O   0  0  0  0  0  0  0  0  0  0  0  0
    0.2125    1.9681    6.3083 C   0  0  0  0  0  0  0  0  0  0  0  0
    0.8443    2.6921    5.3627 C   0  0  0  0  0  0  0  0  0  0  0  0
    1.6971    3.7366    5.7303 N   0  0  0  0  0  0  0  0  0  0  0  0
    1.9675    4.1157    6.9980 C   0  0  0  0  0  0  0  0  0  0  0  0
    2.7327    5.0356    7.2614 O   0  0  0  0  0  0  0  0  0  0  0  0
    1.3454    3.4107    7.9603 N   0  0  0  0  0  0  0  0  0  0  0  0
    0.3733    2.3263    7.7847 C   0  0  1  0  0  0  0  0  0  0  0  0
   -0.9424    2.6912    8.4387 C   0  0  0  0  0  0  0  0  0  0  0  0
   -1.2777    2.3520    9.7872 C   0  0  0  0  0  0  0  0  0  0  0  0
   -2.5378    2.7454   10.1509 C   0  0  0  0  0  0  0  0  0  0  0  0
   -3.3630    3.5458    8.8544 S   0  0  0  0  0  0  0  0  0  0  0  0
   -1.9656    3.3724    7.8228 C   0  0  0  0  0  0  0  0  0  0  0  0
    0.6595    2.5104    3.8643 C   0  0  0  0  0  0  0  0  0  0  0  0
   -1.4920    0.7139    1.8099 H   0  0  0  0  0  0  0  0  0  0  0  0
    0.2624    0.6315    1.8724 H   0  0  0  0  0  0  0  0  0  0  0  0
   -0.5302    2.1171    1.3940 H   0  0  0  0  0  0  0  0  0  0  0  0
   -1.9371    3.1209    4.6688 H   0  0  0  0  0  0  0  0  0  0  0  0
   -2.7971    2.1762    3.4772 H   0  0  0  0  0  0  0  0  0  0  0  0
   -1.7987    3.5318    2.9836 H   0  0  0  0  0  0  0  0  0  0  0  0
   -1.7510    0.0324    4.2754 H   0  0  0  0  0  0  0  0  0  0  0  0
   -0.0199   -0.2339    4.2203 H   0  0  0  0  0  0  0  0  0  0  0  0
    2.1329    4.2610    4.9868 H   0  0  0  0  0  0  0  0  0  0  0  0
    1.5552    3.6764    8.9124 H   0  0  0  0  0  0  0  0  0  0  0  0
    0.7944    1.4523    8.2855 H   0  0  0  0  0  0  0  0  0  0  0  0
   -0.6024    1.8207   10.4369 H   0  0  0  0  0  0  0  0  0  0  0  0
   -3.0369    2.5972   11.1046 H   0  0  0  0  0  0  0  0  0  0  0  0
   -1.9832    3.7459    6.8164 H   0  0  0  0  0  0  0  0  0  0  0  0
    1.5325    1.9625    3.5035 H   0  0  0  0  0  0  0  0  0  0  0  0
    0.6818    3.4824    3.3659 H   0  0  0  0  0  0  0  0  0  0  0  0
  1  2  1  0
  1 20  1  0
  1 21  1  0
  1 22  1  0
  2 19  1  0
  2  3  1  0
  2  4  1  0
  3 23  1  0
  3 24  1  0
  3 25  1  0
  4 26  1  0
  4 27  1  0
  4  5  1  0
  5  6  2  0
  5  7  1  0
  7 13  1  0
  7  8  2  0
  8 19  1  0
  8  9  1  0
  9 10  1  0
  9 28  1  0
 10 11  2  0
 10 12  1  0
 12 13  1  0
 12 29  1  0
 13 14  1  0
 13 30  1  1
 14 18  2  0
 14 15  1  0
 15 16  2  0
 15 31  1  0
 16 17  1  0
 16 32  1  0
 17 18  1  0
 18 33  1  0
 19 34  1  0
 19 35  1  0
M  END
>  <i_m_ct_stereo_status>  (292) 
1

>  <s_m_source_file>  (292) 
/var/tmp/pbs.5076255.sched01/tmpux3k924y/120tsqzh4i4.sdf

>  <i_m_source_file_index>  (292) 
9

>  <i_lp_mmshare_version>  (292) 
48012

>  <i_f3d_flags>  (292) 
0

>  <s_epik_input>  (292) 
Tz1DMVtDSDJdQyhbQ0gzXSkoW0NIM10pW0NIMl1DKFtDQEBIXTEyKT1OQyg9TylbTkhdW0NASF0yYzNbY0hdW2NIXXNbY0hdMw==

>  <s_epik_cmdline>  (292) 
J2VwaWtfcHl0aG9uJywgJy1waHQnLCAnMi4wJywgJy1waCcsICc3LjAnLCAnLXRuJywgJzgnLCAnLW1hJywgJzIwMCcsICctaW1hZScsICc8aW5maWxlLm1hZT4nLCAnLW9tYWUnLCAnPG91dGZpbGUubWFlPic=

>  <r_lp_tautomer_probability>  (292) 
1

>  <r_epik_Ionization_Penalty>  (292) 
2.12506e-05

>  <r_epik_Ionization_Penalty_Charging>  (292) 
0

>  <r_epik_Ionization_Penalty_Neutral>  (292) 
2.12506e-05

>  <r_epik_State_Penalty>  (292) 
-0

>  <r_epik_Charging_Adjusted_Penalty>  (292) 
0

>  <i_epik_Tot_Q>  (292) 
0

>  <i_epik_Tot_abs_Q>  (292) 
0

>  <s_lp_Force_Field>  (292) 
OPLS3e

>  <r_lp_Energy>  (292) 
31.2239

>  <b_lp_Chiralities_Consistent>  (292) 
1

>  <s_lp_Variant>  (292) 
95:0-1

>  <s_i_glide_gridfile>  (292) 
pfpi4k_grid

>  <i_i_glide_lignum>  (292) 
9

>  <i_i_glide_rotatable_bonds>  (292) 
1

>  <r_i_docking_score>  (292) 
-3.3817

>  <r_i_glide_ligand_efficiency>  (292) 
-0.177984

>  <r_i_glide_ligand_efficiency_sa>  (292) 
-0.474933

>  <r_i_glide_ligand_efficiency_ln>  (292) 
-0.857333

>  <r_i_glide_gscore>  (292) 
-3.3817

>  <r_i_glide_lipo>  (292) 
-0.076655

>  <r_i_glide_hbond>  (292) 
-0.155181

>  <r_i_glide_metal>  (292) 
-0

>  <r_i_glide_rewards>  (292) 
-1.52485

>  <r_i_glide_evdw>  (292) 
-19.1794

>  <r_i_glide_ecoul>  (292) 
-5.84268

>  <r_i_glide_erotb>  (292) 
0.23556

>  <r_i_glide_esite>  (292) 
-0.0251951

>  <r_i_glide_emodel>  (292) 
-30.767

>  <r_i_glide_energy>  (292) 
-25.0221

>  <r_i_glide_einternal>  (292) 
0.731968

>  <r_i_glide_intrahb_reward>  (292) 
-0

>  <i_i_glide_confnum>  (292) 
3

>  <i_i_glide_posenum>  (292) 
2

>  <r_i_glide_eff_state_penalty>  (292) 
0

>  <ligand_id>  (292) 
95

>  <original_smiles>  (292) 
CC1(C)CC(=O)C2C(=NC(=O)NC2c2ccsc2)C1

>  <smiles>  (292) 
[H]c1sc([H])c(C2([H])C3=C(N([H])C(=O)N2[H])C([H])([H])C(C([H])([H])[H])(C([H])([H])[H])C([H])([H])C3=O)c1[H]

$$$$
95:0:2
     RDKit          3D

 35 37  0  0  1  0  0  0  0  0999 V2000
    1.0986    1.2008    3.5190 C   0  0  0  0  0  0  0  0  0  0  0  0
   -0.3720    1.6694    3.4468 C   0  0  0  0  0  0  0  0  0  0  0  0
   -0.9380    1.2461    2.0854 C   0  0  0  0  0  0  0  0  0  0  0  0
   -1.2075    1.0163    4.5743 C   0  0  0  0  0  0  0  0  0  0  0  0
   -0.7938    1.4900    5.9665 C   0  0  0  0  0  0  0  0  0  0  0  0
   -0.8664    0.6921    6.9053 O   0  0  0  0  0  0  0  0  0  0  0  0
   -0.3527    2.9062    6.0952 C   0  0  0  0  0  0  0  0  0  0  0  0
   -0.2062    3.6790    5.0010 C   0  0  0  0  0  0  0  0  0  0  0  0
    0.1992    5.0126    5.1204 N   0  0  0  0  0  0  0  0  0  0  0  0
    0.4827    5.6278    6.2876 C   0  0  0  0  0  0  0  0  0  0  0  0
    0.8314    6.8013    6.3399 O   0  0  0  0  0  0  0  0  0  0  0  0
    0.3617    4.8750    7.3937 N   0  0  0  0  0  0  0  0  0  0  0  0
   -0.1001    3.4869    7.4808 C   0  0  1  0  0  0  0  0  0  0  0  0
   -1.3171    3.3898    8.3520 C   0  0  0  0  0  0  0  0  0  0  0  0
   -1.2821    2.9843    9.7205 C   0  0  0  0  0  0  0  0  0  0  0  0
   -2.5236    2.9215   10.2800 C   0  0  0  0  0  0  0  0  0  0  0  0
   -3.7720    3.3467    9.1476 S   0  0  0  0  0  0  0  0  0  0  0  0
   -2.5875    3.6348    7.9084 C   0  0  0  0  0  0  0  0  0  0  0  0
   -0.4417    3.2090    3.5780 C   0  0  0  0  0  0  0  0  0  0  0  0
    1.1622    0.1145    3.4708 H   0  0  0  0  0  0  0  0  0  0  0  0
    1.5989    1.5140    4.4340 H   0  0  0  0  0  0  0  0  0  0  0  0
    1.6802    1.6055    2.6914 H   0  0  0  0  0  0  0  0  0  0  0  0
   -1.9656    1.5798    1.9424 H   0  0  0  0  0  0  0  0  0  0  0  0
   -0.9255    0.1641    1.9850 H   0  0  0  0  0  0  0  0  0  0  0  0
   -0.3425    1.6437    1.2635 H   0  0  0  0  0  0  0  0  0  0  0  0
   -2.2694    1.2290    4.4515 H   0  0  0  0  0  0  0  0  0  0  0  0
   -1.0976   -0.0660    4.5414 H   0  0  0  0  0  0  0  0  0  0  0  0
    0.3222    5.5419    4.2699 H   0  0  0  0  0  0  0  0  0  0  0  0
    0.5822    5.3299    8.2669 H   0  0  0  0  0  0  0  0  0  0  0  0
    0.7237    2.9218    7.9184 H   0  0  0  0  0  0  0  0  0  0  0  0
   -0.3645    2.7321   10.2303 H   0  0  0  0  0  0  0  0  0  0  0  0
   -2.7953    2.6212   11.2710 H   0  0  0  0  0  0  0  0  0  0  0  0
   -2.9023    3.9168    6.9148 H   0  0  0  0  0  0  0  0  0  0  0  0
    0.2691    3.6874    2.9027 H   0  0  0  0  0  0  0  0  0  0  0  0
   -1.4270    3.5731    3.2848 H   0  0  0  0  0  0  0  0  0  0  0  0
  1  2  1  0
  1 20  1  0
  1 21  1  0
  1 22  1  0
  2 19  1  0
  2  3  1  0
  2  4  1  0
  3 23  1  0
  3 24  1  0
  3 25  1  0
  4 26  1  0
  4 27  1  0
  4  5  1  0
  5  6  2  0
  5  7  1  0
  7 13  1  0
  7  8  2  0
  8 19  1  0
  8  9  1  0
  9 10  1  0
  9 28  1  0
 10 11  2  0
 10 12  1  0
 12 13  1  0
 12 29  1  0
 13 14  1  0
 13 30  1  1
 14 18  2  0
 14 15  1  0
 15 16  2  0
 15 31  1  0
 16 17  1  0
 16 32  1  0
 17 18  1  0
 18 33  1  0
 19 34  1  0
 19 35  1  0
M  END
>  <i_m_ct_stereo_status>  (293) 
1

>  <s_m_source_file>  (293) 
/var/tmp/pbs.5076255.sched01/tmpux3k924y/120tsqzh4i4.sdf

>  <i_m_source_file_index>  (293) 
9

>  <i_lp_mmshare_version>  (293) 
48012

>  <i_f3d_flags>  (293) 
0

>  <s_epik_input>  (293) 
Tz1DMVtDSDJdQyhbQ0gzXSkoW0NIM10pW0NIMl1DKFtDQEBIXTEyKT1OQyg9TylbTkhdW0NASF0yYzNbY0hdW2NIXXNbY0hdMw==

>  <s_epik_cmdline>  (293) 
J2VwaWtfcHl0aG9uJywgJy1waHQnLCAnMi4wJywgJy1waCcsICc3LjAnLCAnLXRuJywgJzgnLCAnLW1hJywgJzIwMCcsICctaW1hZScsICc8aW5maWxlLm1hZT4nLCAnLW9tYWUnLCAnPG91dGZpbGUubWFlPic=

>  <r_lp_tautomer_probability>  (293) 
1

>  <r_epik_Ionization_Penalty>  (293) 
2.12506e-05

>  <r_epik_Ionization_Penalty_Charging>  (293) 
0

>  <r_epik_Ionization_Penalty_Neutral>  (293) 
2.12506e-05

>  <r_epik_State_Penalty>  (293) 
-0

>  <r_epik_Charging_Adjusted_Penalty>  (293) 
0

>  <i_epik_Tot_Q>  (293) 
0

>  <i_epik_Tot_abs_Q>  (293) 
0

>  <s_lp_Force_Field>  (293) 
OPLS3e

>  <r_lp_Energy>  (293) 
31.2239

>  <b_lp_Chiralities_Consistent>  (293) 
1

>  <s_lp_Variant>  (293) 
95:0-1

>  <s_i_glide_gridfile>  (293) 
pfpi4k_grid

>  <i_i_glide_lignum>  (293) 
9

>  <i_i_glide_rotatable_bonds>  (293) 
1

>  <r_i_docking_score>  (293) 
-3.26012

>  <r_i_glide_ligand_efficiency>  (293) 
-0.171585

>  <r_i_glide_ligand_efficiency_sa>  (293) 
-0.457858

>  <r_i_glide_ligand_efficiency_ln>  (293) 
-0.826509

>  <r_i_glide_gscore>  (293) 
-3.26012

>  <r_i_glide_lipo>  (293) 
-0.183618

>  <r_i_glide_hbond>  (293) 
-0.0314448

>  <r_i_glide_metal>  (293) 
-0

>  <r_i_glide_rewards>  (293) 
-1.52485

>  <r_i_glide_evdw>  (293) 
-21.4496

>  <r_i_glide_ecoul>  (293) 
-4.21208

>  <r_i_glide_erotb>  (293) 
0.23556

>  <r_i_glide_esite>  (293) 
-0.0514706

>  <r_i_glide_emodel>  (293) 
-31.3119

>  <r_i_glide_energy>  (293) 
-25.6616

>  <r_i_glide_einternal>  (293) 
0.521789

>  <r_i_glide_intrahb_reward>  (293) 
-0

>  <i_i_glide_confnum>  (293) 
1

>  <i_i_glide_posenum>  (293) 
15

>  <r_i_glide_eff_state_penalty>  (293) 
0

>  <ligand_id>  (293) 
95

>  <original_smiles>  (293) 
CC1(C)CC(=O)C2C(=NC(=O)NC2c2ccsc2)C1

>  <smiles>  (293) 
[H]c1sc([H])c(C2([H])C3=C(N([H])C(=O)N2[H])C([H])([H])C(C([H])([H])[H])(C([H])([H])[H])C([H])([H])C3=O)c1[H]

$$$$
96:0:0
     RDKit          3D

 49 52  0  0  1  0  0  0  0  0999 V2000
    4.1715   -1.9312   -3.2539 C   0  0  0  0  0  0  0  0  0  0  0  0
    4.4894   -2.5469   -2.2465 C   0  0  0  0  0  0  0  0  0  0  0  0
    4.8931   -3.2731   -1.0197 C   0  0  1  0  0  0  0  0  0  0  0  0
    5.0142   -4.6461   -1.3131 O   0  0  0  0  0  0  0  0  0  0  0  0
    6.2775   -2.8412   -0.5158 C   0  0  0  0  0  0  0  0  0  0  0  0
    6.3389   -3.2607    0.9605 C   0  0  0  0  0  0  0  0  0  0  0  0
    4.8897   -3.5286    1.4375 C   0  0  2  0  0  0  0  0  0  0  0  0
    4.7204   -4.9817    1.9878 C   0  0  1  0  0  0  0  0  0  0  0  0
    5.4572   -5.0932    3.3468 C   0  0  0  0  0  0  0  0  0  0  0  0
    5.0215   -6.2488    4.2151 C   0  0  0  0  0  0  0  0  0  0  0  0
    3.9937   -7.0567    3.9137 C   0  0  0  0  0  0  0  0  0  0  0  0
    3.4261   -8.1118    4.8367 C   0  0  0  0  0  0  0  0  0  0  0  0
    1.9109   -7.9458    4.7018 C   0  0  0  0  0  0  0  0  0  0  0  0
    1.7572   -7.1855    3.3906 C   0  0  0  0  0  0  0  0  0  0  0  0
    0.6587   -6.8376    2.9552 O   0  0  0  0  0  0  0  0  0  0  0  0
    3.1073   -6.8963    2.7023 C   0  0  2  0  0  0  0  0  0  0  0  0
    3.4267   -8.0365    1.7109 C   0  0  0  0  0  0  0  0  0  0  0  0
    3.2396   -5.4683    2.0512 C   0  0  2  0  0  0  0  0  0  0  0  0
    2.6679   -5.3399    0.6119 C   0  0  1  0  0  0  0  0  0  0  0  0
    1.3571   -5.8564    0.4576 O   0  0  0  0  0  0  0  0  0  0  0  0
    2.6302   -3.8585    0.1819 C   0  0  0  0  0  0  0  0  0  0  0  0
    3.9887   -3.1036    0.2419 C   0  0  2  0  0  0  0  0  0  0  0  0
    3.6363   -1.6013    0.4458 C   0  0  0  0  0  0  0  0  0  0  0  0
    3.8695   -1.3961   -4.1264 H   0  0  0  0  0  0  0  0  0  0  0  0
    4.2179   -4.9434   -1.7412 H   0  0  0  0  0  0  0  0  0  0  0  0
    7.1013   -3.2569   -1.1028 H   0  0  0  0  0  0  0  0  0  0  0  0
    6.3736   -1.7554   -0.5723 H   0  0  0  0  0  0  0  0  0  0  0  0
    6.9683   -4.1460    1.0577 H   0  0  0  0  0  0  0  0  0  0  0  0
    6.8058   -2.4750    1.5534 H   0  0  0  0  0  0  0  0  0  0  0  0
    4.6693   -2.8544    2.2639 H   0  0  0  0  0  0  0  0  0  0  0  0
    5.2254   -5.6632    1.3027 H   0  0  0  0  0  0  0  0  0  0  0  0
    6.5295   -5.1918    3.1863 H   0  0  0  0  0  0  0  0  0  0  0  0
    5.3192   -4.1909    3.9423 H   0  0  0  0  0  0  0  0  0  0  0  0
    5.5441   -6.3793    5.1485 H   0  0  0  0  0  0  0  0  0  0  0  0
    3.7267   -9.0960    4.4677 H   0  0  0  0  0  0  0  0  0  0  0  0
    3.7747   -8.0118    5.8651 H   0  0  0  0  0  0  0  0  0  0  0  0
    1.3821   -8.8961    4.6778 H   0  0  0  0  0  0  0  0  0  0  0  0
    1.5072   -7.3458    5.5150 H   0  0  0  0  0  0  0  0  0  0  0  0
    3.3557   -9.0119    2.1930 H   0  0  0  0  0  0  0  0  0  0  0  0
    4.4403   -7.9470    1.3155 H   0  0  0  0  0  0  0  0  0  0  0  0
    2.7293   -8.0690    0.8889 H   0  0  0  0  0  0  0  0  0  0  0  0
    2.6988   -4.7656    2.6858 H   0  0  0  0  0  0  0  0  0  0  0  0
    3.2842   -5.9137   -0.0786 H   0  0  0  0  0  0  0  0  0  0  0  0
    1.3691   -6.7809    0.6794 H   0  0  0  0  0  0  0  0  0  0  0  0
    2.2142   -3.7800   -0.8249 H   0  0  0  0  0  0  0  0  0  0  0  0
    1.9186   -3.3392    0.8284 H   0  0  0  0  0  0  0  0  0  0  0  0
    3.0836   -1.4518    1.3771 H   0  0  0  0  0  0  0  0  0  0  0  0
    3.0077   -1.2220   -0.3602 H   0  0  0  0  0  0  0  0  0  0  0  0
    4.5175   -0.9590    0.4881 H   0  0  0  0  0  0  0  0  0  0  0  0
  1  2  3  0
  1 24  1  0
  3  2  1  6
  3 22  1  0
  3  4  1  0
  3  5  1  0
  4 25  1  0
  5  6  1  0
  5 26  1  0
  5 27  1  0
  6  7  1  0
  6 28  1  0
  6 29  1  0
  7 22  1  0
  7  8  1  0
  7 30  1  1
  8 18  1  0
  8  9  1  0
  8 31  1  6
  9 10  1  0
  9 32  1  0
  9 33  1  0
 10 11  2  0
 10 34  1  0
 11 16  1  0
 11 12  1  0
 12 13  1  0
 12 35  1  0
 12 36  1  0
 13 14  1  0
 13 37  1  0
 13 38  1  0
 14 15  2  0
 14 16  1  0
 16 17  1  6
 16 18  1  0
 17 39  1  0
 17 40  1  0
 17 41  1  0
 18 19  1  0
 18 42  1  1
 19 20  1  0
 19 21  1  0
 19 43  1  6
 20 44  1  0
 21 22  1  0
 21 45  1  0
 21 46  1  0
 22 23  1  1
 23 47  1  0
 23 48  1  0
 23 49  1  0
M  END
>  <i_m_ct_stereo_status>  (294) 
1

>  <s_m_source_file>  (294) 
/var/tmp/pbs.5076255.sched01/tmpux3k924y/120tsqzh4i4.sdf

>  <i_m_source_file_index>  (294) 
10

>  <i_lp_mmshare_version>  (294) 
48012

>  <i_f3d_flags>  (294) 
0

>  <s_epik_input>  (294) 
W0NIXSNDW0NAQF0oW09IXSkoW0NIMl1bQ0gyXTEpW0NAQF0oW0NIM10pKFtDSDJdW0NAQEhdKFtDQEhdMjMpW09IXSlbQ0BIXTFbQ0BIXTJbQ0gyXVtDSF09QyhbQ0BdMzRbQ0gzXSlbQ0gyXVtDSDJdQzQ9Tw==

>  <s_epik_cmdline>  (294) 
J2VwaWtfcHl0aG9uJywgJy1waHQnLCAnMi4wJywgJy1waCcsICc3LjAnLCAnLXRuJywgJzgnLCAnLW1hJywgJzIwMCcsICctaW1hZScsICc8aW5maWxlLm1hZT4nLCAnLW9tYWUnLCAnPG91dGZpbGUubWFlPic=

>  <r_lp_tautomer_probability>  (294) 
1

>  <r_epik_Ionization_Penalty>  (294) 
5.3607e-07

>  <r_epik_Ionization_Penalty_Charging>  (294) 
0

>  <r_epik_Ionization_Penalty_Neutral>  (294) 
5.3607e-07

>  <r_epik_State_Penalty>  (294) 
-0

>  <r_epik_Charging_Adjusted_Penalty>  (294) 
0

>  <i_epik_Tot_Q>  (294) 
0

>  <i_epik_Tot_abs_Q>  (294) 
0

>  <s_lp_Force_Field>  (294) 
OPLS3e

>  <r_lp_Energy>  (294) 
29.9924

>  <b_lp_Chiralities_Consistent>  (294) 
1

>  <s_lp_Variant>  (294) 
96:0-1

>  <s_i_glide_gridfile>  (294) 
pfpi4k_grid

>  <i_i_glide_lignum>  (294) 
10

>  <i_i_glide_rotatable_bonds>  (294) 
3

>  <r_i_docking_score>  (294) 
-3.90221

>  <r_i_glide_ligand_efficiency>  (294) 
-0.169661

>  <r_i_glide_ligand_efficiency_sa>  (294) 
-0.482494

>  <r_i_glide_ligand_efficiency_ln>  (294) 
-0.943589

>  <r_i_glide_gscore>  (294) 
-3.90221

>  <r_i_glide_lipo>  (294) 
-0.373494

>  <r_i_glide_hbond>  (294) 
-0.32

>  <r_i_glide_metal>  (294) 
-0

>  <r_i_glide_rewards>  (294) 
-1.26533

>  <r_i_glide_evdw>  (294) 
-21.6339

>  <r_i_glide_ecoul>  (294) 
-6.9411

>  <r_i_glide_erotb>  (294) 
0.188026

>  <r_i_glide_esite>  (294) 
-0.00855172

>  <r_i_glide_emodel>  (294) 
-34.8976

>  <r_i_glide_energy>  (294) 
-28.575

>  <r_i_glide_einternal>  (294) 
2.22874

>  <r_i_glide_intrahb_reward>  (294) 
-0

>  <i_i_glide_confnum>  (294) 
1

>  <i_i_glide_posenum>  (294) 
37

>  <r_i_glide_eff_state_penalty>  (294) 
0

>  <ligand_id>  (294) 
96

>  <original_smiles>  (294) 
C#CC1(O)CCC2C3CC=C4CCC(=O)C4(C)C3C(O)CC21C

>  <smiles>  (294) 
[H]C#CC1(O[H])C([H])([H])C([H])([H])C2([H])C3([H])C([H])([H])C([H])=C4C([H])([H])C([H])([H])C(=O)C4(C([H])([H])[H])C3([H])C([H])(O[H])C([H])([H])C12C([H])([H])[H]

$$$$
96:0:1
     RDKit          3D

 49 52  0  0  1  0  0  0  0  0999 V2000
    3.3551   -1.5708   -3.9427 C   0  0  0  0  0  0  0  0  0  0  0  0
    3.9740   -2.1588   -3.0683 C   0  0  0  0  0  0  0  0  0  0  0  0
    4.7288   -2.8636   -2.0046 C   0  0  1  0  0  0  0  0  0  0  0  0
    4.8416   -4.2252   -2.3427 O   0  0  0  0  0  0  0  0  0  0  0  0
    6.1803   -2.3949   -1.9090 C   0  0  0  0  0  0  0  0  0  0  0  0
    6.6757   -2.7897   -0.5110 C   0  0  0  0  0  0  0  0  0  0  0  0
    5.4270   -3.0864    0.3562 C   0  0  2  0  0  0  0  0  0  0  0  0
    5.4559   -4.5480    0.9196 C   0  0  1  0  0  0  0  0  0  0  0  0
    6.5565   -4.6347    1.9929 C   0  0  0  0  0  0  0  0  0  0  0  0
    6.4128   -5.7593    2.9914 C   0  0  0  0  0  0  0  0  0  0  0  0
    5.3649   -6.5876    3.0275 C   0  0  0  0  0  0  0  0  0  0  0  0
    5.1111   -7.6373    4.0823 C   0  0  0  0  0  0  0  0  0  0  0  0
    3.6168   -7.5024    4.3797 C   0  0  0  0  0  0  0  0  0  0  0  0
    3.0755   -6.7744    3.1550 C   0  0  0  0  0  0  0  0  0  0  0  0
    1.8871   -6.4681    3.0375 O   0  0  0  0  0  0  0  0  0  0  0  0
    4.1667   -6.4640    2.1157 C   0  0  2  0  0  0  0  0  0  0  0  0
    4.2385   -7.6109    1.0886 C   0  0  0  0  0  0  0  0  0  0  0  0
    4.0746   -5.0441    1.4388 C   0  0  2  0  0  0  0  0  0  0  0  0
    3.1124   -4.9365    0.2279 C   0  0  1  0  0  0  0  0  0  0  0  0
    1.8160   -5.4487    0.4551 O   0  0  0  0  0  0  0  0  0  0  0  0
    2.9149   -3.4724   -0.1970 C   0  0  0  0  0  0  0  0  0  0  0  0
    4.2136   -2.6936   -0.5372 C   0  0  2  0  0  0  0  0  0  0  0  0
    3.8856   -1.1967   -0.2512 C   0  0  0  0  0  0  0  0  0  0  0  0
    2.7830   -1.0772   -4.6998 H   0  0  0  0  0  0  0  0  0  0  0  0
    3.9785   -4.6145   -2.3424 H   0  0  0  0  0  0  0  0  0  0  0  0
    6.8127   -2.7983   -2.7032 H   0  0  0  0  0  0  0  0  0  0  0  0
    6.2101   -1.3103   -1.9935 H   0  0  0  0  0  0  0  0  0  0  0  0
    7.3283   -3.6614   -0.5905 H   0  0  0  0  0  0  0  0  0  0  0  0
    7.2766   -1.9878   -0.0809 H   0  0  0  0  0  0  0  0  0  0  0  0
    5.4318   -2.4004    1.2062 H   0  0  0  0  0  0  0  0  0  0  0  0
    5.7532   -5.2256    0.1192 H   0  0  0  0  0  0  0  0  0  0  0  0
    7.5502   -4.6995    1.5529 H   0  0  0  0  0  0  0  0  0  0  0  0
    6.5184   -3.7008    2.5388 H   0  0  0  0  0  0  0  0  0  0  0  0
    7.1841   -5.8545    3.7452 H   0  0  0  0  0  0  0  0  0  0  0  0
    5.3196   -8.6220    3.6547 H   0  0  0  0  0  0  0  0  0  0  0  0
    5.7364   -7.5048    4.9668 H   0  0  0  0  0  0  0  0  0  0  0  0
    3.1261   -8.4620    4.5143 H   0  0  0  0  0  0  0  0  0  0  0  0
    3.4428   -6.8990    5.2693 H   0  0  0  0  0  0  0  0  0  0  0  0
    4.3136   -8.5854    1.5735 H   0  0  0  0  0  0  0  0  0  0  0  0
    5.0975   -7.5042    0.4222 H   0  0  0  0  0  0  0  0  0  0  0  0
    3.3428   -7.6483    0.4919 H   0  0  0  0  0  0  0  0  0  0  0  0
    3.7219   -4.3388    2.1928 H   0  0  0  0  0  0  0  0  0  0  0  0
    3.5367   -5.5019   -0.5976 H   0  0  0  0  0  0  0  0  0  0  0  0
    1.9130   -6.3619    0.6975 H   0  0  0  0  0  0  0  0  0  0  0  0
    2.2331   -3.4258   -1.0479 H   0  0  0  0  0  0  0  0  0  0  0  0
    2.3864   -2.9651    0.6160 H   0  0  0  0  0  0  0  0  0  0  0  0
    3.6309   -1.0421    0.8003 H   0  0  0  0  0  0  0  0  0  0  0  0
    3.0207   -0.8648   -0.8300 H   0  0  0  0  0  0  0  0  0  0  0  0
    4.7216   -0.5319   -0.4782 H   0  0  0  0  0  0  0  0  0  0  0  0
  1  2  3  0
  1 24  1  0
  3  2  1  6
  3 22  1  0
  3  4  1  0
  3  5  1  0
  4 25  1  0
  5  6  1  0
  5 26  1  0
  5 27  1  0
  6  7  1  0
  6 28  1  0
  6 29  1  0
  7 22  1  0
  7  8  1  0
  7 30  1  1
  8 18  1  0
  8  9  1  0
  8 31  1  6
  9 10  1  0
  9 32  1  0
  9 33  1  0
 10 11  2  0
 10 34  1  0
 11 16  1  0
 11 12  1  0
 12 13  1  0
 12 35  1  0
 12 36  1  0
 13 14  1  0
 13 37  1  0
 13 38  1  0
 14 15  2  0
 14 16  1  0
 16 17  1  6
 16 18  1  0
 17 39  1  0
 17 40  1  0
 17 41  1  0
 18 19  1  0
 18 42  1  1
 19 20  1  0
 19 21  1  0
 19 43  1  6
 20 44  1  0
 21 22  1  0
 21 45  1  0
 21 46  1  0
 22 23  1  6
 23 47  1  0
 23 48  1  0
 23 49  1  0
M  END
>  <i_m_ct_stereo_status>  (295) 
1

>  <s_m_source_file>  (295) 
/var/tmp/pbs.5076255.sched01/tmpux3k924y/120tsqzh4i4.sdf

>  <i_m_source_file_index>  (295) 
10

>  <i_lp_mmshare_version>  (295) 
48012

>  <i_f3d_flags>  (295) 
0

>  <s_epik_input>  (295) 
W0NIXSNDW0NAQF0oW09IXSkoW0NIMl1bQ0gyXTEpW0NAQF0oW0NIM10pKFtDSDJdW0NAQEhdKFtDQEhdMjMpW09IXSlbQ0BIXTFbQ0BIXTJbQ0gyXVtDSF09QyhbQ0BdMzRbQ0gzXSlbQ0gyXVtDSDJdQzQ9Tw==

>  <s_epik_cmdline>  (295) 
J2VwaWtfcHl0aG9uJywgJy1waHQnLCAnMi4wJywgJy1waCcsICc3LjAnLCAnLXRuJywgJzgnLCAnLW1hJywgJzIwMCcsICctaW1hZScsICc8aW5maWxlLm1hZT4nLCAnLW9tYWUnLCAnPG91dGZpbGUubWFlPic=

>  <r_lp_tautomer_probability>  (295) 
1

>  <r_epik_Ionization_Penalty>  (295) 
5.3607e-07

>  <r_epik_Ionization_Penalty_Charging>  (295) 
0

>  <r_epik_Ionization_Penalty_Neutral>  (295) 
5.3607e-07

>  <r_epik_State_Penalty>  (295) 
-0

>  <r_epik_Charging_Adjusted_Penalty>  (295) 
0

>  <i_epik_Tot_Q>  (295) 
0

>  <i_epik_Tot_abs_Q>  (295) 
0

>  <s_lp_Force_Field>  (295) 
OPLS3e

>  <r_lp_Energy>  (295) 
29.9924

>  <b_lp_Chiralities_Consistent>  (295) 
1

>  <s_lp_Variant>  (295) 
96:0-1

>  <s_i_glide_gridfile>  (295) 
pfpi4k_grid

>  <i_i_glide_lignum>  (295) 
10

>  <i_i_glide_rotatable_bonds>  (295) 
3

>  <r_i_docking_score>  (295) 
-3.81554

>  <r_i_glide_ligand_efficiency>  (295) 
-0.165893

>  <r_i_glide_ligand_efficiency_sa>  (295) 
-0.471778

>  <r_i_glide_ligand_efficiency_ln>  (295) 
-0.922633

>  <r_i_glide_gscore>  (295) 
-3.81554

>  <r_i_glide_lipo>  (295) 
-0.518903

>  <r_i_glide_hbond>  (295) 
-0.299697

>  <r_i_glide_metal>  (295) 
-0

>  <r_i_glide_rewards>  (295) 
-1.26533

>  <r_i_glide_evdw>  (295) 
-21.0311

>  <r_i_glide_ecoul>  (295) 
-5.78612

>  <r_i_glide_erotb>  (295) 
0.188026

>  <r_i_glide_esite>  (295) 
-0.000169216

>  <r_i_glide_emodel>  (295) 
-33.0523

>  <r_i_glide_energy>  (295) 
-26.8172

>  <r_i_glide_einternal>  (295) 
2.05766

>  <r_i_glide_intrahb_reward>  (295) 
-0

>  <i_i_glide_confnum>  (295) 
2

>  <i_i_glide_posenum>  (295) 
31

>  <r_i_glide_eff_state_penalty>  (295) 
0

>  <ligand_id>  (295) 
96

>  <original_smiles>  (295) 
C#CC1(O)CCC2C3CC=C4CCC(=O)C4(C)C3C(O)CC21C

>  <smiles>  (295) 
[H]C#CC1(O[H])C([H])([H])C([H])([H])C2([H])C3([H])C([H])([H])C([H])=C4C([H])([H])C([H])([H])C(=O)C4(C([H])([H])[H])C3([H])C([H])(O[H])C([H])([H])C12C([H])([H])[H]

$$$$
96:0:2
     RDKit          3D

 49 52  0  0  1  0  0  0  0  0999 V2000
    3.9770   -1.6650   -4.0691 C   0  0  0  0  0  0  0  0  0  0  0  0
    4.3931   -2.2174   -3.0597 C   0  0  0  0  0  0  0  0  0  0  0  0
    4.8875   -2.8704   -1.8223 C   0  0  1  0  0  0  0  0  0  0  0  0
    5.0287   -4.2511   -2.0610 O   0  0  0  0  0  0  0  0  0  0  0  0
    6.2783   -2.3647   -1.4271 C   0  0  0  0  0  0  0  0  0  0  0  0
    6.4557   -2.6784    0.0670 C   0  0  0  0  0  0  0  0  0  0  0  0
    5.0500   -2.9658    0.6503 C   0  0  2  0  0  0  0  0  0  0  0  0
    4.9639   -4.3883    1.2928 C   0  0  1  0  0  0  0  0  0  0  0  0
    5.7870   -4.3949    2.5997 C   0  0  0  0  0  0  0  0  0  0  0  0
    5.4406   -5.5018    3.5668 C   0  0  0  0  0  0  0  0  0  0  0  0
    4.4297   -6.3587    3.3847 C   0  0  0  0  0  0  0  0  0  0  0  0
    3.9592   -7.3779    4.3927 C   0  0  0  0  0  0  0  0  0  0  0  0
    2.4342   -7.2722    4.3364 C   0  0  0  0  0  0  0  0  0  0  0  0
    2.1706   -6.5906    2.9994 C   0  0  0  0  0  0  0  0  0  0  0  0
    1.0360   -6.2932    2.6260 O   0  0  0  0  0  0  0  0  0  0  0  0
    3.4680   -6.2995    2.2221 C   0  0  2  0  0  0  0  0  0  0  0  0
    3.7877   -7.4812    1.2971 C   0  0  0  0  0  0  0  0  0  0  0  0
    3.5085   -4.9076    1.4898 C   0  0  2  0  0  0  0  0  0  0  0  0
    2.8529   -4.8801    0.0863 C   0  0  1  0  0  0  0  0  0  0  0  0
    1.5695   -5.4559    0.0015 O   0  0  0  0  0  0  0  0  0  0  0  0
    2.7337   -3.4423   -0.4399 C   0  0  0  0  0  0  0  0  0  0  0  0
    4.0655   -2.6465   -0.5117 C   0  0  2  0  0  0  0  0  0  0  0  0
    3.6904   -1.1447   -0.3738 C   0  0  0  0  0  0  0  0  0  0  0  0
    3.5782   -1.1836   -4.9352 H   0  0  0  0  0  0  0  0  0  0  0  0
    4.1679   -4.6408   -2.1461 H   0  0  0  0  0  0  0  0  0  0  0  0
    7.0860   -2.7713   -2.0405 H   0  0  0  0  0  0  0  0  0  0  0  0
    6.2937   -1.2837   -1.5520 H   0  0  0  0  0  0  0  0  0  0  0  0
    7.1240   -3.5343    0.1788 H   0  0  0  0  0  0  0  0  0  0  0  0
    6.9306   -1.8404    0.5809 H   0  0  0  0  0  0  0  0  0  0  0  0
    4.8526   -2.2485    1.4467 H   0  0  0  0  0  0  0  0  0  0  0  0
    5.4489   -5.0900    0.6109 H   0  0  0  0  0  0  0  0  0  0  0  0
    6.8459   -4.4826    2.3631 H   0  0  0  0  0  0  0  0  0  0  0  0
    5.6527   -3.4614    3.1454 H   0  0  0  0  0  0  0  0  0  0  0  0
    6.0354   -5.5569    4.4713 H   0  0  0  0  0  0  0  0  0  0  0  0
    4.2756   -8.3684    4.0621 H   0  0  0  0  0  0  0  0  0  0  0  0
    4.3637   -7.2027    5.3913 H   0  0  0  0  0  0  0  0  0  0  0  0
    1.9376   -8.2412    4.3954 H   0  0  0  0  0  0  0  0  0  0  0  0
    2.0521   -6.6383    5.1381 H   0  0  0  0  0  0  0  0  0  0  0  0
    3.7851   -8.4300    1.8256 H   0  0  0  0  0  0  0  0  0  0  0  0
    4.7567   -7.3827    0.8074 H   0  0  0  0  0  0  0  0  0  0  0  0
    3.0297   -7.5556    0.5428 H   0  0  0  0  0  0  0  0  0  0  0  0
    2.9790   -4.1833    2.1116 H   0  0  0  0  0  0  0  0  0  0  0  0
    3.4684   -5.4711   -0.5800 H   0  0  0  0  0  0  0  0  0  0  0  0
    1.3400   -5.4549   -0.9157 H   0  0  0  0  0  0  0  0  0  0  0  0
    2.2622   -3.4426   -1.4204 H   0  0  0  0  0  0  0  0  0  0  0  0
    2.0338   -2.9074    0.2100 H   0  0  0  0  0  0  0  0  0  0  0  0
    3.1733   -0.9538    0.5686 H   0  0  0  0  0  0  0  0  0  0  0  0
    3.0136   -0.8507   -1.1731 H   0  0  0  0  0  0  0  0  0  0  0  0
    4.5465   -0.4695   -0.4218 H   0  0  0  0  0  0  0  0  0  0  0  0
  1  2  3  0
  1 24  1  0
  3  2  1  6
  3 22  1  0
  3  4  1  0
  3  5  1  0
  4 25  1  0
  5  6  1  0
  5 26  1  0
  5 27  1  0
  6  7  1  0
  6 28  1  0
  6 29  1  0
  7 22  1  0
  7  8  1  0
  7 30  1  1
  8 18  1  0
  8  9  1  0
  8 31  1  6
  9 10  1  0
  9 32  1  0
  9 33  1  0
 10 11  2  0
 10 34  1  0
 11 16  1  0
 11 12  1  0
 12 13  1  0
 12 35  1  0
 12 36  1  0
 13 14  1  0
 13 37  1  0
 13 38  1  0
 14 15  2  0
 14 16  1  0
 16 17  1  6
 16 18  1  0
 17 39  1  0
 17 40  1  0
 17 41  1  0
 18 19  1  0
 18 42  1  1
 19 20  1  0
 19 21  1  0
 19 43  1  6
 20 44  1  0
 21 22  1  0
 21 45  1  0
 21 46  1  0
 22 23  1  1
 23 47  1  0
 23 48  1  0
 23 49  1  0
M  END
>  <i_m_ct_stereo_status>  (296) 
1

>  <s_m_source_file>  (296) 
/var/tmp/pbs.5076255.sched01/tmpux3k924y/120tsqzh4i4.sdf

>  <i_m_source_file_index>  (296) 
10

>  <i_lp_mmshare_version>  (296) 
48012

>  <i_f3d_flags>  (296) 
0

>  <s_epik_input>  (296) 
W0NIXSNDW0NAQF0oW09IXSkoW0NIMl1bQ0gyXTEpW0NAQF0oW0NIM10pKFtDSDJdW0NAQEhdKFtDQEhdMjMpW09IXSlbQ0BIXTFbQ0BIXTJbQ0gyXVtDSF09QyhbQ0BdMzRbQ0gzXSlbQ0gyXVtDSDJdQzQ9Tw==

>  <s_epik_cmdline>  (296) 
J2VwaWtfcHl0aG9uJywgJy1waHQnLCAnMi4wJywgJy1waCcsICc3LjAnLCAnLXRuJywgJzgnLCAnLW1hJywgJzIwMCcsICctaW1hZScsICc8aW5maWxlLm1hZT4nLCAnLW9tYWUnLCAnPG91dGZpbGUubWFlPic=

>  <r_lp_tautomer_probability>  (296) 
1

>  <r_epik_Ionization_Penalty>  (296) 
5.3607e-07

>  <r_epik_Ionization_Penalty_Charging>  (296) 
0

>  <r_epik_Ionization_Penalty_Neutral>  (296) 
5.3607e-07

>  <r_epik_State_Penalty>  (296) 
-0

>  <r_epik_Charging_Adjusted_Penalty>  (296) 
0

>  <i_epik_Tot_Q>  (296) 
0

>  <i_epik_Tot_abs_Q>  (296) 
0

>  <s_lp_Force_Field>  (296) 
OPLS3e

>  <r_lp_Energy>  (296) 
29.9924

>  <b_lp_Chiralities_Consistent>  (296) 
1

>  <s_lp_Variant>  (296) 
96:0-1

>  <s_i_glide_gridfile>  (296) 
pfpi4k_grid

>  <i_i_glide_lignum>  (296) 
10

>  <i_i_glide_rotatable_bonds>  (296) 
3

>  <r_i_docking_score>  (296) 
-3.72387

>  <r_i_glide_ligand_efficiency>  (296) 
-0.161908

>  <r_i_glide_ligand_efficiency_sa>  (296) 
-0.460443

>  <r_i_glide_ligand_efficiency_ln>  (296) 
-0.900466

>  <r_i_glide_gscore>  (296) 
-3.72387

>  <r_i_glide_lipo>  (296) 
-0.354721

>  <r_i_glide_hbond>  (296) 
-0.32

>  <r_i_glide_metal>  (296) 
-0

>  <r_i_glide_rewards>  (296) 
-1.26533

>  <r_i_glide_evdw>  (296) 
-20.5062

>  <r_i_glide_ecoul>  (296) 
-6.27522

>  <r_i_glide_erotb>  (296) 
0.188026

>  <r_i_glide_esite>  (296) 
-0.005261

>  <r_i_glide_emodel>  (296) 
-32.7838

>  <r_i_glide_energy>  (296) 
-26.7814

>  <r_i_glide_einternal>  (296) 
1.95369

>  <r_i_glide_intrahb_reward>  (296) 
-0

>  <i_i_glide_confnum>  (296) 
2

>  <i_i_glide_posenum>  (296) 
1

>  <r_i_glide_eff_state_penalty>  (296) 
0

>  <ligand_id>  (296) 
96

>  <original_smiles>  (296) 
C#CC1(O)CCC2C3CC=C4CCC(=O)C4(C)C3C(O)CC21C

>  <smiles>  (296) 
[H]C#CC1(O[H])C([H])([H])C([H])([H])C2([H])C3([H])C([H])([H])C([H])=C4C([H])([H])C([H])([H])C(=O)C4(C([H])([H])[H])C3([H])C([H])(O[H])C([H])([H])C12C([H])([H])[H]

$$$$
97:0:0
     RDKit          3D

 41 44  0  0  1  0  0  0  0  0999 V2000
    2.3734   -2.1163    2.3212 C   0  0  0  0  0  0  0  0  0  0  0  0
    3.2458   -3.3338    1.9600 C   0  0  2  0  0  0  0  0  0  0  0  0
    4.6826   -3.2241    2.4994 C   0  0  0  0  0  0  0  0  0  0  0  0
    5.6305   -2.3339    1.6929 C   0  0  0  0  0  0  0  0  0  0  0  0
    5.8227   -2.8992    0.2799 C   0  0  2  0  0  0  0  0  0  0  0  0
    7.1364   -2.5702   -0.4328 C   0  0  1  0  0  0  0  0  0  0  0  0
    8.3173   -3.4568   -0.0721 C   0  0  0  0  0  0  0  0  0  0  0  0
    6.8582   -2.7988   -1.8172 O   0  0  0  0  0  0  0  0  0  0  0  0
    5.4779   -3.0506   -1.9933 C   0  0  2  0  0  0  0  0  0  0  0  0
    5.0353   -2.4902   -3.1865 O   0  0  0  0  0  0  0  0  0  0  0  0
    3.9692   -1.5705   -3.0947 C   0  0  1  0  0  0  0  0  0  0  0  0
    3.8850   -0.8424   -4.4218 C   0  0  0  0  0  0  0  0  0  0  0  0
    2.6449   -2.3116   -2.8631 C   0  0  0  0  0  0  0  0  0  0  0  0
    2.6145   -3.2953   -1.6940 C   0  0  0  0  0  0  0  0  0  0  0  0
    3.3435   -2.7857   -0.4641 C   0  0  1  0  0  0  0  0  0  0  0  0
    3.1871   -3.7510    0.5935 O   0  0  0  0  0  0  0  0  0  0  0  0
    4.8390   -2.4080   -0.7564 C   0  0  1  0  0  0  0  0  0  0  0  0
    4.9687   -1.0181   -0.9177 O   0  0  0  0  0  0  0  0  0  0  0  0
    4.1766   -0.5400   -2.1296 O   0  0  0  0  0  0  0  0  0  0  0  0
    2.3240   -1.9979    3.4029 H   0  0  0  0  0  0  0  0  0  0  0  0
    1.3536   -2.2438    1.9683 H   0  0  0  0  0  0  0  0  0  0  0  0
    2.7635   -1.1836    1.9188 H   0  0  0  0  0  0  0  0  0  0  0  0
    2.8062   -4.1667    2.5101 H   0  0  0  0  0  0  0  0  0  0  0  0
    4.6508   -2.8761    3.5335 H   0  0  0  0  0  0  0  0  0  0  0  0
    5.1091   -4.2298    2.5504 H   0  0  0  0  0  0  0  0  0  0  0  0
    5.2827   -1.3039    1.6743 H   0  0  0  0  0  0  0  0  0  0  0  0
    6.5915   -2.3275    2.1834 H   0  0  0  0  0  0  0  0  0  0  0  0
    5.7339   -4.0031    0.3355 H   0  0  0  0  0  0  0  0  0  0  0  0
    7.3656   -1.5185   -0.2824 H   0  0  0  0  0  0  0  0  0  0  0  0
    8.6048   -3.3468    0.9772 H   0  0  0  0  0  0  0  0  0  0  0  0
    9.1718   -3.1780   -0.6995 H   0  0  0  0  0  0  0  0  0  0  0  0
    8.0891   -4.5133   -0.2634 H   0  0  0  0  0  0  0  0  0  0  0  0
    5.3412   -4.1383   -2.0032 H   0  0  0  0  0  0  0  0  0  0  0  0
    4.8430   -0.3869   -4.6710 H   0  0  0  0  0  0  0  0  0  0  0  0
    3.1168   -0.0598   -4.4148 H   0  0  0  0  0  0  0  0  0  0  0  0
    3.6373   -1.5290   -5.2280 H   0  0  0  0  0  0  0  0  0  0  0  0
    1.8934   -1.5449   -2.7028 H   0  0  0  0  0  0  0  0  0  0  0  0
    2.3455   -2.8462   -3.7770 H   0  0  0  0  0  0  0  0  0  0  0  0
    1.5706   -3.5018   -1.4453 H   0  0  0  0  0  0  0  0  0  0  0  0
    3.0434   -4.2524   -1.9676 H   0  0  0  0  0  0  0  0  0  0  0  0
    2.8489   -1.8696   -0.1620 H   0  0  0  0  0  0  0  0  0  0  0  0
  1  2  1  0
  1 20  1  0
  1 21  1  0
  1 22  1  0
  2 16  1  0
  2  3  1  0
  2 23  1  1
  3  4  1  0
  3 24  1  0
  3 25  1  0
  4  5  1  0
  4 26  1  0
  4 27  1  0
  5 17  1  0
  5  6  1  0
  5 28  1  1
  6  7  1  0
  6  8  1  0
  6 29  1  6
  7 30  1  0
  7 31  1  0
  7 32  1  0
  8  9  1  0
  9 17  1  0
  9 10  1  0
  9 33  1  6
 10 11  1  0
 11 19  1  0
 11 12  1  6
 11 13  1  0
 12 34  1  0
 12 35  1  0
 12 36  1  0
 13 14  1  0
 13 37  1  0
 13 38  1  0
 14 15  1  0
 14 39  1  0
 14 40  1  0
 15 16  1  0
 15 17  1  0
 15 41  1  1
 17 18  1  6
 18 19  1  0
M  END
>  <i_m_ct_stereo_status>  (297) 
1

>  <s_m_source_file>  (297) 
/var/tmp/pbs.5076255.sched01/tmpux3k924y/120tsqzh4i4.sdf

>  <i_m_source_file_index>  (297) 
11

>  <i_lp_mmshare_version>  (297) 
48012

>  <i_f3d_flags>  (297) 
0

>  <s_epik_input>  (297) 
W0NAXTEyM1tDQEBIXTRbQ0gyXVtDSDJdW0NAQEhdKFtDSDNdKU9bQ0BASF0yW0NIMl1bQ0gyXVtDQEBdKFtDSDNdKShPTzMpT1tDQEhdMU9bQ0BASF00W0NIM10=

>  <s_epik_cmdline>  (297) 
J2VwaWtfcHl0aG9uJywgJy1waHQnLCAnMi4wJywgJy1waCcsICc3LjAnLCAnLXRuJywgJzgnLCAnLW1hJywgJzIwMCcsICctaW1hZScsICc8aW5maWxlLm1hZT4nLCAnLW9tYWUnLCAnPG91dGZpbGUubWFlPic=

>  <r_lp_tautomer_probability>  (297) 
1

>  <r_epik_Ionization_Penalty>  (297) 
5.46756e-13

>  <r_epik_Ionization_Penalty_Charging>  (297) 
0

>  <r_epik_Ionization_Penalty_Neutral>  (297) 
5.46756e-13

>  <r_epik_State_Penalty>  (297) 
-0

>  <r_epik_Charging_Adjusted_Penalty>  (297) 
0

>  <i_epik_Tot_Q>  (297) 
0

>  <i_epik_Tot_abs_Q>  (297) 
0

>  <s_epik_Chemistry_Notes>  (297) 
This compound contains an acetal/aminal-like group ( X-CH(R)-Y where X, Y are N, S, or O) that may be acid/base labile, releasing an aldehyde.

>  <s_lp_Force_Field>  (297) 
OPLS3e

>  <r_lp_Energy>  (297) 
14.689

>  <b_lp_Chiralities_Consistent>  (297) 
1

>  <s_lp_Variant>  (297) 
97:0-1

>  <s_i_glide_gridfile>  (297) 
pfpi4k_grid

>  <i_i_glide_lignum>  (297) 
11

>  <i_i_glide_rotatable_bonds>  (297) 
0

>  <r_i_docking_score>  (297) 
-3.70733

>  <r_i_glide_ligand_efficiency>  (297) 
-0.195122

>  <r_i_glide_ligand_efficiency_sa>  (297) 
-0.520665

>  <r_i_glide_ligand_efficiency_ln>  (297) 
-0.939887

>  <r_i_glide_gscore>  (297) 
-3.70733

>  <r_i_glide_lipo>  (297) 
-0.536618

>  <r_i_glide_hbond>  (297) 
-0.02816

>  <r_i_glide_metal>  (297) 
-0

>  <r_i_glide_rewards>  (297) 
-1.79532

>  <r_i_glide_evdw>  (297) 
-23.1004

>  <r_i_glide_ecoul>  (297) 
-1.28138

>  <r_i_glide_erotb>  (297) 
0

>  <r_i_glide_esite>  (297) 
0

>  <r_i_glide_emodel>  (297) 
-29.0271

>  <r_i_glide_energy>  (297) 
-24.3817

>  <r_i_glide_einternal>  (297) 
0

>  <r_i_glide_intrahb_reward>  (297) 
-0

>  <i_i_glide_confnum>  (297) 
1

>  <i_i_glide_posenum>  (297) 
1

>  <r_i_glide_eff_state_penalty>  (297) 
0

>  <ligand_id>  (297) 
97

>  <original_smiles>  (297) 
CC1CCC2C(C)OC3OC4(C)CCC(O1)C32OO4

>  <smiles>  (297) 
[H]C([H])([H])C1([H])OC2([H])C([H])([H])C([H])([H])C3(C([H])([H])[H])OOC24C([H])(OC([H])(C([H])([H])[H])C4([H])C([H])([H])C1([H])[H])O3

$$$$
97:0:1
     RDKit          3D

 41 44  0  0  1  0  0  0  0  0999 V2000
    2.5657   -1.7671    2.9064 C   0  0  0  0  0  0  0  0  0  0  0  0
    3.6134   -2.8812    2.7504 C   0  0  2  0  0  0  0  0  0  0  0  0
    5.0534   -2.3974    2.9937 C   0  0  0  0  0  0  0  0  0  0  0  0
    5.7054   -1.6549    1.8222 C   0  0  0  0  0  0  0  0  0  0  0  0
    5.8295   -2.5964    0.6188 C   0  0  2  0  0  0  0  0  0  0  0  0
    6.9547   -2.3053   -0.3643 C   0  0  1  0  0  0  0  0  0  0  0  0
    8.3341   -2.8430   -0.0002 C   0  0  0  0  0  0  0  0  0  0  0  0
    6.5762   -2.9685   -1.5664 O   0  0  0  0  0  0  0  0  0  0  0  0
    5.2717   -3.4470   -1.4382 C   0  0  2  0  0  0  0  0  0  0  0  0
    4.5911   -3.3232   -2.6474 O   0  0  0  0  0  0  0  0  0  0  0  0
    3.3690   -2.6245   -2.6098 C   0  0  1  0  0  0  0  0  0  0  0  0
    3.0865   -2.3844   -4.0753 C   0  0  0  0  0  0  0  0  0  0  0  0
    2.2242   -3.4445   -1.9910 C   0  0  0  0  0  0  0  0  0  0  0  0
    2.5662   -4.0480   -0.6199 C   0  0  0  0  0  0  0  0  0  0  0  0
    3.3213   -3.0870    0.2933 C   0  0  1  0  0  0  0  0  0  0  0  0
    3.4778   -3.7044    1.5767 O   0  0  0  0  0  0  0  0  0  0  0  0
    4.6504   -2.5726   -0.3307 C   0  0  1  0  0  0  0  0  0  0  0  0
    4.4794   -1.2748   -0.8941 O   0  0  0  0  0  0  0  0  0  0  0  0
    3.4375   -1.3298   -2.0022 O   0  0  0  0  0  0  0  0  0  0  0  0
    2.6248   -1.3369    3.9061 H   0  0  0  0  0  0  0  0  0  0  0  0
    1.5563   -2.1540    2.7775 H   0  0  0  0  0  0  0  0  0  0  0  0
    2.7198   -0.9516    2.2007 H   0  0  0  0  0  0  0  0  0  0  0  0
    3.4175   -3.5715    3.5711 H   0  0  0  0  0  0  0  0  0  0  0  0
    5.0777   -1.7651    3.8767 H   0  0  0  0  0  0  0  0  0  0  0  0
    5.6712   -3.2620    3.2437 H   0  0  0  0  0  0  0  0  0  0  0  0
    5.1683   -0.7415    1.5738 H   0  0  0  0  0  0  0  0  0  0  0  0
    6.7041   -1.3406    2.1267 H   0  0  0  0  0  0  0  0  0  0  0  0
    5.9764   -3.6188    0.9793 H   0  0  0  0  0  0  0  0  0  0  0  0
    6.9877   -1.2344   -0.5331 H   0  0  0  0  0  0  0  0  0  0  0  0
    8.7401   -2.3716    0.8799 H   0  0  0  0  0  0  0  0  0  0  0  0
    9.0198   -2.6565   -0.8319 H   0  0  0  0  0  0  0  0  0  0  0  0
    8.3046   -3.9247    0.1531 H   0  0  0  0  0  0  0  0  0  0  0  0
    5.3283   -4.4923   -1.1497 H   0  0  0  0  0  0  0  0  0  0  0  0
    3.9039   -1.8370   -4.5475 H   0  0  0  0  0  0  0  0  0  0  0  0
    2.1750   -1.8130   -4.2233 H   0  0  0  0  0  0  0  0  0  0  0  0
    2.9736   -3.3302   -4.6025 H   0  0  0  0  0  0  0  0  0  0  0  0
    1.3699   -2.7823   -1.9312 H   0  0  0  0  0  0  0  0  0  0  0  0
    1.8905   -4.2313   -2.6598 H   0  0  0  0  0  0  0  0  0  0  0  0
    1.6526   -4.3808   -0.1510 H   0  0  0  0  0  0  0  0  0  0  0  0
    3.1396   -4.9608   -0.7226 H   0  0  0  0  0  0  0  0  0  0  0  0
    2.6733   -2.2235    0.4010 H   0  0  0  0  0  0  0  0  0  0  0  0
  1  2  1  0
  1 20  1  0
  1 21  1  0
  1 22  1  0
  2 16  1  0
  2  3  1  0
  2 23  1  1
  3  4  1  0
  3 24  1  0
  3 25  1  0
  4  5  1  0
  4 26  1  0
  4 27  1  0
  5 17  1  0
  5  6  1  0
  5 28  1  1
  6  7  1  0
  6  8  1  0
  6 29  1  6
  7 30  1  0
  7 31  1  0
  7 32  1  0
  8  9  1  0
  9 17  1  0
  9 10  1  0
  9 33  1  1
 10 11  1  0
 11 19  1  0
 11 12  1  6
 11 13  1  0
 12 34  1  0
 12 35  1  0
 12 36  1  0
 13 14  1  0
 13 37  1  0
 13 38  1  0
 14 15  1  0
 14 39  1  0
 14 40  1  0
 15 16  1  0
 15 17  1  0
 15 41  1  1
 17 18  1  6
 18 19  1  0
M  END
>  <i_m_ct_stereo_status>  (298) 
1

>  <s_m_source_file>  (298) 
/var/tmp/pbs.5076255.sched01/tmpux3k924y/120tsqzh4i4.sdf

>  <i_m_source_file_index>  (298) 
11

>  <i_lp_mmshare_version>  (298) 
48012

>  <i_f3d_flags>  (298) 
0

>  <s_epik_input>  (298) 
W0NAXTEyM1tDQEBIXTRbQ0gyXVtDSDJdW0NAQEhdKFtDSDNdKU9bQ0BASF0yW0NIMl1bQ0gyXVtDQEBdKFtDSDNdKShPTzMpT1tDQEhdMU9bQ0BASF00W0NIM10=

>  <s_epik_cmdline>  (298) 
J2VwaWtfcHl0aG9uJywgJy1waHQnLCAnMi4wJywgJy1waCcsICc3LjAnLCAnLXRuJywgJzgnLCAnLW1hJywgJzIwMCcsICctaW1hZScsICc8aW5maWxlLm1hZT4nLCAnLW9tYWUnLCAnPG91dGZpbGUubWFlPic=

>  <r_lp_tautomer_probability>  (298) 
1

>  <r_epik_Ionization_Penalty>  (298) 
5.46756e-13

>  <r_epik_Ionization_Penalty_Charging>  (298) 
0

>  <r_epik_Ionization_Penalty_Neutral>  (298) 
5.46756e-13

>  <r_epik_State_Penalty>  (298) 
-0

>  <r_epik_Charging_Adjusted_Penalty>  (298) 
0

>  <i_epik_Tot_Q>  (298) 
0

>  <i_epik_Tot_abs_Q>  (298) 
0

>  <s_epik_Chemistry_Notes>  (298) 
This compound contains an acetal/aminal-like group ( X-CH(R)-Y where X, Y are N, S, or O) that may be acid/base labile, releasing an aldehyde.

>  <s_lp_Force_Field>  (298) 
OPLS3e

>  <r_lp_Energy>  (298) 
14.689

>  <b_lp_Chiralities_Consistent>  (298) 
1

>  <s_lp_Variant>  (298) 
97:0-1

>  <s_i_glide_gridfile>  (298) 
pfpi4k_grid

>  <i_i_glide_lignum>  (298) 
11

>  <i_i_glide_rotatable_bonds>  (298) 
0

>  <r_i_docking_score>  (298) 
-3.47259

>  <r_i_glide_ligand_efficiency>  (298) 
-0.182768

>  <r_i_glide_ligand_efficiency_sa>  (298) 
-0.487698

>  <r_i_glide_ligand_efficiency_ln>  (298) 
-0.880376

>  <r_i_glide_gscore>  (298) 
-3.47259

>  <r_i_glide_lipo>  (298) 
-0.541274

>  <r_i_glide_hbond>  (298) 
0

>  <r_i_glide_metal>  (298) 
-0

>  <r_i_glide_rewards>  (298) 
-1.67805

>  <r_i_glide_evdw>  (298) 
-22.4921

>  <r_i_glide_ecoul>  (298) 
-0.678523

>  <r_i_glide_erotb>  (298) 
0

>  <r_i_glide_esite>  (298) 
-0.0268794

>  <r_i_glide_emodel>  (298) 
-27.3506

>  <r_i_glide_energy>  (298) 
-23.1707

>  <r_i_glide_einternal>  (298) 
0

>  <r_i_glide_intrahb_reward>  (298) 
-0

>  <i_i_glide_confnum>  (298) 
1

>  <i_i_glide_posenum>  (298) 
31

>  <r_i_glide_eff_state_penalty>  (298) 
0

>  <ligand_id>  (298) 
97

>  <original_smiles>  (298) 
CC1CCC2C(C)OC3OC4(C)CCC(O1)C32OO4

>  <smiles>  (298) 
[H]C([H])([H])C1([H])OC2([H])C([H])([H])C([H])([H])C3(C([H])([H])[H])OOC24C([H])(OC([H])(C([H])([H])[H])C4([H])C([H])([H])C1([H])[H])O3

$$$$
97:0:2
     RDKit          3D

 41 44  0  0  1  0  0  0  0  0999 V2000
    3.0283   -5.6513    0.1691 C   0  0  0  0  0  0  0  0  0  0  0  0
    2.4101   -4.2647    0.0201 C   0  0  2  0  0  0  0  0  0  0  0  0
    1.9378   -3.8401   -1.3960 C   0  0  0  0  0  0  0  0  0  0  0  0
    3.0765   -3.4143   -2.3457 C   0  0  0  0  0  0  0  0  0  0  0  0
    3.7377   -2.1598   -1.8083 C   0  0  2  0  0  0  0  0  0  0  0  0
    4.4167   -1.2746   -2.8323 C   0  0  1  0  0  0  0  0  0  0  0  0
    3.4805   -0.3359   -3.5951 C   0  0  0  0  0  0  0  0  0  0  0  0
    5.3078   -0.5194   -2.0250 O   0  0  0  0  0  0  0  0  0  0  0  0
    5.2773   -0.9557   -0.7002 C   0  0  2  0  0  0  0  0  0  0  0  0
    6.5076   -0.7896   -0.0841 O   0  0  0  0  0  0  0  0  0  0  0  0
    7.1712   -1.9504    0.3317 C   0  0  1  0  0  0  0  0  0  0  0  0
    8.6357   -1.5383    0.4802 C   0  0  0  0  0  0  0  0  0  0  0  0
    6.5901   -2.3621    1.6616 C   0  0  0  0  0  0  0  0  0  0  0  0
    5.0612   -2.4411    1.7530 C   0  0  0  0  0  0  0  0  0  0  0  0
    4.4640   -3.0994    0.5118 C   0  0  1  0  0  0  0  0  0  0  0  0
    3.0666   -3.2227    0.7283 O   0  0  0  0  0  0  0  0  0  0  0  0
    4.8585   -2.4131   -0.8245 C   0  0  1  0  0  0  0  0  0  0  0  0
    5.9310   -3.1056   -1.4488 O   0  0  0  0  0  0  0  0  0  0  0  0
    7.2018   -3.0193   -0.6165 O   0  0  0  0  0  0  0  0  0  0  0  0
    2.2591   -6.3361   -0.1560 H   0  0  0  0  0  0  0  0  0  0  0  0
    3.2441   -5.9189    1.2045 H   0  0  0  0  0  0  0  0  0  0  0  0
    3.9179   -5.8023   -0.4408 H   0  0  0  0  0  0  0  0  0  0  0  0
    1.5122   -4.4474    0.5871 H   0  0  0  0  0  0  0  0  0  0  0  0
    1.3767   -4.6526   -1.8411 H   0  0  0  0  0  0  0  0  0  0  0  0
    1.1828   -3.0585   -1.3472 H   0  0  0  0  0  0  0  0  0  0  0  0
    3.8195   -4.1901   -2.4850 H   0  0  0  0  0  0  0  0  0  0  0  0
    2.6378   -3.2192   -3.3300 H   0  0  0  0  0  0  0  0  0  0  0  0
    2.9767   -1.5685   -1.3149 H   0  0  0  0  0  0  0  0  0  0  0  0
    5.0044   -1.8571   -3.5411 H   0  0  0  0  0  0  0  0  0  0  0  0
    2.7615   -0.8574   -4.2247 H   0  0  0  0  0  0  0  0  0  0  0  0
    4.0321    0.3810   -4.2096 H   0  0  0  0  0  0  0  0  0  0  0  0
    2.8944    0.2264   -2.8843 H   0  0  0  0  0  0  0  0  0  0  0  0
    4.5594   -0.3314   -0.1684 H   0  0  0  0  0  0  0  0  0  0  0  0
    8.9587   -1.2143   -0.4892 H   0  0  0  0  0  0  0  0  0  0  0  0
    9.3003   -2.3462    0.7964 H   0  0  0  0  0  0  0  0  0  0  0  0
    8.8040   -0.6955    1.1746 H   0  0  0  0  0  0  0  0  0  0  0  0
    7.0027   -3.3274    1.9279 H   0  0  0  0  0  0  0  0  0  0  0  0
    6.8297   -1.5834    2.3812 H   0  0  0  0  0  0  0  0  0  0  0  0
    4.8131   -3.0235    2.6467 H   0  0  0  0  0  0  0  0  0  0  0  0
    4.6360   -1.4459    1.9133 H   0  0  0  0  0  0  0  0  0  0  0  0
    4.9218   -4.0847    0.5031 H   0  0  0  0  0  0  0  0  0  0  0  0
  1  2  1  0
  1 20  1  0
  1 21  1  0
  1 22  1  0
  2 16  1  0
  2  3  1  0
  2 23  1  1
  3  4  1  0
  3 24  1  0
  3 25  1  0
  4  5  1  0
  4 26  1  0
  4 27  1  0
  5 17  1  0
  5  6  1  0
  5 28  1  1
  6  7  1  0
  6  8  1  0
  6 29  1  6
  7 30  1  0
  7 31  1  0
  7 32  1  0
  8  9  1  0
  9 17  1  0
  9 10  1  0
  9 33  1  1
 10 11  1  0
 11 19  1  0
 11 12  1  1
 11 13  1  0
 12 34  1  0
 12 35  1  0
 12 36  1  0
 13 14  1  0
 13 37  1  0
 13 38  1  0
 14 15  1  0
 14 39  1  0
 14 40  1  0
 15 16  1  0
 15 17  1  0
 15 41  1  6
 17 18  1  6
 18 19  1  0
M  END
>  <i_m_ct_stereo_status>  (299) 
1

>  <s_m_source_file>  (299) 
/var/tmp/pbs.5076255.sched01/tmpux3k924y/120tsqzh4i4.sdf

>  <i_m_source_file_index>  (299) 
11

>  <i_lp_mmshare_version>  (299) 
48012

>  <i_f3d_flags>  (299) 
0

>  <s_epik_input>  (299) 
W0NAXTEyM1tDQEBIXTRbQ0gyXVtDSDJdW0NAQEhdKFtDSDNdKU9bQ0BASF0yW0NIMl1bQ0gyXVtDQEBdKFtDSDNdKShPTzMpT1tDQEhdMU9bQ0BASF00W0NIM10=

>  <s_epik_cmdline>  (299) 
J2VwaWtfcHl0aG9uJywgJy1waHQnLCAnMi4wJywgJy1waCcsICc3LjAnLCAnLXRuJywgJzgnLCAnLW1hJywgJzIwMCcsICctaW1hZScsICc8aW5maWxlLm1hZT4nLCAnLW9tYWUnLCAnPG91dGZpbGUubWFlPic=

>  <r_lp_tautomer_probability>  (299) 
1

>  <r_epik_Ionization_Penalty>  (299) 
5.46756e-13

>  <r_epik_Ionization_Penalty_Charging>  (299) 
0

>  <r_epik_Ionization_Penalty_Neutral>  (299) 
5.46756e-13

>  <r_epik_State_Penalty>  (299) 
-0

>  <r_epik_Charging_Adjusted_Penalty>  (299) 
0

>  <i_epik_Tot_Q>  (299) 
0

>  <i_epik_Tot_abs_Q>  (299) 
0

>  <s_epik_Chemistry_Notes>  (299) 
This compound contains an acetal/aminal-like group ( X-CH(R)-Y where X, Y are N, S, or O) that may be acid/base labile, releasing an aldehyde.

>  <s_lp_Force_Field>  (299) 
OPLS3e

>  <r_lp_Energy>  (299) 
14.689

>  <b_lp_Chiralities_Consistent>  (299) 
1

>  <s_lp_Variant>  (299) 
97:0-1

>  <s_i_glide_gridfile>  (299) 
pfpi4k_grid

>  <i_i_glide_lignum>  (299) 
11

>  <i_i_glide_rotatable_bonds>  (299) 
0

>  <r_i_docking_score>  (299) 
-2.40578

>  <r_i_glide_ligand_efficiency>  (299) 
-0.12662

>  <r_i_glide_ligand_efficiency_sa>  (299) 
-0.337873

>  <r_i_glide_ligand_efficiency_ln>  (299) 
-0.609918

>  <r_i_glide_gscore>  (299) 
-2.40578

>  <r_i_glide_lipo>  (299) 
-0.346384

>  <r_i_glide_hbond>  (299) 
-0.0505508

>  <r_i_glide_metal>  (299) 
-0

>  <r_i_glide_rewards>  (299) 
-1.56624

>  <r_i_glide_evdw>  (299) 
-4.39407

>  <r_i_glide_ecoul>  (299) 
-1.18359

>  <r_i_glide_erotb>  (299) 
0

>  <r_i_glide_esite>  (299) 
-0.0453632

>  <r_i_glide_emodel>  (299) 
-7.71977

>  <r_i_glide_energy>  (299) 
-5.57765

>  <r_i_glide_einternal>  (299) 
0

>  <r_i_glide_intrahb_reward>  (299) 
-0

>  <i_i_glide_confnum>  (299) 
1

>  <i_i_glide_posenum>  (299) 
2

>  <r_i_glide_eff_state_penalty>  (299) 
0

>  <ligand_id>  (299) 
97

>  <original_smiles>  (299) 
CC1CCC2C(C)OC3OC4(C)CCC(O1)C32OO4

>  <smiles>  (299) 
[H]C([H])([H])C1([H])OC2([H])C([H])([H])C([H])([H])C3(C([H])([H])[H])OOC24C([H])(OC([H])(C([H])([H])[H])C4([H])C([H])([H])C1([H])[H])O3

$$$$
98:0:0
     RDKit          3D

 17 18  0  0  1  0  0  0  0  0999 V2000
   -4.9325   -8.4735   -5.2739 C   0  0  0  0  0  0  0  0  0  0  0  0
   -5.8885   -7.4139   -5.5114 N   0  0  0  0  0  0  0  0  0  0  0  0
   -6.2036   -6.3222   -4.7042 C   0  0  0  0  0  0  0  0  0  0  0  0
   -7.1810   -5.6312   -5.4015 C   0  0  0  0  0  0  0  0  0  0  0  0
   -7.9058   -4.4579   -5.1249 C   0  0  0  0  0  0  0  0  0  0  0  0
   -8.8446   -4.0492   -6.1017 C   0  0  0  0  0  0  0  0  0  0  0  0
   -9.0623   -4.7179   -7.2641 N   0  0  0  0  0  0  0  0  0  0  0  0
   -8.3528   -5.8520   -7.4896 C   0  0  0  0  0  0  0  0  0  0  0  0
   -7.4023   -6.3278   -6.5691 C   0  0  0  0  0  0  0  0  0  0  0  0
   -6.6329   -7.4271   -6.6769 N   0  0  0  0  0  0  0  0  0  0  0  0
   -4.4294   -8.3273   -4.3188 H   0  0  0  0  0  0  0  0  0  0  0  0
   -4.1854   -8.4781   -6.0667 H   0  0  0  0  0  0  0  0  0  0  0  0
   -5.4416   -9.4378   -5.2599 H   0  0  0  0  0  0  0  0  0  0  0  0
   -5.7196   -6.1743   -3.7499 H   0  0  0  0  0  0  0  0  0  0  0  0
   -7.7530   -3.8945   -4.2157 H   0  0  0  0  0  0  0  0  0  0  0  0
   -9.4318   -3.1545   -5.9523 H   0  0  0  0  0  0  0  0  0  0  0  0
   -8.5382   -6.3771   -8.4123 H   0  0  0  0  0  0  0  0  0  0  0  0
  1  2  1  0
  1 11  1  0
  1 12  1  0
  1 13  1  0
  2 10  1  0
  2  3  1  0
  3  4  2  0
  3 14  1  0
  4  9  1  0
  4  5  1  0
  5  6  2  0
  5 15  1  0
  6  7  1  0
  6 16  1  0
  7  8  2  0
  8  9  1  0
  8 17  1  0
  9 10  2  0
M  END
>  <i_m_ct_stereo_status>  (300) 
1

>  <s_m_source_file>  (300) 
/var/tmp/pbs.5076255.sched01/tmpux3k924y/120tsqzh4i4.sdf

>  <i_m_source_file_index>  (300) 
12

>  <i_lp_mmshare_version>  (300) 
48012

>  <i_f3d_flags>  (300) 
0

>  <s_epik_input>  (300) 
W0NIM11uKFtjSF0xKW5jKGMxMilbY0hdbltjSF1bY0hdMg==

>  <s_epik_cmdline>  (300) 
J2VwaWtfcHl0aG9uJywgJy1waHQnLCAnMi4wJywgJy1waCcsICc3LjAnLCAnLXRuJywgJzgnLCAnLW1hJywgJzIwMCcsICctaW1hZScsICc8aW5maWxlLm1hZT4nLCAnLW9tYWUnLCAnPG91dGZpbGUubWFlPic=

>  <r_lp_tautomer_probability>  (300) 
1

>  <r_epik_Ionization_Penalty>  (300) 
2.59249e-07

>  <r_epik_Ionization_Penalty_Charging>  (300) 
0

>  <r_epik_Ionization_Penalty_Neutral>  (300) 
2.59249e-07

>  <r_epik_State_Penalty>  (300) 
-0

>  <r_epik_Charging_Adjusted_Penalty>  (300) 
0

>  <i_epik_Tot_Q>  (300) 
0

>  <i_epik_Tot_abs_Q>  (300) 
0

>  <s_lp_Force_Field>  (300) 
OPLS3e

>  <r_lp_Energy>  (300) 
9.99112

>  <b_lp_Chiralities_Consistent>  (300) 
1

>  <s_lp_Variant>  (300) 
98:0-1

>  <s_i_glide_gridfile>  (300) 
pfpi4k_grid

>  <i_i_glide_lignum>  (300) 
12

>  <i_i_glide_rotatable_bonds>  (300) 
0

>  <r_i_docking_score>  (300) 
-6.26259

>  <r_i_glide_ligand_efficiency>  (300) 
-0.626259

>  <r_i_glide_ligand_efficiency_sa>  (300) 
-1.34923

>  <r_i_glide_ligand_efficiency_ln>  (300) 
-1.89627

>  <r_i_glide_gscore>  (300) 
-6.26259

>  <r_i_glide_lipo>  (300) 
-1.98253

>  <r_i_glide_hbond>  (300) 
0

>  <r_i_glide_metal>  (300) 
-0

>  <r_i_glide_rewards>  (300) 
-3.12988

>  <r_i_glide_evdw>  (300) 
-20.6914

>  <r_i_glide_ecoul>  (300) 
-0.770704

>  <r_i_glide_erotb>  (300) 
0

>  <r_i_glide_esite>  (300) 
0

>  <r_i_glide_emodel>  (300) 
-30.0393

>  <r_i_glide_energy>  (300) 
-21.4621

>  <r_i_glide_einternal>  (300) 
0

>  <r_i_glide_intrahb_reward>  (300) 
-0

>  <i_i_glide_confnum>  (300) 
1

>  <i_i_glide_posenum>  (300) 
10

>  <r_i_glide_eff_state_penalty>  (300) 
0

>  <ligand_id>  (300) 
98

>  <original_smiles>  (300) 
Cn1cc2ccncc2n1

>  <smiles>  (300) 
[H]c1nc([H])c2nn(C([H])([H])[H])c([H])c2c1[H]

$$$$
98:0:1
     RDKit          3D

 17 18  0  0  1  0  0  0  0  0999 V2000
   -9.5201   -3.4947   -5.9367 C   0  0  0  0  0  0  0  0  0  0  0  0
   -8.5036   -4.5220   -5.8629 N   0  0  0  0  0  0  0  0  0  0  0  0
   -7.4804   -4.6769   -4.9290 C   0  0  0  0  0  0  0  0  0  0  0  0
   -6.8084   -5.8226   -5.3244 C   0  0  0  0  0  0  0  0  0  0  0  0
   -5.6947   -6.5084   -4.8056 C   0  0  0  0  0  0  0  0  0  0  0  0
   -5.2869   -7.6713   -5.5024 C   0  0  0  0  0  0  0  0  0  0  0  0
   -5.9091   -8.1395   -6.6151 N   0  0  0  0  0  0  0  0  0  0  0  0
   -6.9836   -7.4576   -7.0816 C   0  0  0  0  0  0  0  0  0  0  0  0
   -7.4477   -6.2889   -6.4526 C   0  0  0  0  0  0  0  0  0  0  0  0
   -8.4837   -5.5160   -6.8236 N   0  0  0  0  0  0  0  0  0  0  0  0
   -9.3935   -2.7809   -5.1238 H   0  0  0  0  0  0  0  0  0  0  0  0
  -10.5120   -3.9437   -5.8672 H   0  0  0  0  0  0  0  0  0  0  0  0
   -9.4383   -2.9639   -6.8844 H   0  0  0  0  0  0  0  0  0  0  0  0
   -7.3560   -3.9773   -4.1145 H   0  0  0  0  0  0  0  0  0  0  0  0
   -5.1857   -6.1687   -3.9188 H   0  0  0  0  0  0  0  0  0  0  0  0
   -4.4379   -8.2443   -5.1558 H   0  0  0  0  0  0  0  0  0  0  0  0
   -7.4640   -7.8391   -7.9683 H   0  0  0  0  0  0  0  0  0  0  0  0
  1  2  1  0
  1 11  1  0
  1 12  1  0
  1 13  1  0
  2 10  1  0
  2  3  1  0
  3  4  2  0
  3 14  1  0
  4  9  1  0
  4  5  1  0
  5  6  2  0
  5 15  1  0
  6  7  1  0
  6 16  1  0
  7  8  2  0
  8  9  1  0
  8 17  1  0
  9 10  2  0
M  END
>  <i_m_ct_stereo_status>  (301) 
1

>  <s_m_source_file>  (301) 
/var/tmp/pbs.5076255.sched01/tmpux3k924y/120tsqzh4i4.sdf

>  <i_m_source_file_index>  (301) 
12

>  <i_lp_mmshare_version>  (301) 
48012

>  <i_f3d_flags>  (301) 
0

>  <s_epik_input>  (301) 
W0NIM11uKFtjSF0xKW5jKGMxMilbY0hdbltjSF1bY0hdMg==

>  <s_epik_cmdline>  (301) 
J2VwaWtfcHl0aG9uJywgJy1waHQnLCAnMi4wJywgJy1waCcsICc3LjAnLCAnLXRuJywgJzgnLCAnLW1hJywgJzIwMCcsICctaW1hZScsICc8aW5maWxlLm1hZT4nLCAnLW9tYWUnLCAnPG91dGZpbGUubWFlPic=

>  <r_lp_tautomer_probability>  (301) 
1

>  <r_epik_Ionization_Penalty>  (301) 
2.59249e-07

>  <r_epik_Ionization_Penalty_Charging>  (301) 
0

>  <r_epik_Ionization_Penalty_Neutral>  (301) 
2.59249e-07

>  <r_epik_State_Penalty>  (301) 
-0

>  <r_epik_Charging_Adjusted_Penalty>  (301) 
0

>  <i_epik_Tot_Q>  (301) 
0

>  <i_epik_Tot_abs_Q>  (301) 
0

>  <s_lp_Force_Field>  (301) 
OPLS3e

>  <r_lp_Energy>  (301) 
9.99112

>  <b_lp_Chiralities_Consistent>  (301) 
1

>  <s_lp_Variant>  (301) 
98:0-1

>  <s_i_glide_gridfile>  (301) 
pfpi4k_grid

>  <i_i_glide_lignum>  (301) 
12

>  <i_i_glide_rotatable_bonds>  (301) 
0

>  <r_i_docking_score>  (301) 
-6.13679

>  <r_i_glide_ligand_efficiency>  (301) 
-0.613679

>  <r_i_glide_ligand_efficiency_sa>  (301) 
-1.32213

>  <r_i_glide_ligand_efficiency_ln>  (301) 
-1.85818

>  <r_i_glide_gscore>  (301) 
-6.13679

>  <r_i_glide_lipo>  (301) 
-2.0208

>  <r_i_glide_hbond>  (301) 
0

>  <r_i_glide_metal>  (301) 
-0

>  <r_i_glide_rewards>  (301) 
-3

>  <r_i_glide_evdw>  (301) 
-21.4079

>  <r_i_glide_ecoul>  (301) 
-0.303954

>  <r_i_glide_erotb>  (301) 
0

>  <r_i_glide_esite>  (301) 
0

>  <r_i_glide_emodel>  (301) 
-30.1161

>  <r_i_glide_energy>  (301) 
-21.7119

>  <r_i_glide_einternal>  (301) 
0

>  <r_i_glide_intrahb_reward>  (301) 
-0

>  <i_i_glide_confnum>  (301) 
2

>  <i_i_glide_posenum>  (301) 
2

>  <r_i_glide_eff_state_penalty>  (301) 
0

>  <ligand_id>  (301) 
98

>  <original_smiles>  (301) 
Cn1cc2ccncc2n1

>  <smiles>  (301) 
[H]c1nc([H])c2nn(C([H])([H])[H])c([H])c2c1[H]

$$$$
98:0:2
     RDKit          3D

 17 18  0  0  1  0  0  0  0  0999 V2000
   -1.4980   -8.8209    2.0797 C   0  0  0  0  0  0  0  0  0  0  0  0
   -0.9003   -8.3636    3.3117 N   0  0  0  0  0  0  0  0  0  0  0  0
   -0.1712   -9.0890    4.2508 C   0  0  0  0  0  0  0  0  0  0  0  0
    0.1652   -8.1729    5.2312 C   0  0  0  0  0  0  0  0  0  0  0  0
    0.8799   -8.2822    6.4382 C   0  0  0  0  0  0  0  0  0  0  0  0
    1.0158   -7.0972    7.1978 C   0  0  0  0  0  0  0  0  0  0  0  0
    0.4942   -5.8997    6.8256 N   0  0  0  0  0  0  0  0  0  0  0  0
   -0.1837   -5.8347    5.6544 C   0  0  0  0  0  0  0  0  0  0  0  0
   -0.3637   -6.9628    4.8375 C   0  0  0  0  0  0  0  0  0  0  0  0
   -1.0228   -7.0330    3.6652 N   0  0  0  0  0  0  0  0  0  0  0  0
   -1.3084   -9.8847    1.9389 H   0  0  0  0  0  0  0  0  0  0  0  0
   -1.0643   -8.2675    1.2470 H   0  0  0  0  0  0  0  0  0  0  0  0
   -2.5742   -8.6532    2.1018 H   0  0  0  0  0  0  0  0  0  0  0  0
    0.0076  -10.1487    4.1240 H   0  0  0  0  0  0  0  0  0  0  0  0
    1.3011   -9.2239    6.7666 H   0  0  0  0  0  0  0  0  0  0  0  0
    1.5587   -7.1064    8.1318 H   0  0  0  0  0  0  0  0  0  0  0  0
   -0.5848   -4.8765    5.3694 H   0  0  0  0  0  0  0  0  0  0  0  0
  1  2  1  0
  1 11  1  0
  1 12  1  0
  1 13  1  0
  2 10  1  0
  2  3  1  0
  3  4  2  0
  3 14  1  0
  4  9  1  0
  4  5  1  0
  5  6  2  0
  5 15  1  0
  6  7  1  0
  6 16  1  0
  7  8  2  0
  8  9  1  0
  8 17  1  0
  9 10  2  0
M  END
>  <i_m_ct_stereo_status>  (302) 
1

>  <s_m_source_file>  (302) 
/var/tmp/pbs.5076255.sched01/tmpux3k924y/120tsqzh4i4.sdf

>  <i_m_source_file_index>  (302) 
12

>  <i_lp_mmshare_version>  (302) 
48012

>  <i_f3d_flags>  (302) 
0

>  <s_epik_input>  (302) 
W0NIM11uKFtjSF0xKW5jKGMxMilbY0hdbltjSF1bY0hdMg==

>  <s_epik_cmdline>  (302) 
J2VwaWtfcHl0aG9uJywgJy1waHQnLCAnMi4wJywgJy1waCcsICc3LjAnLCAnLXRuJywgJzgnLCAnLW1hJywgJzIwMCcsICctaW1hZScsICc8aW5maWxlLm1hZT4nLCAnLW9tYWUnLCAnPG91dGZpbGUubWFlPic=

>  <r_lp_tautomer_probability>  (302) 
1

>  <r_epik_Ionization_Penalty>  (302) 
2.59249e-07

>  <r_epik_Ionization_Penalty_Charging>  (302) 
0

>  <r_epik_Ionization_Penalty_Neutral>  (302) 
2.59249e-07

>  <r_epik_State_Penalty>  (302) 
-0

>  <r_epik_Charging_Adjusted_Penalty>  (302) 
0

>  <i_epik_Tot_Q>  (302) 
0

>  <i_epik_Tot_abs_Q>  (302) 
0

>  <s_lp_Force_Field>  (302) 
OPLS3e

>  <r_lp_Energy>  (302) 
9.99112

>  <b_lp_Chiralities_Consistent>  (302) 
1

>  <s_lp_Variant>  (302) 
98:0-1

>  <s_i_glide_gridfile>  (302) 
pfpi4k_grid

>  <i_i_glide_lignum>  (302) 
12

>  <i_i_glide_rotatable_bonds>  (302) 
0

>  <r_i_docking_score>  (302) 
-3.58329

>  <r_i_glide_ligand_efficiency>  (302) 
-0.358329

>  <r_i_glide_ligand_efficiency_sa>  (302) 
-0.771997

>  <r_i_glide_ligand_efficiency_ln>  (302) 
-1.085

>  <r_i_glide_gscore>  (302) 
-3.58329

>  <r_i_glide_lipo>  (302) 
-0.106872

>  <r_i_glide_hbond>  (302) 
-0.0539885

>  <r_i_glide_metal>  (302) 
-0

>  <r_i_glide_rewards>  (302) 
-2.25

>  <r_i_glide_evdw>  (302) 
-13.2789

>  <r_i_glide_ecoul>  (302) 
-3.01443

>  <r_i_glide_erotb>  (302) 
0

>  <r_i_glide_esite>  (302) 
-0.0563233

>  <r_i_glide_emodel>  (302) 
-21.1999

>  <r_i_glide_energy>  (302) 
-16.2933

>  <r_i_glide_einternal>  (302) 
0

>  <r_i_glide_intrahb_reward>  (302) 
-0

>  <i_i_glide_confnum>  (302) 
1

>  <i_i_glide_posenum>  (302) 
12

>  <r_i_glide_eff_state_penalty>  (302) 
0

>  <ligand_id>  (302) 
98

>  <original_smiles>  (302) 
Cn1cc2ccncc2n1

>  <smiles>  (302) 
[H]c1nc([H])c2nn(C([H])([H])[H])c([H])c2c1[H]

$$$$
100:0:0
     RDKit          3D

 33 38  0  0  1  0  0  0  0  0999 V2000
    3.5898   -3.5126    1.2460 C   0  0  0  0  0  0  0  0  0  0  0  0
    4.5733   -2.5968    1.7232 O   0  0  0  0  0  0  0  0  0  0  0  0
    5.2935   -1.7769    0.8086 C   0  0  2  0  0  0  0  0  0  0  0  0
    4.4195   -0.9337   -0.1363 C   0  0  0  0  0  0  0  0  0  0  0  0
    4.9517   -1.1744   -1.5509 C   0  0  1  0  0  0  0  0  0  0  0  0
    6.0246   -2.2616   -1.4830 C   0  0  1  0  0  0  0  0  0  0  0  0
    6.3298   -2.5712   -0.0132 C   0  0  2  0  0  0  0  0  0  0  0  0
    6.1882   -4.0994    0.0803 C   0  0  0  0  0  0  0  0  0  0  0  0
    5.0213   -4.3850   -0.8701 C   0  0  1  0  0  0  0  0  0  0  0  0
    3.6345   -4.0765   -0.2124 C   0  0  2  0  0  0  0  0  0  0  0  0
    2.5101   -3.5421   -1.1358 C   0  0  0  0  0  0  0  0  0  0  0  0
    2.9168   -2.7928   -2.3825 C   0  0  1  0  0  0  0  0  0  0  0  0
    3.9055   -1.6502   -2.5368 C   0  0  2  0  0  0  0  0  0  0  0  0
    4.2629   -3.0574   -2.9501 C   0  0  1  0  0  0  0  0  0  0  0  0
    5.4009   -3.5156   -2.0820 C   0  0  1  0  0  0  0  0  0  0  0  0
    2.6195   -3.0538    1.4316 H   0  0  0  0  0  0  0  0  0  0  0  0
    3.6261   -4.3554    1.9398 H   0  0  0  0  0  0  0  0  0  0  0  0
    5.8584   -1.0820    1.4313 H   0  0  0  0  0  0  0  0  0  0  0  0
    3.3607   -1.1792   -0.0520 H   0  0  0  0  0  0  0  0  0  0  0  0
    4.4940    0.1232    0.1282 H   0  0  0  0  0  0  0  0  0  0  0  0
    5.3969   -0.2553   -1.9348 H   0  0  0  0  0  0  0  0  0  0  0  0
    6.9203   -1.9906   -2.0435 H   0  0  0  0  0  0  0  0  0  0  0  0
    7.3399   -2.2615    0.2601 H   0  0  0  0  0  0  0  0  0  0  0  0
    7.0978   -4.5647   -0.3089 H   0  0  0  0  0  0  0  0  0  0  0  0
    6.0542   -4.4789    1.0918 H   0  0  0  0  0  0  0  0  0  0  0  0
    5.0213   -5.4351   -1.1656 H   0  0  0  0  0  0  0  0  0  0  0  0
    3.2618   -5.0811   -0.0251 H   0  0  0  0  0  0  0  0  0  0  0  0
    1.9147   -4.3899   -1.4827 H   0  0  0  0  0  0  0  0  0  0  0  0
    1.8163   -2.9306   -0.5757 H   0  0  0  0  0  0  0  0  0  0  0  0
    2.0929   -2.7116   -3.0879 H   0  0  0  0  0  0  0  0  0  0  0  0
    3.7106   -0.9539   -3.3427 H   0  0  0  0  0  0  0  0  0  0  0  0
    4.3068   -3.3039   -4.0000 H   0  0  0  0  0  0  0  0  0  0  0  0
    6.1384   -4.0186   -2.7070 H   0  0  0  0  0  0  0  0  0  0  0  0
  1 10  1  0
  1  2  1  0
  1 16  1  0
  1 17  1  0
  2  3  1  0
  3  7  1  0
  3  4  1  0
  3 18  1  1
  4  5  1  0
  4 19  1  0
  4 20  1  0
  5 13  1  0
  5  6  1  0
  5 21  1  6
  6 15  1  0
  6  7  1  0
  6 22  1  6
  7  8  1  0
  7 23  1  1
  8  9  1  0
  8 24  1  0
  8 25  1  0
  9 15  1  0
  9 10  1  0
  9 26  1  6
 10 11  1  0
 10 27  1  1
 11 12  1  0
 11 28  1  0
 11 29  1  0
 12 14  1  0
 12 13  1  0
 12 30  1  6
 13 14  1  0
 13 31  1  6
 14 15  1  0
 14 32  1  6
 15 33  1  6
M  END
>  <i_m_ct_stereo_status>  (303) 
1

>  <s_m_source_file>  (303) 
/var/tmp/pbs.5076255.sched01/tmpux3k924y/120tsqzh4i4.sdf

>  <i_m_source_file_index>  (303) 
14

>  <i_lp_mmshare_version>  (303) 
48012

>  <i_f3d_flags>  (303) 
0

>  <s_epik_input>  (303) 
TzFbQ0gyXVtDQEBIXShbQ0gyXTIpW0NASF0oW0NIMl0zKVtDQEhdNFtDQEhdNVtDQEBIXTJbQ0BIXTVbQ0BASF0oW0NIMl02KVtDQEhdNFtDQEhdM1tDQEhdMTY=

>  <s_epik_cmdline>  (303) 
J2VwaWtfcHl0aG9uJywgJy1waHQnLCAnMi4wJywgJy1waCcsICc3LjAnLCAnLXRuJywgJzgnLCAnLW1hJywgJzIwMCcsICctaW1hZScsICc8aW5maWxlLm1hZT4nLCAnLW9tYWUnLCAnPG91dGZpbGUubWFlPic=

>  <r_lp_tautomer_probability>  (303) 
1

>  <r_epik_Ionization_Penalty>  (303) 
1.38087e-10

>  <r_epik_Ionization_Penalty_Charging>  (303) 
0

>  <r_epik_Ionization_Penalty_Neutral>  (303) 
1.38087e-10

>  <r_epik_State_Penalty>  (303) 
-0

>  <r_epik_Charging_Adjusted_Penalty>  (303) 
0

>  <i_epik_Tot_Q>  (303) 
0

>  <i_epik_Tot_abs_Q>  (303) 
0

>  <s_lp_Force_Field>  (303) 
OPLS3e

>  <r_lp_Energy>  (303) 
54.9206

>  <b_lp_Chiralities_Consistent>  (303) 
1

>  <s_lp_Variant>  (303) 
100:0-1

>  <s_i_glide_gridfile>  (303) 
pfpi4k_grid

>  <i_i_glide_lignum>  (303) 
14

>  <i_i_glide_rotatable_bonds>  (303) 
0

>  <r_i_docking_score>  (303) 
-3.43908

>  <r_i_glide_ligand_efficiency>  (303) 
-0.229272

>  <r_i_glide_ligand_efficiency_sa>  (303) 
-0.565434

>  <r_i_glide_ligand_efficiency_ln>  (303) 
-0.927464

>  <r_i_glide_gscore>  (303) 
-3.43908

>  <r_i_glide_lipo>  (303) 
-0.369695

>  <r_i_glide_hbond>  (303) 
0

>  <r_i_glide_metal>  (303) 
-0

>  <r_i_glide_rewards>  (303) 
-2.02983

>  <r_i_glide_evdw>  (303) 
-21.242

>  <r_i_glide_ecoul>  (303) 
0.15025

>  <r_i_glide_erotb>  (303) 
0

>  <r_i_glide_esite>  (303) 
0

>  <r_i_glide_emodel>  (303) 
-25.3986

>  <r_i_glide_energy>  (303) 
-21.0917

>  <r_i_glide_einternal>  (303) 
0

>  <r_i_glide_intrahb_reward>  (303) 
-0

>  <i_i_glide_confnum>  (303) 
2

>  <i_i_glide_posenum>  (303) 
35

>  <r_i_glide_eff_state_penalty>  (303) 
0

>  <ligand_id>  (303) 
100

>  <original_smiles>  (303) 
C1OC2CC3C4C2CC2C1CC1C3C1C24

>  <smiles>  (303) 
[H]C1([H])OC2([H])C([H])([H])C3([H])C4([H])C2([H])C([H])([H])C2([H])C1([H])C([H])([H])C1([H])C3([H])C1([H])C24[H]

$$$$
101:0:0
     RDKit          3D

 42 45  0  0  1  0  0  0  0  0999 V2000
    5.5077   -3.1875   -3.3512 C   0  0  0  0  0  0  0  0  0  0  0  0
    5.3775   -2.6175   -1.9128 C   0  0  2  0  0  0  0  0  0  0  0  0
    6.5209   -3.4571   -0.8779 C   0  0  0  0  0  0  0  0  0  0  0  0
    6.0805   -4.7478    0.2102 C   0  0  2  0  0  0  0  0  0  0  0  0
    5.0435   -4.3897   -0.4081 C   0  0  0  0  0  0  0  0  0  0  0  0
    4.6501   -2.8647    0.5820 C   0  0  2  0  0  0  0  0  0  0  0  0
    3.6136   -3.1596    1.6771 C   0  0  0  0  0  0  0  0  0  0  0  0
    3.1598   -4.3554    0.9445 C   0  0  2  0  0  0  0  0  0  0  0  0
    4.7002   -5.2018    1.1711 C   0  0  0  0  0  0  0  0  0  0  0  0
    2.6578   -3.6392   -0.5852 C   0  0  0  0  0  0  0  0  0  0  0  0
    3.7162   -2.4924   -1.3954 C   0  0  2  0  0  0  0  0  0  0  0  0
    2.9130   -1.7180   -2.3249 N   0  0  0  0  0  0  0  0  0  0  0  0
    3.6150   -0.6781   -3.1531 C   0  0  0  0  0  0  0  0  0  0  0  0
    2.7696   -1.1359   -4.3071 C   0  0  0  0  0  0  0  0  0  0  0  0
    2.4972   -2.4673   -3.5515 C   0  0  0  0  0  0  0  0  0  0  0  0
    4.0618   -1.6747   -0.1901 C   0  0  0  0  0  0  0  0  0  0  0  0
    5.0936   -4.1906   -3.4954 H   0  0  0  0  0  0  0  0  0  0  0  0
    6.5558   -3.2468   -3.6212 H   0  0  0  0  0  0  0  0  0  0  0  0
    5.0013   -2.5454   -4.0810 H   0  0  0  0  0  0  0  0  0  0  0  0
    5.7818   -1.6116   -2.0243 H   0  0  0  0  0  0  0  0  0  0  0  0
    7.2942   -3.8593   -1.5365 H   0  0  0  0  0  0  0  0  0  0  0  0
    7.0890   -2.7035   -0.3194 H   0  0  0  0  0  0  0  0  0  0  0  0
    6.5187   -5.6721   -0.1652 H   0  0  0  0  0  0  0  0  0  0  0  0
    4.9771   -4.7174   -1.4769 H   0  0  0  0  0  0  0  0  0  0  0  0
    4.3628   -5.1967   -0.8151 H   0  0  0  0  0  0  0  0  0  0  0  0
    5.5106   -2.4693    1.1543 H   0  0  0  0  0  0  0  0  0  0  0  0
    4.0495   -3.3854    2.6612 H   0  0  0  0  0  0  0  0  0  0  0  0
    2.8029   -2.4482    1.8411 H   0  0  0  0  0  0  0  0  0  0  0  0
    2.3370   -4.8684    1.4665 H   0  0  0  0  0  0  0  0  0  0  0  0
    4.5017   -6.2781    0.9897 H   0  0  0  0  0  0  0  0  0  0  0  0
    5.0035   -5.2286    2.2413 H   0  0  0  0  0  0  0  0  0  0  0  0
    2.3750   -4.4330   -1.2762 H   0  0  0  0  0  0  0  0  0  0  0  0
    1.7172   -3.1228   -0.3860 H   0  0  0  0  0  0  0  0  0  0  0  0
    3.3880    0.3232   -2.7931 H   0  0  0  0  0  0  0  0  0  0  0  0
    4.6769   -0.8524   -3.3466 H   0  0  0  0  0  0  0  0  0  0  0  0
    1.8940   -0.5351   -4.5186 H   0  0  0  0  0  0  0  0  0  0  0  0
    3.3493   -1.2885   -5.1973 H   0  0  0  0  0  0  0  0  0  0  0  0
    3.1850   -3.2918   -3.7954 H   0  0  0  0  0  0  0  0  0  0  0  0
    1.4445   -2.7751   -3.4869 H   0  0  0  0  0  0  0  0  0  0  0  0
    3.1823   -1.2082    0.2570 H   0  0  0  0  0  0  0  0  0  0  0  0
    4.7788   -0.8717   -0.3365 H   0  0  0  0  0  0  0  0  0  0  0  0
    2.0933   -1.3759   -1.8595 H   0  0  0  0  0  0  0  0  0  0  0  0
  1  2  1  0
  1 17  1  0
  1 18  1  0
  1 19  1  0
  2 11  1  0
  2  3  1  0
  2 20  1  6
  3  4  1  0
  3 21  1  0
  3 22  1  0
  4  9  1  0
  4  5  1  0
  4 23  1  6
  5  6  1  0
  5 24  1  0
  5 25  1  0
  6 16  1  0
  6  7  1  0
  6 26  1  1
  7  8  1  0
  7 27  1  0
  7 28  1  0
  8  9  1  0
  8 10  1  0
  8 29  1  1
  9 30  1  0
  9 31  1  0
 10 11  1  0
 10 32  1  0
 10 33  1  0
 11 12  1  6
 11 16  1  0
 12 15  1  0
 12 13  1  0
 12 42  1  0
 13 14  1  0
 13 34  1  0
 13 35  1  0
 14 15  1  0
 14 36  1  0
 14 37  1  0
 15 38  1  0
 15 39  1  0
 16 40  1  0
 16 41  1  0
M  CHG  1  12   1
M  END
>  <i_m_ct_stereo_status>  (304) 
1

>  <s_m_source_file>  (304) 
/var/tmp/pbs.5076255.sched01/tmpux3k924y/120tsqzh4i4.sdf

>  <i_m_source_file_index>  (304) 
15

>  <i_lp_mmshare_version>  (304) 
48012

>  <i_f3d_flags>  (304) 
0

>  <s_epik_input>  (304) 
W0NIMl0xW0NIMl1bQ0gyXU4xW0NAXTIzW0NASF0oW0NIM10pW0NIMl1bQ0BIXTRbQ0gyXVtDQEBIXShbQ0gyXTMpW0NIMl1bQ0BIXShbQ0gyXTQpW0NIMl0y

>  <s_epik_cmdline>  (304) 
J2VwaWtfcHl0aG9uJywgJy1waHQnLCAnMi4wJywgJy1waCcsICc3LjAnLCAnLXRuJywgJzgnLCAnLW1hJywgJzIwMCcsICctaW1hZScsICc8aW5maWxlLm1hZT4nLCAnLW9tYWUnLCAnPG91dGZpbGUubWFlPic=

>  <r_lp_tautomer_probability>  (304) 
1

>  <r_epik_Ionization_Penalty>  (304) 
0.000141286

>  <r_epik_Ionization_Penalty_Charging>  (304) 
0.000141286

>  <r_epik_Ionization_Penalty_Neutral>  (304) 
0

>  <r_epik_State_Penalty>  (304) 
-0

>  <r_epik_Charging_Adjusted_Penalty>  (304) 
0.000141286

>  <i_epik_Tot_Q>  (304) 
1

>  <i_epik_Tot_abs_Q>  (304) 
1

>  <s_lp_Force_Field>  (304) 
OPLS3e

>  <r_lp_Energy>  (304) 
524.553

>  <b_lp_Chiralities_Consistent>  (304) 
1

>  <s_lp_Variant>  (304) 
101:0-1

>  <s_i_glide_gridfile>  (304) 
pfpi4k_grid

>  <i_i_glide_lignum>  (304) 
15

>  <i_i_glide_rotatable_bonds>  (304) 
1

>  <r_i_docking_score>  (304) 
-4.2379

>  <r_i_glide_ligand_efficiency>  (304) 
-0.264869

>  <r_i_glide_ligand_efficiency_sa>  (304) 
-0.667427

>  <r_i_glide_ligand_efficiency_ln>  (304) 
-1.12334

>  <r_i_glide_gscore>  (304) 
-4.2379

>  <r_i_glide_lipo>  (304) 
-0.874866

>  <r_i_glide_hbond>  (304) 
-0.2

>  <r_i_glide_metal>  (304) 
-0

>  <r_i_glide_rewards>  (304) 
-1.90654

>  <r_i_glide_evdw>  (304) 
-14.2221

>  <r_i_glide_ecoul>  (304) 
-5.45716

>  <r_i_glide_erotb>  (304) 
0.347016

>  <r_i_glide_esite>  (304) 
-0.0738264

>  <r_i_glide_emodel>  (304) 
-12.9477

>  <r_i_glide_energy>  (304) 
-19.6793

>  <r_i_glide_einternal>  (304) 
23.1583

>  <r_i_glide_intrahb_reward>  (304) 
-0

>  <i_i_glide_confnum>  (304) 
3

>  <i_i_glide_posenum>  (304) 
25

>  <r_i_glide_eff_state_penalty>  (304) 
0

>  <ligand_id>  (304) 
101

>  <original_smiles>  (304) 
CC1CC2CC3CC(C2)CC1(N1CCC1)C3

>  <smiles>  (304) 
[H]C([H])([H])C1([H])C([H])([H])C2([H])C([H])([H])C3([H])C([H])([H])C([H])(C2([H])[H])C([H])([H])C1([N+]1([H])C([H])([H])C([H])([H])C1([H])[H])C3([H])[H]

$$$$
101:0:1
     RDKit          3D

 42 45  0  0  1  0  0  0  0  0999 V2000
    6.9404   -2.7907   -1.7250 C   0  0  0  0  0  0  0  0  0  0  0  0
    5.9197   -1.9766   -0.8977 C   0  0  2  0  0  0  0  0  0  0  0  0
    6.4575   -1.7727    0.7754 C   0  0  0  0  0  0  0  0  0  0  0  0
    5.8205   -2.7020    2.1223 C   0  0  2  0  0  0  0  0  0  0  0  0
    5.2836   -3.1173    1.0590 C   0  0  0  0  0  0  0  0  0  0  0  0
    4.0239   -1.7557    0.8933 C   0  0  2  0  0  0  0  0  0  0  0  0
    2.6606   -2.1686    1.4639 C   0  0  0  0  0  0  0  0  0  0  0  0
    3.0182   -3.5868    1.3645 C   0  0  2  0  0  0  0  0  0  0  0  0
    4.3008   -3.4530    2.5695 C   0  0  0  0  0  0  0  0  0  0  0  0
    3.3123   -3.7435   -0.3538 C   0  0  0  0  0  0  0  0  0  0  0  0
    4.2846   -2.5047   -1.1471 C   0  0  2  0  0  0  0  0  0  0  0  0
    4.0109   -2.5441   -2.6083 N   0  0  0  0  0  0  0  0  0  0  0  0
    2.6172   -2.7415   -3.0279 C   0  0  0  0  0  0  0  0  0  0  0  0
    2.9565   -1.8468   -4.1966 C   0  0  0  0  0  0  0  0  0  0  0  0
    4.0505   -1.2698   -3.3404 C   0  0  0  0  0  0  0  0  0  0  0  0
    3.7340   -1.2848   -0.5085 C   0  0  0  0  0  0  0  0  0  0  0  0
    6.9349   -3.8500   -1.4710 H   0  0  0  0  0  0  0  0  0  0  0  0
    7.9596   -2.4382   -1.5710 H   0  0  0  0  0  0  0  0  0  0  0  0
    6.7428   -2.7254   -2.7918 H   0  0  0  0  0  0  0  0  0  0  0  0
    6.0360   -0.9912   -1.3528 H   0  0  0  0  0  0  0  0  0  0  0  0
    7.5414   -1.9311    0.7757 H   0  0  0  0  0  0  0  0  0  0  0  0
    6.3938   -0.7066    1.0166 H   0  0  0  0  0  0  0  0  0  0  0  0
    6.6122   -3.3588    2.4649 H   0  0  0  0  0  0  0  0  0  0  0  0
    5.9260   -3.7316    0.3848 H   0  0  0  0  0  0  0  0  0  0  0  0
    5.1816   -4.2360    0.9308 H   0  0  0  0  0  0  0  0  0  0  0  0
    4.2675   -0.8495    1.4647 H   0  0  0  0  0  0  0  0  0  0  0  0
    2.4710   -1.8143    2.4819 H   0  0  0  0  0  0  0  0  0  0  0  0
    1.7702   -1.9281    0.8837 H   0  0  0  0  0  0  0  0  0  0  0  0
    2.2051   -4.2381    1.6993 H   0  0  0  0  0  0  0  0  0  0  0  0
    4.5146   -4.4752    2.9170 H   0  0  0  0  0  0  0  0  0  0  0  0
    3.9348   -2.9840    3.4873 H   0  0  0  0  0  0  0  0  0  0  0  0
    3.7305   -4.7251   -0.5855 H   0  0  0  0  0  0  0  0  0  0  0  0
    2.3142   -3.7783   -0.7884 H   0  0  0  0  0  0  0  0  0  0  0  0
    2.3926   -3.7764   -3.2929 H   0  0  0  0  0  0  0  0  0  0  0  0
    1.8804   -2.2883   -2.3648 H   0  0  0  0  0  0  0  0  0  0  0  0
    3.3223   -2.3849   -5.0742 H   0  0  0  0  0  0  0  0  0  0  0  0
    2.2133   -1.0919   -4.4226 H   0  0  0  0  0  0  0  0  0  0  0  0
    3.7377   -0.3687   -2.7927 H   0  0  0  0  0  0  0  0  0  0  0  0
    4.9282   -1.1090   -3.9395 H   0  0  0  0  0  0  0  0  0  0  0  0
    2.6901   -1.1368   -0.7572 H   0  0  0  0  0  0  0  0  0  0  0  0
    4.2194   -0.3252   -0.7165 H   0  0  0  0  0  0  0  0  0  0  0  0
    4.6019   -3.2518   -3.0414 H   0  0  0  0  0  0  0  0  0  0  0  0
  1  2  1  0
  1 17  1  0
  1 18  1  0
  1 19  1  0
  2 11  1  0
  2  3  1  0
  2 20  1  6
  3  4  1  0
  3 21  1  0
  3 22  1  0
  4  9  1  0
  4  5  1  0
  4 23  1  1
  5  6  1  0
  5 24  1  0
  5 25  1  0
  6 16  1  0
  6  7  1  0
  6 26  1  1
  7  8  1  0
  7 27  1  0
  7 28  1  0
  8  9  1  0
  8 10  1  0
  8 29  1  1
  9 30  1  0
  9 31  1  0
 10 11  1  0
 10 32  1  0
 10 33  1  0
 11 12  1  6
 11 16  1  0
 12 15  1  0
 12 13  1  0
 12 42  1  0
 13 14  1  0
 13 34  1  0
 13 35  1  0
 14 15  1  0
 14 36  1  0
 14 37  1  0
 15 38  1  0
 15 39  1  0
 16 40  1  0
 16 41  1  0
M  CHG  1  12   1
M  END
>  <i_m_ct_stereo_status>  (305) 
1

>  <s_m_source_file>  (305) 
/var/tmp/pbs.5076255.sched01/tmpux3k924y/120tsqzh4i4.sdf

>  <i_m_source_file_index>  (305) 
15

>  <i_lp_mmshare_version>  (305) 
48012

>  <i_f3d_flags>  (305) 
0

>  <s_epik_input>  (305) 
W0NIMl0xW0NIMl1bQ0gyXU4xW0NAXTIzW0NASF0oW0NIM10pW0NIMl1bQ0BIXTRbQ0gyXVtDQEBIXShbQ0gyXTMpW0NIMl1bQ0BIXShbQ0gyXTQpW0NIMl0y

>  <s_epik_cmdline>  (305) 
J2VwaWtfcHl0aG9uJywgJy1waHQnLCAnMi4wJywgJy1waCcsICc3LjAnLCAnLXRuJywgJzgnLCAnLW1hJywgJzIwMCcsICctaW1hZScsICc8aW5maWxlLm1hZT4nLCAnLW9tYWUnLCAnPG91dGZpbGUubWFlPic=

>  <r_lp_tautomer_probability>  (305) 
1

>  <r_epik_Ionization_Penalty>  (305) 
0.000141286

>  <r_epik_Ionization_Penalty_Charging>  (305) 
0.000141286

>  <r_epik_Ionization_Penalty_Neutral>  (305) 
0

>  <r_epik_State_Penalty>  (305) 
-0

>  <r_epik_Charging_Adjusted_Penalty>  (305) 
0.000141286

>  <i_epik_Tot_Q>  (305) 
1

>  <i_epik_Tot_abs_Q>  (305) 
1

>  <s_lp_Force_Field>  (305) 
OPLS3e

>  <r_lp_Energy>  (305) 
524.553

>  <b_lp_Chiralities_Consistent>  (305) 
1

>  <s_lp_Variant>  (305) 
101:0-1

>  <s_i_glide_gridfile>  (305) 
pfpi4k_grid

>  <i_i_glide_lignum>  (305) 
15

>  <i_i_glide_rotatable_bonds>  (305) 
1

>  <r_i_docking_score>  (305) 
-3.1073

>  <r_i_glide_ligand_efficiency>  (305) 
-0.194206

>  <r_i_glide_ligand_efficiency_sa>  (305) 
-0.489369

>  <r_i_glide_ligand_efficiency_ln>  (305) 
-0.823653

>  <r_i_glide_gscore>  (305) 
-3.1073

>  <r_i_glide_lipo>  (305) 
-0.358217

>  <r_i_glide_hbond>  (305) 
0

>  <r_i_glide_metal>  (305) 
-0

>  <r_i_glide_rewards>  (305) 
-1.90654

>  <r_i_glide_evdw>  (305) 
-16.0872

>  <r_i_glide_ecoul>  (305) 
-2.56799

>  <r_i_glide_erotb>  (305) 
0.347016

>  <r_i_glide_esite>  (305) 
0

>  <r_i_glide_emodel>  (305) 
-22.7317

>  <r_i_glide_energy>  (305) 
-18.6552

>  <r_i_glide_einternal>  (305) 
0.26159

>  <r_i_glide_intrahb_reward>  (305) 
-0

>  <i_i_glide_confnum>  (305) 
1

>  <i_i_glide_posenum>  (305) 
5

>  <r_i_glide_eff_state_penalty>  (305) 
0

>  <ligand_id>  (305) 
101

>  <original_smiles>  (305) 
CC1CC2CC3CC(C2)CC1(N1CCC1)C3

>  <smiles>  (305) 
[H]C([H])([H])C1([H])C([H])([H])C2([H])C([H])([H])C3([H])C([H])([H])C([H])(C2([H])[H])C([H])([H])C1([N+]1([H])C([H])([H])C([H])([H])C1([H])[H])C3([H])[H]

$$$$
101:0:2
     RDKit          3D

 42 45  0  0  1  0  0  0  0  0999 V2000
    7.0755   -1.6705    0.7507 C   0  0  0  0  0  0  0  0  0  0  0  0
    5.8969   -2.6522    0.5374 C   0  0  2  0  0  0  0  0  0  0  0  0
    6.2844   -3.8555   -0.7091 C   0  0  0  0  0  0  0  0  0  0  0  0
    5.7023   -3.7889   -2.3619 C   0  0  2  0  0  0  0  0  0  0  0  0
    5.3097   -2.7485   -1.7419 C   0  0  0  0  0  0  0  0  0  0  0  0
    3.8781   -3.5548   -0.8558 C   0  0  2  0  0  0  0  0  0  0  0  0
    2.5493   -3.3392   -1.6014 C   0  0  0  0  0  0  0  0  0  0  0  0
    3.1293   -2.2057   -2.3251 C   0  0  2  0  0  0  0  0  0  0  0  0
    4.2830   -3.2118   -3.2013 C   0  0  0  0  0  0  0  0  0  0  0  0
    3.5819   -1.1325   -0.9961 C   0  0  0  0  0  0  0  0  0  0  0  0
    4.3804   -1.8343    0.3946 C   0  0  2  0  0  0  0  0  0  0  0  0
    4.2163   -0.9103    1.5667 N   0  0  0  0  0  0  0  0  0  0  0  0
    2.8791   -0.3319    1.7805 C   0  0  0  0  0  0  0  0  0  0  0  0
    3.2048   -0.4080    3.2602 C   0  0  0  0  0  0  0  0  0  0  0  0
    4.2114   -1.4974    2.9106 C   0  0  0  0  0  0  0  0  0  0  0  0
    3.5934   -3.0909    0.5567 C   0  0  0  0  0  0  0  0  0  0  0  0
    7.2005   -0.9585   -0.0558 H   0  0  0  0  0  0  0  0  0  0  0  0
    8.0136   -2.2199    0.8513 H   0  0  0  0  0  0  0  0  0  0  0  0
    6.9550   -1.0920    1.6687 H   0  0  0  0  0  0  0  0  0  0  0  0
    5.9171   -3.2158    1.4725 H   0  0  0  0  0  0  0  0  0  0  0  0
    7.3870   -3.8787   -0.7657 H   0  0  0  0  0  0  0  0  0  0  0  0
    6.0567   -4.8485   -0.2925 H   0  0  0  0  0  0  0  0  0  0  0  0
    6.5692   -3.5946   -3.0173 H   0  0  0  0  0  0  0  0  0  0  0  0
    6.0824   -1.9765   -1.5413 H   0  0  0  0  0  0  0  0  0  0  0  0
    5.4002   -1.7768   -2.3072 H   0  0  0  0  0  0  0  0  0  0  0  0
    3.9506   -4.6630   -0.8079 H   0  0  0  0  0  0  0  0  0  0  0  0
    2.2138   -4.1667   -2.2352 H   0  0  0  0  0  0  0  0  0  0  0  0
    1.6718   -3.0597   -1.0201 H   0  0  0  0  0  0  0  0  0  0  0  0
    2.3812   -1.7447   -2.9988 H   0  0  0  0  0  0  0  0  0  0  0  0
    4.6101   -2.6200   -4.0781 H   0  0  0  0  0  0  0  0  0  0  0  0
    3.7846   -4.0636   -3.6881 H   0  0  0  0  0  0  0  0  0  0  0  0
    4.1663   -0.3035   -1.3786 H   0  0  0  0  0  0  0  0  0  0  0  0
    2.6428   -0.6814   -0.6743 H   0  0  0  0  0  0  0  0  0  0  0  0
    2.7995    0.6870    1.3766 H   0  0  0  0  0  0  0  0  0  0  0  0
    2.0631   -0.9899    1.4845 H   0  0  0  0  0  0  0  0  0  0  0  0
    3.6453    0.5104    3.6773 H   0  0  0  0  0  0  0  0  0  0  0  0
    2.3776   -0.7802    3.8455 H   0  0  0  0  0  0  0  0  0  0  0  0
    3.7917   -2.4970    2.9720 H   0  0  0  0  0  0  0  0  0  0  0  0
    5.1855   -1.4002    3.4049 H   0  0  0  0  0  0  0  0  0  0  0  0
    2.5449   -2.9179    0.8162 H   0  0  0  0  0  0  0  0  0  0  0  0
    3.9626   -3.8205    1.3007 H   0  0  0  0  0  0  0  0  0  0  0  0
    4.8999   -0.1689    1.4832 H   0  0  0  0  0  0  0  0  0  0  0  0
  1  2  1  0
  1 17  1  0
  1 18  1  0
  1 19  1  0
  2 11  1  0
  2  3  1  0
  2 20  1  1
  3  4  1  0
  3 21  1  0
  3 22  1  0
  4  9  1  0
  4  5  1  0
  4 23  1  6
  5  6  1  0
  5 24  1  0
  5 25  1  0
  6 16  1  0
  6  7  1  0
  6 26  1  1
  7  8  1  0
  7 27  1  0
  7 28  1  0
  8  9  1  0
  8 10  1  0
  8 29  1  6
  9 30  1  0
  9 31  1  0
 10 11  1  0
 10 32  1  0
 10 33  1  0
 11 12  1  1
 11 16  1  0
 12 15  1  0
 12 13  1  0
 12 42  1  0
 13 14  1  0
 13 34  1  0
 13 35  1  0
 14 15  1  0
 14 36  1  0
 14 37  1  0
 15 38  1  0
 15 39  1  0
 16 40  1  0
 16 41  1  0
M  CHG  1  12   1
M  END
>  <i_m_ct_stereo_status>  (306) 
1

>  <s_m_source_file>  (306) 
/var/tmp/pbs.5076255.sched01/tmpux3k924y/120tsqzh4i4.sdf

>  <i_m_source_file_index>  (306) 
15

>  <i_lp_mmshare_version>  (306) 
48012

>  <i_f3d_flags>  (306) 
0

>  <s_epik_input>  (306) 
W0NIMl0xW0NIMl1bQ0gyXU4xW0NAXTIzW0NASF0oW0NIM10pW0NIMl1bQ0BIXTRbQ0gyXVtDQEBIXShbQ0gyXTMpW0NIMl1bQ0BIXShbQ0gyXTQpW0NIMl0y

>  <s_epik_cmdline>  (306) 
J2VwaWtfcHl0aG9uJywgJy1waHQnLCAnMi4wJywgJy1waCcsICc3LjAnLCAnLXRuJywgJzgnLCAnLW1hJywgJzIwMCcsICctaW1hZScsICc8aW5maWxlLm1hZT4nLCAnLW9tYWUnLCAnPG91dGZpbGUubWFlPic=

>  <r_lp_tautomer_probability>  (306) 
1

>  <r_epik_Ionization_Penalty>  (306) 
0.000141286

>  <r_epik_Ionization_Penalty_Charging>  (306) 
0.000141286

>  <r_epik_Ionization_Penalty_Neutral>  (306) 
0

>  <r_epik_State_Penalty>  (306) 
-0

>  <r_epik_Charging_Adjusted_Penalty>  (306) 
0.000141286

>  <i_epik_Tot_Q>  (306) 
1

>  <i_epik_Tot_abs_Q>  (306) 
1

>  <s_lp_Force_Field>  (306) 
OPLS3e

>  <r_lp_Energy>  (306) 
524.553

>  <b_lp_Chiralities_Consistent>  (306) 
1

>  <s_lp_Variant>  (306) 
101:0-1

>  <s_i_glide_gridfile>  (306) 
pfpi4k_grid

>  <i_i_glide_lignum>  (306) 
15

>  <i_i_glide_rotatable_bonds>  (306) 
1

>  <r_i_docking_score>  (306) 
-3.07808

>  <r_i_glide_ligand_efficiency>  (306) 
-0.19238

>  <r_i_glide_ligand_efficiency_sa>  (306) 
-0.484767

>  <r_i_glide_ligand_efficiency_ln>  (306) 
-0.815907

>  <r_i_glide_gscore>  (306) 
-3.07808

>  <r_i_glide_lipo>  (306) 
-0.515432

>  <r_i_glide_hbond>  (306) 
0

>  <r_i_glide_metal>  (306) 
-0

>  <r_i_glide_rewards>  (306) 
-1.90654

>  <r_i_glide_evdw>  (306) 
-13.9977

>  <r_i_glide_ecoul>  (306) 
-2.02159

>  <r_i_glide_erotb>  (306) 
0.347016

>  <r_i_glide_esite>  (306) 
0

>  <r_i_glide_emodel>  (306) 
-20.2445

>  <r_i_glide_energy>  (306) 
-16.0192

>  <r_i_glide_einternal>  (306) 
0.00420752

>  <r_i_glide_intrahb_reward>  (306) 
-0

>  <i_i_glide_confnum>  (306) 
3

>  <i_i_glide_posenum>  (306) 
28

>  <r_i_glide_eff_state_penalty>  (306) 
0

>  <ligand_id>  (306) 
101

>  <original_smiles>  (306) 
CC1CC2CC3CC(C2)CC1(N1CCC1)C3

>  <smiles>  (306) 
[H]C([H])([H])C1([H])C([H])([H])C2([H])C([H])([H])C3([H])C([H])([H])C([H])(C2([H])[H])C([H])([H])C1([N+]1([H])C([H])([H])C([H])([H])C1([H])[H])C3([H])[H]

$$$$
101:1:0
     RDKit          3D

 42 45  0  0  1  0  0  0  0  0999 V2000
    1.7788   -3.9146   -1.3871 C   0  0  0  0  0  0  0  0  0  0  0  0
    3.1403   -3.6938   -0.7112 C   0  0  2  0  0  0  0  0  0  0  0  0
    2.8051   -3.7740    1.0198 C   0  0  0  0  0  0  0  0  0  0  0  0
    3.9640   -3.1663    2.1215 C   0  0  1  0  0  0  0  0  0  0  0  0
    4.9660   -4.1616    1.7509 C   0  0  0  0  0  0  0  0  0  0  0  0
    5.2794   -3.4408    0.4405 C   0  0  2  0  0  0  0  0  0  0  0  0
    6.6646   -2.8271    0.6867 C   0  0  0  0  0  0  0  0  0  0  0  0
    6.0521   -1.5127    0.7955 C   0  0  2  0  0  0  0  0  0  0  0  0
    4.9446   -1.7284    2.1347 C   0  0  0  0  0  0  0  0  0  0  0  0
    5.5482   -1.4941   -0.8964 C   0  0  0  0  0  0  0  0  0  0  0  0
    4.1309   -2.4022   -1.4165 C   0  0  1  0  0  0  0  0  0  0  0  0
    3.3060   -1.5252   -2.3201 N   0  0  0  0  0  0  0  0  0  0  0  0
    4.0773   -0.5994   -3.1651 C   0  0  0  0  0  0  0  0  0  0  0  0
    3.0548   -0.7990   -4.2406 C   0  0  0  0  0  0  0  0  0  0  0  0
    2.8005   -2.1284   -3.5624 C   0  0  0  0  0  0  0  0  0  0  0  0
    4.0174   -2.1482   -0.1660 C   0  0  0  0  0  0  0  0  0  0  0  0
    1.1146   -3.0549   -1.3687 H   0  0  0  0  0  0  0  0  0  0  0  0
    1.2571   -4.7410   -0.9093 H   0  0  0  0  0  0  0  0  0  0  0  0
    1.8931   -4.2101   -2.4216 H   0  0  0  0  0  0  0  0  0  0  0  0
    3.6348   -4.6528   -0.9469 H   0  0  0  0  0  0  0  0  0  0  0  0
    1.8881   -3.2118    1.2095 H   0  0  0  0  0  0  0  0  0  0  0  0
    2.5221   -4.8020    1.2750 H   0  0  0  0  0  0  0  0  0  0  0  0
    3.5848   -3.3369    3.1278 H   0  0  0  0  0  0  0  0  0  0  0  0
    5.7657   -4.2223    2.4933 H   0  0  0  0  0  0  0  0  0  0  0  0
    4.5991   -5.1792    1.5949 H   0  0  0  0  0  0  0  0  0  0  0  0
    5.5224   -4.2195   -0.2882 H   0  0  0  0  0  0  0  0  0  0  0  0
    7.2111   -3.1197    1.5836 H   0  0  0  0  0  0  0  0  0  0  0  0
    7.3483   -2.9259   -0.1568 H   0  0  0  0  0  0  0  0  0  0  0  0
    6.7794   -0.7221    0.9929 H   0  0  0  0  0  0  0  0  0  0  0  0
    4.3076   -0.8484    2.2396 H   0  0  0  0  0  0  0  0  0  0  0  0
    5.5438   -1.7426    3.0499 H   0  0  0  0  0  0  0  0  0  0  0  0
    5.4187   -0.4188   -1.0577 H   0  0  0  0  0  0  0  0  0  0  0  0
    6.3890   -1.7248   -1.5610 H   0  0  0  0  0  0  0  0  0  0  0  0
    4.1427    0.4293   -2.7855 H   0  0  0  0  0  0  0  0  0  0  0  0
    5.0196   -1.0073   -3.4981 H   0  0  0  0  0  0  0  0  0  0  0  0
    2.2388   -0.0803   -4.1514 H   0  0  0  0  0  0  0  0  0  0  0  0
    3.4433   -0.8835   -5.2451 H   0  0  0  0  0  0  0  0  0  0  0  0
    3.4168   -2.9645   -3.9229 H   0  0  0  0  0  0  0  0  0  0  0  0
    1.7333   -2.3499   -3.5729 H   0  0  0  0  0  0  0  0  0  0  0  0
    2.9975   -1.8058    0.1310 H   0  0  0  0  0  0  0  0  0  0  0  0
    3.8706   -1.0818    0.1700 H   0  0  0  0  0  0  0  0  0  0  0  0
    2.5403   -1.0489   -1.8534 H   0  0  0  0  0  0  0  0  0  0  0  0
  1  2  1  0
  1 17  1  0
  1 18  1  0
  1 19  1  0
  2 11  1  0
  2  3  1  0
  2 20  1  6
  3  4  1  0
  3 21  1  0
  3 22  1  0
  4  9  1  0
  4  5  1  0
  4 23  1  1
  5  6  1  0
  5 24  1  0
  5 25  1  0
  6 16  1  0
  6  7  1  0
  6 26  1  6
  7  8  1  0
  7 27  1  0
  7 28  1  0
  8  9  1  0
  8 10  1  0
  8 29  1  1
  9 30  1  0
  9 31  1  0
 10 11  1  0
 10 32  1  0
 10 33  1  0
 11 12  1  1
 11 16  1  0
 12 15  1  0
 12 13  1  0
 12 42  1  0
 13 14  1  0
 13 34  1  0
 13 35  1  0
 14 15  1  0
 14 36  1  0
 14 37  1  0
 15 38  1  0
 15 39  1  0
 16 40  1  0
 16 41  1  0
M  CHG  1  12   1
M  END
>  <i_m_ct_stereo_status>  (307) 
1

>  <s_m_source_file>  (307) 
/var/tmp/pbs.5076255.sched01/tmpux3k924y/120tsqzh4i4.sdf

>  <i_m_source_file_index>  (307) 
16

>  <i_lp_mmshare_version>  (307) 
48012

>  <i_f3d_flags>  (307) 
0

>  <s_epik_input>  (307) 
W0NIMl0xW0NIMl1bQ0gyXU4xW0NAXTIzW0NASF0oW0NIM10pW0NIMl1bQ0BIXTRbQ0gyXVtDQEBIXShbQ0gyXTMpW0NIMl1bQ0BIXShbQ0gyXTQpW0NIMl0y

>  <s_epik_cmdline>  (307) 
J2VwaWtfcHl0aG9uJywgJy1waHQnLCAnMi4wJywgJy1waCcsICc3LjAnLCAnLXRuJywgJzgnLCAnLW1hJywgJzIwMCcsICctaW1hZScsICc8aW5maWxlLm1hZT4nLCAnLW9tYWUnLCAnPG91dGZpbGUubWFlPic=

>  <r_lp_tautomer_probability>  (307) 
1

>  <r_epik_Ionization_Penalty>  (307) 
0.000141286

>  <r_epik_Ionization_Penalty_Charging>  (307) 
0.000141286

>  <r_epik_Ionization_Penalty_Neutral>  (307) 
0

>  <r_epik_State_Penalty>  (307) 
-0

>  <r_epik_Charging_Adjusted_Penalty>  (307) 
0.000141286

>  <i_epik_Tot_Q>  (307) 
1

>  <i_epik_Tot_abs_Q>  (307) 
1

>  <s_lp_Force_Field>  (307) 
OPLS3e

>  <r_lp_Energy>  (307) 
527.288

>  <b_lp_Chiralities_Consistent>  (307) 
1

>  <s_lp_Variant>  (307) 
101:0-2

>  <s_i_glide_gridfile>  (307) 
pfpi4k_grid

>  <i_i_glide_lignum>  (307) 
16

>  <i_i_glide_rotatable_bonds>  (307) 
1

>  <r_i_docking_score>  (307) 
-4.31761

>  <r_i_glide_ligand_efficiency>  (307) 
-0.269851

>  <r_i_glide_ligand_efficiency_sa>  (307) 
-0.679981

>  <r_i_glide_ligand_efficiency_ln>  (307) 
-1.14447

>  <r_i_glide_gscore>  (307) 
-4.31761

>  <r_i_glide_lipo>  (307) 
-0.960647

>  <r_i_glide_hbond>  (307) 
-0.1787

>  <r_i_glide_metal>  (307) 
-0

>  <r_i_glide_rewards>  (307) 
-1.90654

>  <r_i_glide_evdw>  (307) 
-19.5009

>  <r_i_glide_ecoul>  (307) 
-3.80065

>  <r_i_glide_erotb>  (307) 
0.347016

>  <r_i_glide_esite>  (307) 
-0.0735917

>  <r_i_glide_emodel>  (307) 
-30.3291

>  <r_i_glide_energy>  (307) 
-23.3016

>  <r_i_glide_einternal>  (307) 
0.0744683

>  <r_i_glide_intrahb_reward>  (307) 
-0

>  <i_i_glide_confnum>  (307) 
6

>  <i_i_glide_posenum>  (307) 
36

>  <r_i_glide_eff_state_penalty>  (307) 
0

>  <ligand_id>  (307) 
101

>  <original_smiles>  (307) 
CC1CC2CC3CC(C2)CC1(N1CCC1)C3

>  <smiles>  (307) 
[H]C([H])([H])C1([H])C([H])([H])C2([H])C([H])([H])C3([H])C([H])([H])C([H])(C2([H])[H])C([H])([H])C1([N+]1([H])C([H])([H])C([H])([H])C1([H])[H])C3([H])[H]

$$$$
101:1:1
     RDKit          3D

 42 45  0  0  1  0  0  0  0  0999 V2000
    6.4192   -6.3057    1.5773 C   0  0  0  0  0  0  0  0  0  0  0  0
    5.9968   -5.2142    0.5667 C   0  0  2  0  0  0  0  0  0  0  0  0
    7.0245   -3.8302    0.9255 C   0  0  0  0  0  0  0  0  0  0  0  0
    6.6270   -2.3049    0.2732 C   0  0  1  0  0  0  0  0  0  0  0  0
    6.8168   -2.7386   -1.1113 C   0  0  0  0  0  0  0  0  0  0  0  0
    5.4835   -3.4972   -1.1100 C   0  0  2  0  0  0  0  0  0  0  0  0
    4.5705   -2.6376   -2.0017 C   0  0  0  0  0  0  0  0  0  0  0  0
    3.8473   -2.1906   -0.8183 C   0  0  2  0  0  0  0  0  0  0  0  0
    5.1202   -1.4336    0.1167 C   0  0  0  0  0  0  0  0  0  0  0  0
    3.2076   -3.7927   -0.4700 C   0  0  0  0  0  0  0  0  0  0  0  0
    4.2322   -5.0389    0.2753 C   0  0  1  0  0  0  0  0  0  0  0  0
    3.4249   -5.7115    1.3603 N   0  0  0  0  0  0  0  0  0  0  0  0
    2.0063   -5.8866    1.0645 C   0  0  0  0  0  0  0  0  0  0  0  0
    2.0881   -7.1765    1.8458 C   0  0  0  0  0  0  0  0  0  0  0  0
    3.5583   -7.1610    1.4888 C   0  0  0  0  0  0  0  0  0  0  0  0
    4.6965   -3.8751    0.5759 C   0  0  0  0  0  0  0  0  0  0  0  0
    5.9966   -6.1158    2.5630 H   0  0  0  0  0  0  0  0  0  0  0  0
    7.4995   -6.3167    1.6798 H   0  0  0  0  0  0  0  0  0  0  0  0
    6.1219   -7.2963    1.2328 H   0  0  0  0  0  0  0  0  0  0  0  0
    6.4114   -5.6785   -0.3226 H   0  0  0  0  0  0  0  0  0  0  0  0
    7.0379   -3.7196    2.0061 H   0  0  0  0  0  0  0  0  0  0  0  0
    8.0570   -4.1016    0.6881 H   0  0  0  0  0  0  0  0  0  0  0  0
    7.4043   -1.5971    0.5805 H   0  0  0  0  0  0  0  0  0  0  0  0
    6.9011   -1.9020   -1.7986 H   0  0  0  0  0  0  0  0  0  0  0  0
    7.6719   -3.3828   -1.3024 H   0  0  0  0  0  0  0  0  0  0  0  0
    5.6295   -4.3814   -1.7426 H   0  0  0  0  0  0  0  0  0  0  0  0
    5.0077   -1.8203   -2.5697 H   0  0  0  0  0  0  0  0  0  0  0  0
    3.9700   -3.2208   -2.6997 H   0  0  0  0  0  0  0  0  0  0  0  0
    3.0475   -1.4953   -1.0619 H   0  0  0  0  0  0  0  0  0  0  0  0
    4.7503   -1.1605    1.1090 H   0  0  0  0  0  0  0  0  0  0  0  0
    5.3382   -0.4702   -0.3496 H   0  0  0  0  0  0  0  0  0  0  0  0
    2.3450   -3.5658    0.1636 H   0  0  0  0  0  0  0  0  0  0  0  0
    2.7121   -4.2238   -1.3483 H   0  0  0  0  0  0  0  0  0  0  0  0
    1.3795   -5.1224    1.5285 H   0  0  0  0  0  0  0  0  0  0  0  0
    1.7725   -6.0575    0.0077 H   0  0  0  0  0  0  0  0  0  0  0  0
    1.9201   -7.0416    2.9242 H   0  0  0  0  0  0  0  0  0  0  0  0
    1.5318   -8.0236    1.4322 H   0  0  0  0  0  0  0  0  0  0  0  0
    3.8000   -7.6647    0.5474 H   0  0  0  0  0  0  0  0  0  0  0  0
    4.1688   -7.5049    2.3259 H   0  0  0  0  0  0  0  0  0  0  0  0
    4.9862   -3.7556    1.6581 H   0  0  0  0  0  0  0  0  0  0  0  0
    4.0907   -3.1886    1.2469 H   0  0  0  0  0  0  0  0  0  0  0  0
    3.5528   -5.2656    2.2523 H   0  0  0  0  0  0  0  0  0  0  0  0
  1  2  1  0
  1 17  1  0
  1 18  1  0
  1 19  1  0
  2 11  1  0
  2  3  1  0
  2 20  1  6
  3  4  1  0
  3 21  1  0
  3 22  1  0
  4  9  1  0
  4  5  1  0
  4 23  1  1
  5  6  1  0
  5 24  1  0
  5 25  1  0
  6 16  1  0
  6  7  1  0
  6 26  1  6
  7  8  1  0
  7 27  1  0
  7 28  1  0
  8  9  1  0
  8 10  1  0
  8 29  1  6
  9 30  1  0
  9 31  1  0
 10 11  1  0
 10 32  1  0
 10 33  1  0
 11 12  1  6
 11 16  1  0
 12 15  1  0
 12 13  1  0
 12 42  1  0
 13 14  1  0
 13 34  1  0
 13 35  1  0
 14 15  1  0
 14 36  1  0
 14 37  1  0
 15 38  1  0
 15 39  1  0
 16 40  1  0
 16 41  1  0
M  CHG  1  12   1
M  END
>  <i_m_ct_stereo_status>  (308) 
1

>  <s_m_source_file>  (308) 
/var/tmp/pbs.5076255.sched01/tmpux3k924y/120tsqzh4i4.sdf

>  <i_m_source_file_index>  (308) 
16

>  <i_lp_mmshare_version>  (308) 
48012

>  <i_f3d_flags>  (308) 
0

>  <s_epik_input>  (308) 
W0NIMl0xW0NIMl1bQ0gyXU4xW0NAXTIzW0NASF0oW0NIM10pW0NIMl1bQ0BIXTRbQ0gyXVtDQEBIXShbQ0gyXTMpW0NIMl1bQ0BIXShbQ0gyXTQpW0NIMl0y

>  <s_epik_cmdline>  (308) 
J2VwaWtfcHl0aG9uJywgJy1waHQnLCAnMi4wJywgJy1waCcsICc3LjAnLCAnLXRuJywgJzgnLCAnLW1hJywgJzIwMCcsICctaW1hZScsICc8aW5maWxlLm1hZT4nLCAnLW9tYWUnLCAnPG91dGZpbGUubWFlPic=

>  <r_lp_tautomer_probability>  (308) 
1

>  <r_epik_Ionization_Penalty>  (308) 
0.000141286

>  <r_epik_Ionization_Penalty_Charging>  (308) 
0.000141286

>  <r_epik_Ionization_Penalty_Neutral>  (308) 
0

>  <r_epik_State_Penalty>  (308) 
-0

>  <r_epik_Charging_Adjusted_Penalty>  (308) 
0.000141286

>  <i_epik_Tot_Q>  (308) 
1

>  <i_epik_Tot_abs_Q>  (308) 
1

>  <s_lp_Force_Field>  (308) 
OPLS3e

>  <r_lp_Energy>  (308) 
527.288

>  <b_lp_Chiralities_Consistent>  (308) 
1

>  <s_lp_Variant>  (308) 
101:0-2

>  <s_i_glide_gridfile>  (308) 
pfpi4k_grid

>  <i_i_glide_lignum>  (308) 
16

>  <i_i_glide_rotatable_bonds>  (308) 
1

>  <r_i_docking_score>  (308) 
-3.40622

>  <r_i_glide_ligand_efficiency>  (308) 
-0.212889

>  <r_i_glide_ligand_efficiency_sa>  (308) 
-0.536446

>  <r_i_glide_ligand_efficiency_ln>  (308) 
-0.902887

>  <r_i_glide_gscore>  (308) 
-3.40622

>  <r_i_glide_lipo>  (308) 
-0.599735

>  <r_i_glide_hbond>  (308) 
0

>  <r_i_glide_metal>  (308) 
-0

>  <r_i_glide_rewards>  (308) 
-1.90654

>  <r_i_glide_evdw>  (308) 
-20.0271

>  <r_i_glide_ecoul>  (308) 
-1.63737

>  <r_i_glide_erotb>  (308) 
0.347016

>  <r_i_glide_esite>  (308) 
0

>  <r_i_glide_emodel>  (308) 
-27.2314

>  <r_i_glide_energy>  (308) 
-21.6644

>  <r_i_glide_einternal>  (308) 
0.00339134

>  <r_i_glide_intrahb_reward>  (308) 
-0

>  <i_i_glide_confnum>  (308) 
1

>  <i_i_glide_posenum>  (308) 
9

>  <r_i_glide_eff_state_penalty>  (308) 
0

>  <ligand_id>  (308) 
101

>  <original_smiles>  (308) 
CC1CC2CC3CC(C2)CC1(N1CCC1)C3

>  <smiles>  (308) 
[H]C([H])([H])C1([H])C([H])([H])C2([H])C([H])([H])C3([H])C([H])([H])C([H])(C2([H])[H])C([H])([H])C1([N+]1([H])C([H])([H])C([H])([H])C1([H])[H])C3([H])[H]

$$$$
101:1:2
     RDKit          3D

 42 45  0  0  1  0  0  0  0  0999 V2000
    4.9895   -4.1122   -2.9751 C   0  0  0  0  0  0  0  0  0  0  0  0
    5.1132   -3.4398   -1.6190 C   0  0  2  0  0  0  0  0  0  0  0  0
    4.8033   -4.7037   -0.4039 C   0  0  0  0  0  0  0  0  0  0  0  0
    4.4711   -4.2386    1.2158 C   0  0  1  0  0  0  0  0  0  0  0  0
    5.7894   -3.6288    1.4011 C   0  0  0  0  0  0  0  0  0  0  0  0
    5.4017   -2.4095    0.5623 C   0  0  2  0  0  0  0  0  0  0  0  0
    5.2720   -1.2876    1.6074 C   0  0  0  0  0  0  0  0  0  0  0  0
    3.8188   -1.3446    1.4518 C   0  0  2  0  0  0  0  0  0  0  0  0
    3.4562   -2.9944    1.9082 C   0  0  0  0  0  0  0  0  0  0  0  0
    3.8598   -0.7753   -0.2184 C   0  0  0  0  0  0  0  0  0  0  0  0
    4.2883   -1.8534   -1.5467 C   0  0  1  0  0  0  0  0  0  0  0  0
    3.3248   -1.6408   -2.6786 N   0  0  0  0  0  0  0  0  0  0  0  0
    3.1196   -0.2372   -3.0542 C   0  0  0  0  0  0  0  0  0  0  0  0
    2.9740   -0.6694   -4.4816 C   0  0  0  0  0  0  0  0  0  0  0  0
    3.8172   -1.8396   -4.0656 C   0  0  0  0  0  0  0  0  0  0  0  0
    3.8448   -2.5544   -0.5420 C   0  0  0  0  0  0  0  0  0  0  0  0
    3.9451   -4.2014   -3.2549 H   0  0  0  0  0  0  0  0  0  0  0  0
    5.3734   -5.1250   -2.8288 H   0  0  0  0  0  0  0  0  0  0  0  0
    5.5476   -3.6394   -3.7770 H   0  0  0  0  0  0  0  0  0  0  0  0
    6.2011   -3.2825   -1.5866 H   0  0  0  0  0  0  0  0  0  0  0  0
    3.9182   -5.2981   -0.6690 H   0  0  0  0  0  0  0  0  0  0  0  0
    5.6237   -5.4441   -0.4202 H   0  0  0  0  0  0  0  0  0  0  0  0
    4.3537   -5.1469    1.8215 H   0  0  0  0  0  0  0  0  0  0  0  0
    6.0125   -3.4599    2.4641 H   0  0  0  0  0  0  0  0  0  0  0  0
    6.6310   -4.1804    0.9659 H   0  0  0  0  0  0  0  0  0  0  0  0
    6.3166   -2.0844    0.0448 H   0  0  0  0  0  0  0  0  0  0  0  0
    5.5984   -1.4750    2.6404 H   0  0  0  0  0  0  0  0  0  0  0  0
    5.6983   -0.3324    1.2908 H   0  0  0  0  0  0  0  0  0  0  0  0
    3.2944   -0.6181    2.1012 H   0  0  0  0  0  0  0  0  0  0  0  0
    2.4021   -3.2150    1.7013 H   0  0  0  0  0  0  0  0  0  0  0  0
    3.5466   -3.0595    3.0062 H   0  0  0  0  0  0  0  0  0  0  0  0
    2.8261   -0.4332   -0.3097 H   0  0  0  0  0  0  0  0  0  0  0  0
    4.4546    0.1494   -0.3082 H   0  0  0  0  0  0  0  0  0  0  0  0
    2.1712    0.1280   -2.6718 H   0  0  0  0  0  0  0  0  0  0  0  0
    3.9743    0.4255   -2.8626 H   0  0  0  0  0  0  0  0  0  0  0  0
    1.9672   -0.9825   -4.7261 H   0  0  0  0  0  0  0  0  0  0  0  0
    3.4280   -0.0265   -5.2223 H   0  0  0  0  0  0  0  0  0  0  0  0
    4.8817   -1.6170   -4.1716 H   0  0  0  0  0  0  0  0  0  0  0  0
    3.4750   -2.7504   -4.5509 H   0  0  0  0  0  0  0  0  0  0  0  0
    3.1521   -3.3663   -0.8687 H   0  0  0  0  0  0  0  0  0  0  0  0
    2.7478   -2.5173   -0.2704 H   0  0  0  0  0  0  0  0  0  0  0  0
    2.4173   -2.0780   -2.5316 H   0  0  0  0  0  0  0  0  0  0  0  0
  1  2  1  0
  1 17  1  0
  1 18  1  0
  1 19  1  0
  2 11  1  0
  2  3  1  0
  2 20  1  1
  3  4  1  0
  3 21  1  0
  3 22  1  0
  4  9  1  0
  4  5  1  0
  4 23  1  1
  5  6  1  0
  5 24  1  0
  5 25  1  0
  6 16  1  0
  6  7  1  0
  6 26  1  6
  7  8  1  0
  7 27  1  0
  7 28  1  0
  8  9  1  0
  8 10  1  0
  8 29  1  1
  9 30  1  0
  9 31  1  0
 10 11  1  0
 10 32  1  0
 10 33  1  0
 11 12  1  1
 11 16  1  0
 12 15  1  0
 12 13  1  0
 12 42  1  0
 13 14  1  0
 13 34  1  0
 13 35  1  0
 14 15  1  0
 14 36  1  0
 14 37  1  0
 15 38  1  0
 15 39  1  0
 16 40  1  0
 16 41  1  0
M  CHG  1  12   1
M  END
>  <i_m_ct_stereo_status>  (309) 
1

>  <s_m_source_file>  (309) 
/var/tmp/pbs.5076255.sched01/tmpux3k924y/120tsqzh4i4.sdf

>  <i_m_source_file_index>  (309) 
16

>  <i_lp_mmshare_version>  (309) 
48012

>  <i_f3d_flags>  (309) 
0

>  <s_epik_input>  (309) 
W0NIMl0xW0NIMl1bQ0gyXU4xW0NAXTIzW0NASF0oW0NIM10pW0NIMl1bQ0BIXTRbQ0gyXVtDQEBIXShbQ0gyXTMpW0NIMl1bQ0BIXShbQ0gyXTQpW0NIMl0y

>  <s_epik_cmdline>  (309) 
J2VwaWtfcHl0aG9uJywgJy1waHQnLCAnMi4wJywgJy1waCcsICc3LjAnLCAnLXRuJywgJzgnLCAnLW1hJywgJzIwMCcsICctaW1hZScsICc8aW5maWxlLm1hZT4nLCAnLW9tYWUnLCAnPG91dGZpbGUubWFlPic=

>  <r_lp_tautomer_probability>  (309) 
1

>  <r_epik_Ionization_Penalty>  (309) 
0.000141286

>  <r_epik_Ionization_Penalty_Charging>  (309) 
0.000141286

>  <r_epik_Ionization_Penalty_Neutral>  (309) 
0

>  <r_epik_State_Penalty>  (309) 
-0

>  <r_epik_Charging_Adjusted_Penalty>  (309) 
0.000141286

>  <i_epik_Tot_Q>  (309) 
1

>  <i_epik_Tot_abs_Q>  (309) 
1

>  <s_lp_Force_Field>  (309) 
OPLS3e

>  <r_lp_Energy>  (309) 
527.288

>  <b_lp_Chiralities_Consistent>  (309) 
1

>  <s_lp_Variant>  (309) 
101:0-2

>  <s_i_glide_gridfile>  (309) 
pfpi4k_grid

>  <i_i_glide_lignum>  (309) 
16

>  <i_i_glide_rotatable_bonds>  (309) 
1

>  <r_i_docking_score>  (309) 
-3.02528

>  <r_i_glide_ligand_efficiency>  (309) 
-0.18908

>  <r_i_glide_ligand_efficiency_sa>  (309) 
-0.476452

>  <r_i_glide_ligand_efficiency_ln>  (309) 
-0.801912

>  <r_i_glide_gscore>  (309) 
-3.02528

>  <r_i_glide_lipo>  (309) 
-0.503528

>  <r_i_glide_hbond>  (309) 
0

>  <r_i_glide_metal>  (309) 
-0

>  <r_i_glide_rewards>  (309) 
-1.90654

>  <r_i_glide_evdw>  (309) 
-9.00942

>  <r_i_glide_ecoul>  (309) 
-3.10009

>  <r_i_glide_erotb>  (309) 
0.347016

>  <r_i_glide_esite>  (309) 
-0.046743

>  <r_i_glide_emodel>  (309) 
-14.2285

>  <r_i_glide_energy>  (309) 
-12.1095

>  <r_i_glide_einternal>  (309) 
2.55801

>  <r_i_glide_intrahb_reward>  (309) 
-0

>  <i_i_glide_confnum>  (309) 
4

>  <i_i_glide_posenum>  (309) 
4

>  <r_i_glide_eff_state_penalty>  (309) 
0

>  <ligand_id>  (309) 
101

>  <original_smiles>  (309) 
CC1CC2CC3CC(C2)CC1(N1CCC1)C3

>  <smiles>  (309) 
[H]C([H])([H])C1([H])C([H])([H])C2([H])C([H])([H])C3([H])C([H])([H])C([H])(C2([H])[H])C([H])([H])C1([N+]1([H])C([H])([H])C([H])([H])C1([H])[H])C3([H])[H]

$$$$
102:0:0
     RDKit          3D

 76 82  0  0  1  0  0  0  0  0999 V2000
    1.6891   -3.5309   -1.8548 C   0  0  0  0  0  0  0  0  0  0  0  0
    2.8343   -2.8951   -1.0435 C   0  0  2  0  0  0  0  0  0  0  0  0
    4.2065   -3.4993   -1.3546 C   0  0  1  0  0  0  0  0  0  0  0  0
    4.4664   -3.4761   -2.7410 O   0  0  0  0  0  0  0  0  0  0  0  0
    5.2599   -2.7025   -0.5675 C   0  0  1  0  0  0  0  0  0  0  0  0
    6.5596   -3.2298   -0.7393 O   0  0  0  0  0  0  0  0  0  0  0  0
    5.2096   -1.1869   -0.9417 C   0  0  1  0  0  0  0  0  0  0  0  0
    4.5295   -0.6609   -2.0536 O   0  0  0  0  0  0  0  0  0  0  0  0
    4.6859   -0.7187    0.4109 C   0  0  2  0  0  0  0  0  0  0  0  0
    5.8333   -1.2031    1.2980 C   0  0  1  0  0  0  0  0  0  0  0  0
    6.1734   -0.6028    2.5143 O   0  0  0  0  0  0  0  0  0  0  0  0
    5.0459   -2.4916    0.9884 C   0  0  2  0  0  0  0  0  0  0  0  0
    5.0289   -3.5409    1.9424 O   0  0  0  0  0  0  0  0  0  0  0  0
    4.0154   -4.5229    1.9374 C   0  0  1  0  0  0  0  0  0  0  0  0
    4.5381   -5.6587    1.2917 O   0  0  0  0  0  0  0  0  0  0  0  0
    3.6865   -4.8886    3.4378 C   0  0  1  0  0  0  0  0  0  0  0  0
    4.7200   -5.6744    3.9935 O   0  0  0  0  0  0  0  0  0  0  0  0
    3.1155   -3.8054    4.4672 C   0  0  2  0  0  0  0  0  0  0  0  0
    1.6981   -3.1608    4.2248 C   0  0  2  0  0  0  0  0  0  0  0  0
    1.6636   -1.9412    3.1799 C   0  0  1  0  0  0  0  0  0  0  0  0
    0.8641   -0.8528    3.6085 O   0  0  0  0  0  0  0  0  0  0  0  0
    3.0024   -1.2774    2.6113 C   0  0  1  0  0  0  0  0  0  0  0  0
    3.7854   -0.7963    3.8666 C   0  0  0  0  0  0  0  0  0  0  0  0
    4.6912   -1.7952    4.6336 C   0  0  1  0  0  0  0  0  0  0  0  0
    5.5106   -1.0443    5.5031 O   0  0  0  0  0  0  0  0  0  0  0  0
    4.0040   -2.9225    5.4279 C   0  0  2  0  0  0  0  0  0  0  0  0
    5.1145   -3.7663    6.1082 C   0  0  0  0  0  0  0  0  0  0  0  0
    3.1722   -2.3888    6.6552 C   0  0  0  0  0  0  0  0  0  0  0  0
    1.7134   -1.9729    6.4432 C   0  0  0  0  0  0  0  0  0  0  0  0
    0.9267   -2.9791    5.6030 C   0  0  0  0  0  0  0  0  0  0  0  0
   -0.5386   -2.5160    5.4154 C   0  0  0  0  0  0  0  0  0  0  0  0
    0.7782   -4.3049    6.3991 C   0  0  0  0  0  0  0  0  0  0  0  0
    3.7266   -1.7621    1.2053 C   0  0  1  0  0  0  0  0  0  0  0  0
    2.6773   -2.7130    0.4913 C   0  0  2  0  0  0  0  0  0  0  0  0
    2.6827   -4.1105    1.1865 C   0  0  1  0  0  0  0  0  0  0  0  0
    2.0982   -5.2008    0.4830 O   0  0  0  0  0  0  0  0  0  0  0  0
    1.6883   -4.6240   -1.8428 H   0  0  0  0  0  0  0  0  0  0  0  0
    1.7580   -3.2392   -2.8988 H   0  0  0  0  0  0  0  0  0  0  0  0
    0.7050   -3.2187   -1.5163 H   0  0  0  0  0  0  0  0  0  0  0  0
    2.7162   -1.8987   -1.4256 H   0  0  0  0  0  0  0  0  0  0  0  0
    4.2363   -4.5422   -1.0629 H   0  0  0  0  0  0  0  0  0  0  0  0
    3.9527   -4.1691   -3.1272 H   0  0  0  0  0  0  0  0  0  0  0  0
    6.5819   -4.1188   -0.4165 H   0  0  0  0  0  0  0  0  0  0  0  0
    6.2082   -0.8110   -1.1166 H   0  0  0  0  0  0  0  0  0  0  0  0
    3.5969   -0.7568   -1.9322 H   0  0  0  0  0  0  0  0  0  0  0  0
    4.4571    0.3381    0.5383 H   0  0  0  0  0  0  0  0  0  0  0  0
    6.7909   -1.2839    0.7949 H   0  0  0  0  0  0  0  0  0  0  0  0
    6.9134   -0.0468    2.3190 H   0  0  0  0  0  0  0  0  0  0  0  0
    4.6781   -5.4317    0.3802 H   0  0  0  0  0  0  0  0  0  0  0  0
    2.8779   -5.6248    3.3317 H   0  0  0  0  0  0  0  0  0  0  0  0
    5.4959   -5.1331    4.0012 H   0  0  0  0  0  0  0  0  0  0  0  0
    2.8680   -4.5787    5.1727 H   0  0  0  0  0  0  0  0  0  0  0  0
    1.0987   -3.9482    3.7733 H   0  0  0  0  0  0  0  0  0  0  0  0
    0.9967   -2.2629    2.3918 H   0  0  0  0  0  0  0  0  0  0  0  0
    0.7769   -0.2571    2.8753 H   0  0  0  0  0  0  0  0  0  0  0  0
    2.6401   -0.3186    2.2643 H   0  0  0  0  0  0  0  0  0  0  0  0
    4.3054    0.1257    3.6254 H   0  0  0  0  0  0  0  0  0  0  0  0
    3.0997   -0.3693    4.5968 H   0  0  0  0  0  0  0  0  0  0  0  0
    5.3650   -2.3016    3.9521 H   0  0  0  0  0  0  0  0  0  0  0  0
    4.9561   -0.5620    6.0968 H   0  0  0  0  0  0  0  0  0  0  0  0
    5.5654   -3.2234    6.9408 H   0  0  0  0  0  0  0  0  0  0  0  0
    5.9342   -4.0170    5.4316 H   0  0  0  0  0  0  0  0  0  0  0  0
    4.7069   -4.6896    6.5238 H   0  0  0  0  0  0  0  0  0  0  0  0
    3.1811   -3.1345    7.4426 H   0  0  0  0  0  0  0  0  0  0  0  0
    3.6731   -1.5380    7.1018 H   0  0  0  0  0  0  0  0  0  0  0  0
    1.2291   -1.8390    7.4085 H   0  0  0  0  0  0  0  0  0  0  0  0
    1.6723   -0.9827    5.9967 H   0  0  0  0  0  0  0  0  0  0  0  0
   -1.1946   -2.8610    6.2189 H   0  0  0  0  0  0  0  0  0  0  0  0
   -0.9451   -2.9028    4.4793 H   0  0  0  0  0  0  0  0  0  0  0  0
   -0.6510   -1.4338    5.4106 H   0  0  0  0  0  0  0  0  0  0  0  0
    0.1002   -4.1984    7.2463 H   0  0  0  0  0  0  0  0  0  0  0  0
    1.7015   -4.6564    6.8556 H   0  0  0  0  0  0  0  0  0  0  0  0
    0.3944   -5.1131    5.7727 H   0  0  0  0  0  0  0  0  0  0  0  0
    1.7097   -2.2643    0.5464 H   0  0  0  0  0  0  0  0  0  0  0  0
    1.9201   -4.0736    1.9246 H   0  0  0  0  0  0  0  0  0  0  0  0
    2.6501   -5.4340   -0.2467 H   0  0  0  0  0  0  0  0  0  0  0  0
  1  2  1  0
  1 37  1  0
  1 38  1  0
  1 39  1  0
  2 34  1  0
  2  3  1  0
  2 40  1  6
  3  4  1  0
  3  5  1  0
  3 41  1  1
  4 42  1  0
  5 12  1  0
  5  6  1  1
  5  7  1  0
  6 43  1  0
  7  8  1  0
  7  9  1  0
  7 44  1  6
  8 45  1  0
  9 33  1  0
  9 10  1  0
  9 46  1  6
 10 11  1  0
 10 12  1  0
 10 47  1  6
 11 48  1  0
 33 12  1  1
 12 13  1  1
 13 14  1  0
 14 35  1  0
 14 15  1  6
 14 16  1  0
 15 49  1  0
 16 17  1  0
 16 18  1  0
 16 50  1  6
 17 51  1  0
 18 26  1  0
 18 19  1  0
 18 52  1  1
 19 30  1  0
 19 20  1  0
 19 53  1  6
 20 21  1  0
 20 22  1  0
 20 54  1  6
 21 55  1  0
 22 23  1  0
 22 33  1  0
 22 56  1  6
 23 24  1  0
 23 57  1  0
 23 58  1  0
 24 25  1  0
 24 26  1  0
 24 59  1  6
 25 60  1  0
 26 27  1  1
 26 28  1  0
 27 61  1  0
 27 62  1  0
 27 63  1  0
 28 29  1  0
 28 64  1  0
 28 65  1  0
 29 30  1  0
 29 66  1  0
 29 67  1  0
 30 31  1  0
 30 32  1  0
 31 68  1  0
 31 69  1  0
 31 70  1  0
 32 71  1  0
 32 72  1  0
 32 73  1  0
 33 34  1  0
 34 35  1  0
 34 74  1  6
 35 36  1  0
 35 75  1  1
 36 76  1  0
M  END
>  <i_m_ct_stereo_status>  (310) 
1

>  <s_m_source_file>  (310) 
/var/tmp/pbs.5076255.sched01/tmpux3k924y/120tsqzh4i4.sdf

>  <i_m_source_file_index>  (310) 
17

>  <i_lp_mmshare_version>  (310) 
48012

>  <i_f3d_flags>  (310) 
0

>  <s_epik_input>  (310) 
W09IXVtDQEBIXTFbQ0BIXShbQ0BAXTIzW0NAXTE0NSlbQ0BIXShbT0hdKVtDQF00KFtPSF0pW0NASF0oW09IXSlbQ0BASF0oW0NIM10pW0NASF0zW0NAQEhdKFtPSF0pW0NAXShPNSkoW09IXSlbQ0BASF0oW09IXSlbQ0BASF02W0NAQEhdN1tDQEBIXShbT0hdKVtDQEhdMltDSDJdW0NAQEhdKFtPSF0pW0NAQF02KFtDSDNdKVtDSDJdW0NIMl1DNyhbQ0gzXSlbQ0gzXQ==

>  <s_epik_cmdline>  (310) 
J2VwaWtfcHl0aG9uJywgJy1waHQnLCAnMi4wJywgJy1waCcsICc3LjAnLCAnLXRuJywgJzgnLCAnLW1hJywgJzIwMCcsICctaW1hZScsICc8aW5maWxlLm1hZT4nLCAnLW9tYWUnLCAnPG91dGZpbGUubWFlPic=

>  <r_lp_tautomer_probability>  (310) 
1

>  <r_epik_Ionization_Penalty>  (310) 
2.35484e-06

>  <r_epik_Ionization_Penalty_Charging>  (310) 
0

>  <r_epik_Ionization_Penalty_Neutral>  (310) 
2.35484e-06

>  <r_epik_State_Penalty>  (310) 
-0

>  <r_epik_Charging_Adjusted_Penalty>  (310) 
0

>  <i_epik_Tot_Q>  (310) 
0

>  <i_epik_Tot_abs_Q>  (310) 
0

>  <s_lp_Force_Field>  (310) 
OPLS3e

>  <r_lp_Energy>  (310) 
223.539

>  <b_lp_Chiralities_Consistent>  (310) 
1

>  <s_lp_Variant>  (310) 
102:0-1

>  <s_i_glide_gridfile>  (310) 
pfpi4k_grid

>  <i_i_glide_lignum>  (310) 
17

>  <i_i_glide_rotatable_bonds>  (310) 
9

>  <r_i_docking_score>  (310) 
-3.4044

>  <r_i_glide_ligand_efficiency>  (310) 
-0.0945668

>  <r_i_glide_ligand_efficiency_sa>  (310) 
-0.312253

>  <r_i_glide_ligand_efficiency_ln>  (310) 
-0.742749

>  <r_i_glide_gscore>  (310) 
-3.4044

>  <r_i_glide_lipo>  (310) 
-0.339496

>  <r_i_glide_hbond>  (310) 
0

>  <r_i_glide_metal>  (310) 
-0

>  <r_i_glide_rewards>  (310) 
-0.00998546

>  <r_i_glide_evdw>  (310) 
-25.6528

>  <r_i_glide_ecoul>  (310) 
-11.8152

>  <r_i_glide_erotb>  (310) 
0

>  <r_i_glide_esite>  (310) 
0

>  <r_i_glide_emodel>  (310) 
-44.0058

>  <r_i_glide_energy>  (310) 
-37.468

>  <r_i_glide_einternal>  (310) 
1.78967

>  <r_i_glide_intrahb_reward>  (310) 
-0

>  <i_i_glide_confnum>  (310) 
1

>  <i_i_glide_posenum>  (310) 
2

>  <r_i_glide_eff_state_penalty>  (310) 
0

>  <ligand_id>  (310) 
102

>  <original_smiles>  (310) 
CC1C(O)C2(O)C(O)C3C(O)C24OC2(O)C(O)C5C6C(O)C(CC(O)C5(C)CCC6(C)C)C34C1C2O

>  <smiles>  (310) 
[H]OC1([H])C2(O[H])OC34C([H])(O[H])C5([H])C([H])(O[H])C3(O[H])C([H])(O[H])C([H])(C([H])([H])[H])C([H])(C2([H])O[H])C54C2([H])C([H])([H])C([H])(O[H])C3(C([H])([H])[H])C([H])([H])C([H])([H])C(C([H])([H])[H])(C([H])([H])[H])C([H])(C2([H])O[H])C13[H]

$$$$
102:0:1
     RDKit          3D

 76 82  0  0  1  0  0  0  0  0999 V2000
    1.7554   -3.8058   -1.4978 C   0  0  0  0  0  0  0  0  0  0  0  0
    2.8638   -3.0565   -0.7178 C   0  0  2  0  0  0  0  0  0  0  0  0
    4.2497   -3.6826   -0.9059 C   0  0  1  0  0  0  0  0  0  0  0  0
    4.5781   -3.7973   -2.2724 O   0  0  0  0  0  0  0  0  0  0  0  0
    5.2844   -2.8236   -0.1623 C   0  0  1  0  0  0  0  0  0  0  0  0
    6.5801   -3.3748   -0.2543 O   0  0  0  0  0  0  0  0  0  0  0  0
    5.2576   -1.3451   -0.6706 C   0  0  1  0  0  0  0  0  0  0  0  0
    4.5955   -0.8988   -1.8358 O   0  0  0  0  0  0  0  0  0  0  0  0
    4.6909   -0.7592    0.6180 C   0  0  2  0  0  0  0  0  0  0  0  0
    5.8137   -1.1772    1.5696 C   0  0  1  0  0  0  0  0  0  0  0  0
    6.1097   -0.4652    2.7378 O   0  0  0  0  0  0  0  0  0  0  0  0
    5.0162   -2.4780    1.3588 C   0  0  2  0  0  0  0  0  0  0  0  0
    4.9765   -3.4403    2.3923 O   0  0  0  0  0  0  0  0  0  0  0  0
    3.9587   -4.4046    2.4553 C   0  0  1  0  0  0  0  0  0  0  0  0
    4.4991   -5.6125    1.9436 O   0  0  0  0  0  0  0  0  0  0  0  0
    3.5930   -4.6461    3.9686 C   0  0  1  0  0  0  0  0  0  0  0  0
    4.5812   -5.4204    4.6079 O   0  0  0  0  0  0  0  0  0  0  0  0
    2.9931   -3.4794    4.8833 C   0  0  2  0  0  0  0  0  0  0  0  0
    1.5888   -2.8671    4.5374 C   0  0  2  0  0  0  0  0  0  0  0  0
    1.5830   -1.7481    3.3839 C   0  0  1  0  0  0  0  0  0  0  0  0
    0.7751   -0.6274    3.6889 O   0  0  0  0  0  0  0  0  0  0  0  0
    2.9375   -1.1303    2.8006 C   0  0  1  0  0  0  0  0  0  0  0  0
    3.6962   -0.5421    4.0228 C   0  0  0  0  0  0  0  0  0  0  0  0
    4.5793   -1.4727    4.9018 C   0  0  1  0  0  0  0  0  0  0  0  0
    5.3988   -0.6504    5.7090 O   0  0  0  0  0  0  0  0  0  0  0  0
    3.8532   -2.5145    5.7796 C   0  0  2  0  0  0  0  0  0  0  0  0
    4.9386   -3.2968    6.5657 C   0  0  0  0  0  0  0  0  0  0  0  0
    2.9871   -1.8683    6.9256 C   0  0  0  0  0  0  0  0  0  0  0  0
    1.5328   -1.4758    6.6324 C   0  0  0  0  0  0  0  0  0  0  0  0
    0.7739   -2.5611    5.8639 C   0  0  0  0  0  0  0  0  0  0  0  0
   -0.6901   -2.1332    5.5911 C   0  0  0  0  0  0  0  0  0  0  0  0
    0.6008   -3.8111    6.7798 C   0  0  0  0  0  0  0  0  0  0  0  0
    3.6927   -1.7318    1.4604 C   0  0  1  0  0  0  0  0  0  0  0  0
    2.6649   -2.7342    0.7981 C   0  0  2  0  0  0  0  0  0  0  0  0
    2.6476   -4.0769    1.6203 C   0  0  1  0  0  0  0  0  0  0  0  0
    2.0872   -5.2217    1.0033 O   0  0  0  0  0  0  0  0  0  0  0  0
    1.7546   -4.8760   -1.3340 H   0  0  0  0  0  0  0  0  0  0  0  0
    1.8558   -3.6388   -2.5692 H   0  0  0  0  0  0  0  0  0  0  0  0
    0.7634   -3.4452   -1.2343 H   0  0  0  0  0  0  0  0  0  0  0  0
    2.7601   -2.0991   -1.2005 H   0  0  0  0  0  0  0  0  0  0  0  0
    4.2607   -4.6934   -0.5135 H   0  0  0  0  0  0  0  0  0  0  0  0
    4.0388   -4.5057   -2.6321 H   0  0  0  0  0  0  0  0  0  0  0  0
    6.5779   -4.2236    0.1628 H   0  0  0  0  0  0  0  0  0  0  0  0
    6.2688   -0.9915   -0.8509 H   0  0  0  0  0  0  0  0  0  0  0  0
    3.6603   -1.0178   -1.7304 H   0  0  0  0  0  0  0  0  0  0  0  0
    4.4728    0.3041    0.6553 H   0  0  0  0  0  0  0  0  0  0  0  0
    6.7902   -1.3066    1.1150 H   0  0  0  0  0  0  0  0  0  0  0  0
    6.8796    0.0474    2.5236 H   0  0  0  0  0  0  0  0  0  0  0  0
    4.6938   -5.4627    1.0297 H   0  0  0  0  0  0  0  0  0  0  0  0
    2.7825   -5.3769    3.9006 H   0  0  0  0  0  0  0  0  0  0  0  0
    4.8290   -6.1007    3.9902 H   0  0  0  0  0  0  0  0  0  0  0  0
    2.7271   -4.1904    5.6476 H   0  0  0  0  0  0  0  0  0  0  0  0
    1.0003   -3.6916    4.1412 H   0  0  0  0  0  0  0  0  0  0  0  0
    0.9353   -2.1348    2.6106 H   0  0  0  0  0  0  0  0  0  0  0  0
    0.7207   -0.0798    2.9159 H   0  0  0  0  0  0  0  0  0  0  0  0
    2.5827   -0.2042    2.3573 H   0  0  0  0  0  0  0  0  0  0  0  0
    4.2316    0.3469    3.7002 H   0  0  0  0  0  0  0  0  0  0  0  0
    2.9971   -0.0399    4.6843 H   0  0  0  0  0  0  0  0  0  0  0  0
    5.2627   -2.0467    4.2865 H   0  0  0  0  0  0  0  0  0  0  0  0
    4.8398   -0.1031    6.2409 H   0  0  0  0  0  0  0  0  0  0  0  0
    5.3750   -2.6853    7.3593 H   0  0  0  0  0  0  0  0  0  0  0  0
    5.7658   -3.6232    5.9321 H   0  0  0  0  0  0  0  0  0  0  0  0
    4.5141   -4.1771    7.0535 H   0  0  0  0  0  0  0  0  0  0  0  0
    2.9681   -2.5397    7.7800 H   0  0  0  0  0  0  0  0  0  0  0  0
    3.4785   -0.9797    7.3085 H   0  0  0  0  0  0  0  0  0  0  0  0
    1.0194   -1.2584    7.5676 H   0  0  0  0  0  0  0  0  0  0  0  0
    1.5020   -0.5335    6.0938 H   0  0  0  0  0  0  0  0  0  0  0  0
   -1.3726   -2.4058    6.3990 H   0  0  0  0  0  0  0  0  0  0  0  0
   -1.0598   -2.6129    4.6854 H   0  0  0  0  0  0  0  0  0  0  0  0
   -0.8033   -1.0558    5.4777 H   0  0  0  0  0  0  0  0  0  0  0  0
   -0.1022   -3.6310    7.5951 H   0  0  0  0  0  0  0  0  0  0  0  0
    1.5114   -4.1142    7.2944 H   0  0  0  0  0  0  0  0  0  0  0  0
    0.2402   -4.6788    6.2223 H   0  0  0  0  0  0  0  0  0  0  0  0
    1.6924   -2.2629    0.7864 H   0  0  0  0  0  0  0  0  0  0  0  0
    1.8601   -3.9764    2.3284 H   0  0  0  0  0  0  0  0  0  0  0  0
    2.6700   -5.5307    0.3204 H   0  0  0  0  0  0  0  0  0  0  0  0
  1  2  1  0
  1 37  1  0
  1 38  1  0
  1 39  1  0
  2 34  1  0
  2  3  1  0
  2 40  1  6
  3  4  1  0
  3  5  1  0
  3 41  1  1
  4 42  1  0
  5 12  1  0
  5  6  1  1
  5  7  1  0
  6 43  1  0
  7  8  1  0
  7  9  1  0
  7 44  1  6
  8 45  1  0
  9 33  1  0
  9 10  1  0
  9 46  1  6
 10 11  1  0
 10 12  1  0
 10 47  1  6
 11 48  1  0
 33 12  1  1
 12 13  1  1
 13 14  1  0
 14 35  1  0
 14 15  1  6
 14 16  1  0
 15 49  1  0
 16 17  1  0
 16 18  1  0
 16 50  1  6
 17 51  1  0
 18 26  1  0
 18 19  1  0
 18 52  1  1
 19 30  1  0
 19 20  1  0
 19 53  1  6
 20 21  1  0
 20 22  1  0
 20 54  1  6
 21 55  1  0
 22 23  1  0
 22 33  1  0
 22 56  1  6
 23 24  1  0
 23 57  1  0
 23 58  1  0
 24 25  1  0
 24 26  1  0
 24 59  1  6
 25 60  1  0
 26 27  1  1
 26 28  1  0
 27 61  1  0
 27 62  1  0
 27 63  1  0
 28 29  1  0
 28 64  1  0
 28 65  1  0
 29 30  1  0
 29 66  1  0
 29 67  1  0
 30 31  1  0
 30 32  1  0
 31 68  1  0
 31 69  1  0
 31 70  1  0
 32 71  1  0
 32 72  1  0
 32 73  1  0
 33 34  1  0
 34 35  1  0
 34 74  1  6
 35 36  1  0
 35 75  1  1
 36 76  1  0
M  END
>  <i_m_ct_stereo_status>  (311) 
1

>  <s_m_source_file>  (311) 
/var/tmp/pbs.5076255.sched01/tmpux3k924y/120tsqzh4i4.sdf

>  <i_m_source_file_index>  (311) 
17

>  <i_lp_mmshare_version>  (311) 
48012

>  <i_f3d_flags>  (311) 
0

>  <s_epik_input>  (311) 
W09IXVtDQEBIXTFbQ0BIXShbQ0BAXTIzW0NAXTE0NSlbQ0BIXShbT0hdKVtDQF00KFtPSF0pW0NASF0oW09IXSlbQ0BASF0oW0NIM10pW0NASF0zW0NAQEhdKFtPSF0pW0NAXShPNSkoW09IXSlbQ0BASF0oW09IXSlbQ0BASF02W0NAQEhdN1tDQEBIXShbT0hdKVtDQEhdMltDSDJdW0NAQEhdKFtPSF0pW0NAQF02KFtDSDNdKVtDSDJdW0NIMl1DNyhbQ0gzXSlbQ0gzXQ==

>  <s_epik_cmdline>  (311) 
J2VwaWtfcHl0aG9uJywgJy1waHQnLCAnMi4wJywgJy1waCcsICc3LjAnLCAnLXRuJywgJzgnLCAnLW1hJywgJzIwMCcsICctaW1hZScsICc8aW5maWxlLm1hZT4nLCAnLW9tYWUnLCAnPG91dGZpbGUubWFlPic=

>  <r_lp_tautomer_probability>  (311) 
1

>  <r_epik_Ionization_Penalty>  (311) 
2.35484e-06

>  <r_epik_Ionization_Penalty_Charging>  (311) 
0

>  <r_epik_Ionization_Penalty_Neutral>  (311) 
2.35484e-06

>  <r_epik_State_Penalty>  (311) 
-0

>  <r_epik_Charging_Adjusted_Penalty>  (311) 
0

>  <i_epik_Tot_Q>  (311) 
0

>  <i_epik_Tot_abs_Q>  (311) 
0

>  <s_lp_Force_Field>  (311) 
OPLS3e

>  <r_lp_Energy>  (311) 
223.539

>  <b_lp_Chiralities_Consistent>  (311) 
1

>  <s_lp_Variant>  (311) 
102:0-1

>  <s_i_glide_gridfile>  (311) 
pfpi4k_grid

>  <i_i_glide_lignum>  (311) 
17

>  <i_i_glide_rotatable_bonds>  (311) 
9

>  <r_i_docking_score>  (311) 
-3.37055

>  <r_i_glide_ligand_efficiency>  (311) 
-0.0936263

>  <r_i_glide_ligand_efficiency_sa>  (311) 
-0.309147

>  <r_i_glide_ligand_efficiency_ln>  (311) 
-0.735362

>  <r_i_glide_gscore>  (311) 
-3.37055

>  <r_i_glide_lipo>  (311) 
-0.339382

>  <r_i_glide_hbond>  (311) 
0

>  <r_i_glide_metal>  (311) 
-0

>  <r_i_glide_rewards>  (311) 
0

>  <r_i_glide_evdw>  (311) 
-26.0616

>  <r_i_glide_ecoul>  (311) 
-11.5206

>  <r_i_glide_erotb>  (311) 
0

>  <r_i_glide_esite>  (311) 
0

>  <r_i_glide_emodel>  (311) 
-43.899

>  <r_i_glide_energy>  (311) 
-37.5822

>  <r_i_glide_einternal>  (311) 
2.15506

>  <r_i_glide_intrahb_reward>  (311) 
-0

>  <i_i_glide_confnum>  (311) 
1

>  <i_i_glide_posenum>  (311) 
40

>  <r_i_glide_eff_state_penalty>  (311) 
0

>  <ligand_id>  (311) 
102

>  <original_smiles>  (311) 
CC1C(O)C2(O)C(O)C3C(O)C24OC2(O)C(O)C5C6C(O)C(CC(O)C5(C)CCC6(C)C)C34C1C2O

>  <smiles>  (311) 
[H]OC1([H])C2(O[H])OC34C([H])(O[H])C5([H])C([H])(O[H])C3(O[H])C([H])(O[H])C([H])(C([H])([H])[H])C([H])(C2([H])O[H])C54C2([H])C([H])([H])C([H])(O[H])C3(C([H])([H])[H])C([H])([H])C([H])([H])C(C([H])([H])[H])(C([H])([H])[H])C([H])(C2([H])O[H])C13[H]

$$$$
102:0:2
     RDKit          3D

 76 82  0  0  1  0  0  0  0  0999 V2000
    1.7022   -3.5376   -1.8520 C   0  0  0  0  0  0  0  0  0  0  0  0
    2.8501   -2.9006   -1.0427 C   0  0  2  0  0  0  0  0  0  0  0  0
    4.2238   -3.5065   -1.3445 C   0  0  1  0  0  0  0  0  0  0  0  0
    4.4652   -3.4687   -2.7367 O   0  0  0  0  0  0  0  0  0  0  0  0
    5.2862   -2.7173   -0.5672 C   0  0  1  0  0  0  0  0  0  0  0  0
    6.5837   -3.2484   -0.7465 O   0  0  0  0  0  0  0  0  0  0  0  0
    5.2185   -1.2144   -0.9405 C   0  0  1  0  0  0  0  0  0  0  0  0
    4.5494   -0.6895   -2.0653 O   0  0  0  0  0  0  0  0  0  0  0  0
    4.6890   -0.7380    0.4084 C   0  0  2  0  0  0  0  0  0  0  0  0
    5.8391   -1.2292    1.3000 C   0  0  1  0  0  0  0  0  0  0  0  0
    6.1432   -0.6545    2.5127 O   0  0  0  0  0  0  0  0  0  0  0  0
    5.0494   -2.5075    0.9870 C   0  0  2  0  0  0  0  0  0  0  0  0
    5.0287   -3.5429    1.9544 O   0  0  0  0  0  0  0  0  0  0  0  0
    4.0129   -4.5149    1.9460 C   0  0  1  0  0  0  0  0  0  0  0  0
    4.5263   -5.6530    1.2898 O   0  0  0  0  0  0  0  0  0  0  0  0
    3.6817   -4.8808    3.4403 C   0  0  1  0  0  0  0  0  0  0  0  0
    4.7095   -5.6658    4.0034 O   0  0  0  0  0  0  0  0  0  0  0  0
    3.1136   -3.7923    4.4717 C   0  0  2  0  0  0  0  0  0  0  0  0
    1.7043   -3.1445    4.2277 C   0  0  2  0  0  0  0  0  0  0  0  0
    1.6793   -1.9331    3.1788 C   0  0  1  0  0  0  0  0  0  0  0  0
    0.8819   -0.8382    3.5989 O   0  0  0  0  0  0  0  0  0  0  0  0
    3.0214   -1.2752    2.6103 C   0  0  1  0  0  0  0  0  0  0  0  0
    3.7983   -0.7901    3.8732 C   0  0  0  0  0  0  0  0  0  0  0  0
    4.6999   -1.7960    4.6395 C   0  0  1  0  0  0  0  0  0  0  0  0
    5.5282   -1.0444    5.5124 O   0  0  0  0  0  0  0  0  0  0  0  0
    4.0011   -2.9151    5.4355 C   0  0  2  0  0  0  0  0  0  0  0  0
    5.1100   -3.7586    6.1215 C   0  0  0  0  0  0  0  0  0  0  0  0
    3.1685   -2.3763    6.6567 C   0  0  0  0  0  0  0  0  0  0  0  0
    1.7116   -1.9474    6.4371 C   0  0  0  0  0  0  0  0  0  0  0  0
    0.9272   -2.9561    5.5955 C   0  0  0  0  0  0  0  0  0  0  0  0
   -0.5407   -2.4912    5.4173 C   0  0  0  0  0  0  0  0  0  0  0  0
    0.7718   -4.2809    6.4013 C   0  0  0  0  0  0  0  0  0  0  0  0
    3.7313   -1.7651    1.1998 C   0  0  1  0  0  0  0  0  0  0  0  0
    2.7024   -2.7159    0.4878 C   0  0  2  0  0  0  0  0  0  0  0  0
    2.6886   -4.1090    1.1925 C   0  0  1  0  0  0  0  0  0  0  0  0
    2.0966   -5.1879    0.4787 O   0  0  0  0  0  0  0  0  0  0  0  0
    1.7021   -4.6293   -1.8358 H   0  0  0  0  0  0  0  0  0  0  0  0
    1.7760   -3.2468   -2.9028 H   0  0  0  0  0  0  0  0  0  0  0  0
    0.7139   -3.2275   -1.5175 H   0  0  0  0  0  0  0  0  0  0  0  0
    2.7231   -1.9024   -1.4372 H   0  0  0  0  0  0  0  0  0  0  0  0
    4.2463   -4.5512   -1.0475 H   0  0  0  0  0  0  0  0  0  0  0  0
    3.9829   -4.1903   -3.1152 H   0  0  0  0  0  0  0  0  0  0  0  0
    7.1491   -2.9505   -0.0459 H   0  0  0  0  0  0  0  0  0  0  0  0
    6.2098   -0.8135   -1.1081 H   0  0  0  0  0  0  0  0  0  0  0  0
    3.6179   -0.7656   -1.9176 H   0  0  0  0  0  0  0  0  0  0  0  0
    4.4933    0.3264    0.5493 H   0  0  0  0  0  0  0  0  0  0  0  0
    6.7923   -1.2859    0.8069 H   0  0  0  0  0  0  0  0  0  0  0  0
    6.8832   -0.0596    2.3449 H   0  0  0  0  0  0  0  0  0  0  0  0
    4.7405   -5.4026    0.4026 H   0  0  0  0  0  0  0  0  0  0  0  0
    2.8790   -5.6138    3.3438 H   0  0  0  0  0  0  0  0  0  0  0  0
    5.4877   -5.1310    4.0136 H   0  0  0  0  0  0  0  0  0  0  0  0
    2.8668   -4.5622    5.1829 H   0  0  0  0  0  0  0  0  0  0  0  0
    1.0997   -3.9282    3.7824 H   0  0  0  0  0  0  0  0  0  0  0  0
    1.0115   -2.2487    2.3887 H   0  0  0  0  0  0  0  0  0  0  0  0
    0.7963   -0.2383    2.8715 H   0  0  0  0  0  0  0  0  0  0  0  0
    2.6520   -0.3062    2.2644 H   0  0  0  0  0  0  0  0  0  0  0  0
    4.3249    0.1189    3.6172 H   0  0  0  0  0  0  0  0  0  0  0  0
    3.1166   -0.3420    4.5918 H   0  0  0  0  0  0  0  0  0  0  0  0
    5.3738   -2.3185    3.9642 H   0  0  0  0  0  0  0  0  0  0  0  0
    4.9760   -0.5445    6.0913 H   0  0  0  0  0  0  0  0  0  0  0  0
    5.5609   -3.2198    6.9575 H   0  0  0  0  0  0  0  0  0  0  0  0
    5.9279   -4.0215    5.4495 H   0  0  0  0  0  0  0  0  0  0  0  0
    4.6926   -4.6767    6.5358 H   0  0  0  0  0  0  0  0  0  0  0  0
    3.1775   -3.1228    7.4525 H   0  0  0  0  0  0  0  0  0  0  0  0
    3.6704   -1.5241    7.0968 H   0  0  0  0  0  0  0  0  0  0  0  0
    1.2262   -1.8125    7.4043 H   0  0  0  0  0  0  0  0  0  0  0  0
    1.6789   -0.9607    5.9862 H   0  0  0  0  0  0  0  0  0  0  0  0
   -1.1983   -2.8323    6.2223 H   0  0  0  0  0  0  0  0  0  0  0  0
   -0.9504   -2.8766    4.4836 H   0  0  0  0  0  0  0  0  0  0  0  0
   -0.6427   -1.4072    5.4022 H   0  0  0  0  0  0  0  0  0  0  0  0
    0.0932   -4.1746    7.2507 H   0  0  0  0  0  0  0  0  0  0  0  0
    1.6926   -4.6299    6.8610 H   0  0  0  0  0  0  0  0  0  0  0  0
    0.3932   -5.0947    5.7802 H   0  0  0  0  0  0  0  0  0  0  0  0
    1.7305   -2.2671    0.5539 H   0  0  0  0  0  0  0  0  0  0  0  0
    1.9179   -4.0577    1.9296 H   0  0  0  0  0  0  0  0  0  0  0  0
    2.6606   -5.4293   -0.2438 H   0  0  0  0  0  0  0  0  0  0  0  0
  1  2  1  0
  1 37  1  0
  1 38  1  0
  1 39  1  0
  2 34  1  0
  2  3  1  0
  2 40  1  6
  3  4  1  0
  3  5  1  0
  3 41  1  1
  4 42  1  0
  5 12  1  0
  5  6  1  1
  5  7  1  0
  6 43  1  0
  7  8  1  0
  7  9  1  0
  7 44  1  6
  8 45  1  0
  9 33  1  0
  9 10  1  0
  9 46  1  6
 10 11  1  0
 10 12  1  0
 10 47  1  6
 11 48  1  0
 33 12  1  1
 12 13  1  1
 13 14  1  0
 14 35  1  0
 14 15  1  6
 14 16  1  0
 15 49  1  0
 16 17  1  0
 16 18  1  0
 16 50  1  6
 17 51  1  0
 18 26  1  0
 18 19  1  0
 18 52  1  1
 19 30  1  0
 19 20  1  0
 19 53  1  6
 20 21  1  0
 20 22  1  0
 20 54  1  6
 21 55  1  0
 22 23  1  0
 22 33  1  0
 22 56  1  6
 23 24  1  0
 23 57  1  0
 23 58  1  0
 24 25  1  0
 24 26  1  0
 24 59  1  6
 25 60  1  0
 26 27  1  1
 26 28  1  0
 27 61  1  0
 27 62  1  0
 27 63  1  0
 28 29  1  0
 28 64  1  0
 28 65  1  0
 29 30  1  0
 29 66  1  0
 29 67  1  0
 30 31  1  0
 30 32  1  0
 31 68  1  0
 31 69  1  0
 31 70  1  0
 32 71  1  0
 32 72  1  0
 32 73  1  0
 33 34  1  0
 34 35  1  0
 34 74  1  6
 35 36  1  0
 35 75  1  1
 36 76  1  0
M  END
>  <i_m_ct_stereo_status>  (312) 
1

>  <s_m_source_file>  (312) 
/var/tmp/pbs.5076255.sched01/tmpux3k924y/120tsqzh4i4.sdf

>  <i_m_source_file_index>  (312) 
17

>  <i_lp_mmshare_version>  (312) 
48012

>  <i_f3d_flags>  (312) 
0

>  <s_epik_input>  (312) 
W09IXVtDQEBIXTFbQ0BIXShbQ0BAXTIzW0NAXTE0NSlbQ0BIXShbT0hdKVtDQF00KFtPSF0pW0NASF0oW09IXSlbQ0BASF0oW0NIM10pW0NASF0zW0NAQEhdKFtPSF0pW0NAXShPNSkoW09IXSlbQ0BASF0oW09IXSlbQ0BASF02W0NAQEhdN1tDQEBIXShbT0hdKVtDQEhdMltDSDJdW0NAQEhdKFtPSF0pW0NAQF02KFtDSDNdKVtDSDJdW0NIMl1DNyhbQ0gzXSlbQ0gzXQ==

>  <s_epik_cmdline>  (312) 
J2VwaWtfcHl0aG9uJywgJy1waHQnLCAnMi4wJywgJy1waCcsICc3LjAnLCAnLXRuJywgJzgnLCAnLW1hJywgJzIwMCcsICctaW1hZScsICc8aW5maWxlLm1hZT4nLCAnLW9tYWUnLCAnPG91dGZpbGUubWFlPic=

>  <r_lp_tautomer_probability>  (312) 
1

>  <r_epik_Ionization_Penalty>  (312) 
2.35484e-06

>  <r_epik_Ionization_Penalty_Charging>  (312) 
0

>  <r_epik_Ionization_Penalty_Neutral>  (312) 
2.35484e-06

>  <r_epik_State_Penalty>  (312) 
-0

>  <r_epik_Charging_Adjusted_Penalty>  (312) 
0

>  <i_epik_Tot_Q>  (312) 
0

>  <i_epik_Tot_abs_Q>  (312) 
0

>  <s_lp_Force_Field>  (312) 
OPLS3e

>  <r_lp_Energy>  (312) 
223.539

>  <b_lp_Chiralities_Consistent>  (312) 
1

>  <s_lp_Variant>  (312) 
102:0-1

>  <s_i_glide_gridfile>  (312) 
pfpi4k_grid

>  <i_i_glide_lignum>  (312) 
17

>  <i_i_glide_rotatable_bonds>  (312) 
9

>  <r_i_docking_score>  (312) 
-3.36712

>  <r_i_glide_ligand_efficiency>  (312) 
-0.0935312

>  <r_i_glide_ligand_efficiency_sa>  (312) 
-0.308833

>  <r_i_glide_ligand_efficiency_ln>  (312) 
-0.734615

>  <r_i_glide_gscore>  (312) 
-3.36712

>  <r_i_glide_lipo>  (312) 
-0.340974

>  <r_i_glide_hbond>  (312) 
0

>  <r_i_glide_metal>  (312) 
-0

>  <r_i_glide_rewards>  (312) 
-0.00972857

>  <r_i_glide_evdw>  (312) 
-26.5916

>  <r_i_glide_ecoul>  (312) 
-11.2456

>  <r_i_glide_erotb>  (312) 
0

>  <r_i_glide_esite>  (312) 
0

>  <r_i_glide_emodel>  (312) 
-44.0224

>  <r_i_glide_energy>  (312) 
-37.8372

>  <r_i_glide_einternal>  (312) 
1.99364

>  <r_i_glide_intrahb_reward>  (312) 
-0

>  <i_i_glide_confnum>  (312) 
2

>  <i_i_glide_posenum>  (312) 
7

>  <r_i_glide_eff_state_penalty>  (312) 
0

>  <ligand_id>  (312) 
102

>  <original_smiles>  (312) 
CC1C(O)C2(O)C(O)C3C(O)C24OC2(O)C(O)C5C6C(O)C(CC(O)C5(C)CCC6(C)C)C34C1C2O

>  <smiles>  (312) 
[H]OC1([H])C2(O[H])OC34C([H])(O[H])C5([H])C([H])(O[H])C3(O[H])C([H])(O[H])C([H])(C([H])([H])[H])C([H])(C2([H])O[H])C54C2([H])C([H])([H])C([H])(O[H])C3(C([H])([H])[H])C([H])([H])C([H])([H])C(C([H])([H])[H])(C([H])([H])[H])C([H])(C2([H])O[H])C13[H]

$$$$
103:0:0
     RDKit          3D

 34 37  0  0  1  0  0  0  0  0999 V2000
   -0.0969    1.4997    2.5097 C   0  0  0  0  0  0  0  0  0  0  0  0
    1.1319    0.8959    2.1355 O   0  0  0  0  0  0  0  0  0  0  0  0
    1.3949   -0.3766    2.4792 C   0  0  0  0  0  0  0  0  0  0  0  0
    0.6599   -1.0630    3.1930 O   0  0  0  0  0  0  0  0  0  0  0  0
    2.6665   -0.8851    1.9223 C   0  0  0  0  0  0  0  0  0  0  0  0
    3.5382   -0.0035    1.3042 C   0  0  0  0  0  0  0  0  0  0  0  0
    4.7558   -0.3233    0.7036 O   0  0  0  0  0  0  0  0  0  0  0  0
    5.0470   -1.7167    0.7069 C   0  0  1  0  0  0  0  0  0  0  0  0
    5.3502   -2.1115    2.2299 C   0  0  0  0  0  0  0  0  0  0  0  0
    4.0909   -2.4976    3.0419 C   0  0  0  0  0  0  0  0  0  0  0  0
    2.9454   -2.3353    2.0633 C   0  0  0  0  0  0  0  0  0  0  0  0
    3.0909   -3.1380    0.9618 C   0  0  0  0  0  0  0  0  0  0  0  0
    3.4676   -4.5700    1.1048 C   0  0  0  0  0  0  0  0  0  0  0  0
    4.6573   -5.2237    0.8494 C   0  0  0  0  0  0  0  0  0  0  0  0
    5.8227   -4.7076    0.2483 C   0  0  0  0  0  0  0  0  0  0  0  0
    6.9404   -5.2135    0.5344 O   0  0  0  0  0  0  0  0  0  0  0  0
    5.7028   -3.6106   -0.5785 C   0  0  0  0  0  0  0  0  0  0  0  0
    4.3734   -3.2092   -1.1804 C   0  0  0  0  0  0  0  0  0  0  0  0
    3.8105   -2.3588   -0.0759 C   0  0  2  0  0  0  0  0  0  0  0  0
    6.1974   -2.2918   -0.1206 C   0  0  0  0  0  0  0  0  0  0  0  0
    7.2996   -1.7692   -0.3225 O   0  0  0  0  0  0  0  0  0  0  0  0
   -0.1119    2.5307    2.1548 H   0  0  0  0  0  0  0  0  0  0  0  0
   -0.2382    1.5247    3.5945 H   0  0  0  0  0  0  0  0  0  0  0  0
   -0.9519    0.9910    2.0570 H   0  0  0  0  0  0  0  0  0  0  0  0
    3.3548    1.0474    1.1798 H   0  0  0  0  0  0  0  0  0  0  0  0
    6.0566   -2.9406    2.2994 H   0  0  0  0  0  0  0  0  0  0  0  0
    5.8714   -1.2813    2.7129 H   0  0  0  0  0  0  0  0  0  0  0  0
    4.1548   -3.5040    3.4568 H   0  0  0  0  0  0  0  0  0  0  0  0
    3.9666   -1.8056    3.8795 H   0  0  0  0  0  0  0  0  0  0  0  0
    2.7221   -5.1933    1.5730 H   0  0  0  0  0  0  0  0  0  0  0  0
    4.7319   -6.1998    1.3026 H   0  0  0  0  0  0  0  0  0  0  0  0
    4.5570   -2.6179   -2.0709 H   0  0  0  0  0  0  0  0  0  0  0  0
    3.7674   -4.0665   -1.4684 H   0  0  0  0  0  0  0  0  0  0  0  0
    3.1243   -1.6441   -0.5437 H   0  0  0  0  0  0  0  0  0  0  0  0
  1  2  1  0
  1 22  1  0
  1 23  1  0
  1 24  1  0
  2  3  1  0
  3  4  2  0
  3  5  1  0
  5 11  1  0
  5  6  2  0
  6  7  1  0
  6 25  1  0
  7  8  1  0
  8 19  1  0
  8 20  1  6
  8  9  1  0
  9 10  1  0
  9 26  1  0
  9 27  1  0
 10 11  1  0
 10 28  1  0
 10 29  1  0
 11 12  2  0
 12 19  1  0
 12 13  1  0
 13 14  2  0
 13 30  1  0
 14 15  1  0
 14 31  1  0
 15 16  1  0
 15 17  2  0
 17 18  1  0
 17 20  1  0
 18 19  1  0
 18 32  1  0
 18 33  1  0
 19 34  1  6
 20 21  2  0
M  CHG  1  16  -1
M  END
>  <i_m_ct_stereo_status>  (313) 
1

>  <s_m_source_file>  (313) 
/var/tmp/pbs.5076255.sched01/tmpux3k924y/120tsqzh4i4.sdf

>  <i_m_source_file_index>  (313) 
18

>  <i_lp_mmshare_version>  (313) 
48012

>  <i_f3d_flags>  (313) 
0

>  <s_epik_input>  (313) 
W0NIM11PQyg9TylDKD1bQ0hdTzEpQyhbQ0gyXVtDSDJdMik9QyhbQ0BIXTNbQ0BAXTEyNClbQ0hdPVtDSF1DKD1PKVtDQEBIXShbQ0gyXTMpQzQ9Tw==

>  <s_epik_cmdline>  (313) 
J2VwaWtfcHl0aG9uJywgJy1waHQnLCAnMi4wJywgJy1waCcsICc3LjAnLCAnLXRuJywgJzgnLCAnLW1hJywgJzIwMCcsICctaW1hZScsICc8aW5maWxlLm1hZT4nLCAnLW9tYWUnLCAnPG91dGZpbGUubWFlPic=

>  <r_epik_Ionization_Penalty>  (313) 
0.0138186

>  <r_epik_Ionization_Penalty_Charging>  (313) 
0.0138186

>  <r_epik_Ionization_Penalty_Neutral>  (313) 
2.1006e-09

>  <r_epik_State_Penalty>  (313) 
0.0107725

>  <r_epik_Charging_Adjusted_Penalty>  (313) 
0.0245911

>  <i_epik_Tot_Q>  (313) 
-1

>  <i_epik_Tot_abs_Q>  (313) 
1

>  <s_epik_Chemistry_Notes>  (313) 
This compound has an ester and may undergo hydrolysis at high or low pH.

>  <s_lp_Force_Field>  (313) 
OPLS3e

>  <r_lp_Energy>  (313) 
167.85

>  <b_lp_Chiralities_Consistent>  (313) 
1

>  <s_lp_Variant>  (313) 
103:0-1

>  <s_i_glide_gridfile>  (313) 
pfpi4k_grid

>  <i_i_glide_lignum>  (313) 
18

>  <i_i_glide_rotatable_bonds>  (313) 
2

>  <r_i_docking_score>  (313) 
-3.15004

>  <r_i_glide_ligand_efficiency>  (313) 
-0.150002

>  <r_i_glide_ligand_efficiency_sa>  (313) 
-0.413844

>  <r_i_glide_ligand_efficiency_ln>  (313) 
-0.778841

>  <r_i_glide_gscore>  (313) 
-3.15004

>  <r_i_glide_lipo>  (313) 
-0.335109

>  <r_i_glide_hbond>  (313) 
-0.144831

>  <r_i_glide_metal>  (313) 
-0

>  <r_i_glide_rewards>  (313) 
-1.46406

>  <r_i_glide_evdw>  (313) 
-23.0535

>  <r_i_glide_ecoul>  (313) 
-0.0747217

>  <r_i_glide_erotb>  (313) 
0

>  <r_i_glide_esite>  (313) 
-0.0421562

>  <r_i_glide_emodel>  (313) 
-28.7619

>  <r_i_glide_energy>  (313) 
-23.1282

>  <r_i_glide_einternal>  (313) 
0.871675

>  <r_i_glide_intrahb_reward>  (313) 
-0

>  <i_i_glide_confnum>  (313) 
1

>  <i_i_glide_posenum>  (313) 
2

>  <r_i_glide_eff_state_penalty>  (313) 
0

>  <ligand_id>  (313) 
103

>  <original_smiles>  (313) 
COC(=O)C1=COC23CCC1=C1C=CC(=O)C(CC12)C3=O

>  <smiles>  (313) 
[H]C1=C(C(=O)OC([H])([H])[H])C2=C3C([H])=C([H])C([O-])=C4C(=O)C(O1)(C([H])([H])C2([H])[H])C3([H])C4([H])[H]

$$$$
103:0:1
     RDKit          3D

 34 37  0  0  1  0  0  0  0  0999 V2000
    4.1575   -0.6185    0.7339 C   0  0  0  0  0  0  0  0  0  0  0  0
    3.3667    0.2469    1.5374 O   0  0  0  0  0  0  0  0  0  0  0  0
    2.3131   -0.2274    2.2355 C   0  0  0  0  0  0  0  0  0  0  0  0
    2.0050   -1.4217    2.2740 O   0  0  0  0  0  0  0  0  0  0  0  0
    1.5636    0.8246    2.9603 C   0  0  0  0  0  0  0  0  0  0  0  0
    1.9980    2.1360    2.8981 C   0  0  0  0  0  0  0  0  0  0  0  0
    1.4274    3.2349    3.5379 O   0  0  0  0  0  0  0  0  0  0  0  0
    0.3135    2.9022    4.3510 C   0  0  1  0  0  0  0  0  0  0  0  0
   -0.8762    2.4615    3.3777 C   0  0  0  0  0  0  0  0  0  0  0  0
   -0.8543    0.9625    2.9955 C   0  0  0  0  0  0  0  0  0  0  0  0
    0.3551    0.4074    3.7183 C   0  0  0  0  0  0  0  0  0  0  0  0
    0.2695    0.5887    5.0750 C   0  0  0  0  0  0  0  0  0  0  0  0
   -0.9629    0.2475    5.8114 C   0  0  0  0  0  0  0  0  0  0  0  0
   -1.9255    1.0725    6.3919 C   0  0  0  0  0  0  0  0  0  0  0  0
   -1.9074    2.4615    6.5259 C   0  0  0  0  0  0  0  0  0  0  0  0
   -3.0064    3.0900    6.5188 O   0  0  0  0  0  0  0  0  0  0  0  0
   -0.6827    3.1153    6.4826 C   0  0  0  0  0  0  0  0  0  0  0  0
    0.5812    2.3842    6.7839 C   0  0  0  0  0  0  0  0  0  0  0  0
    0.9249    1.8798    5.4088 C   0  0  2  0  0  0  0  0  0  0  0  0
   -0.2862    3.9257    5.3117 C   0  0  0  0  0  0  0  0  0  0  0  0
   -0.4281    5.1382    5.0992 O   0  0  0  0  0  0  0  0  0  0  0  0
    4.9418   -0.0384    0.2434 H   0  0  0  0  0  0  0  0  0  0  0  0
    3.5628   -1.0945   -0.0505 H   0  0  0  0  0  0  0  0  0  0  0  0
    4.6453   -1.3947    1.3293 H   0  0  0  0  0  0  0  0  0  0  0  0
    2.8794    2.4682    2.3665 H   0  0  0  0  0  0  0  0  0  0  0  0
   -1.8608    2.6837    3.7923 H   0  0  0  0  0  0  0  0  0  0  0  0
   -0.8354    3.0724    2.4747 H   0  0  0  0  0  0  0  0  0  0  0  0
   -1.7783    0.4526    3.2700 H   0  0  0  0  0  0  0  0  0  0  0  0
   -0.7302    0.8581    1.9114 H   0  0  0  0  0  0  0  0  0  0  0  0
   -1.2280   -0.7900    5.8177 H   0  0  0  0  0  0  0  0  0  0  0  0
   -2.8569    0.5762    6.6224 H   0  0  0  0  0  0  0  0  0  0  0  0
    1.3393    3.0902    7.1268 H   0  0  0  0  0  0  0  0  0  0  0  0
    0.4859    1.6178    7.5507 H   0  0  0  0  0  0  0  0  0  0  0  0
    2.0087    1.7572    5.3670 H   0  0  0  0  0  0  0  0  0  0  0  0
  1  2  1  0
  1 22  1  0
  1 23  1  0
  1 24  1  0
  2  3  1  0
  3  4  2  0
  3  5  1  0
  5 11  1  0
  5  6  2  0
  6  7  1  0
  6 25  1  0
  7  8  1  0
  8 19  1  0
  8 20  1  1
  8  9  1  0
  9 10  1  0
  9 26  1  0
  9 27  1  0
 10 11  1  0
 10 28  1  0
 10 29  1  0
 11 12  2  0
 12 19  1  0
 12 13  1  0
 13 14  2  0
 13 30  1  0
 14 15  1  0
 14 31  1  0
 15 16  1  0
 15 17  2  0
 17 18  1  0
 17 20  1  0
 18 19  1  0
 18 32  1  0
 18 33  1  0
 19 34  1  1
 20 21  2  0
M  CHG  1  16  -1
M  END
>  <i_m_ct_stereo_status>  (314) 
1

>  <s_m_source_file>  (314) 
/var/tmp/pbs.5076255.sched01/tmpux3k924y/120tsqzh4i4.sdf

>  <i_m_source_file_index>  (314) 
18

>  <i_lp_mmshare_version>  (314) 
48012

>  <i_f3d_flags>  (314) 
0

>  <s_epik_input>  (314) 
W0NIM11PQyg9TylDKD1bQ0hdTzEpQyhbQ0gyXVtDSDJdMik9QyhbQ0BIXTNbQ0BAXTEyNClbQ0hdPVtDSF1DKD1PKVtDQEBIXShbQ0gyXTMpQzQ9Tw==

>  <s_epik_cmdline>  (314) 
J2VwaWtfcHl0aG9uJywgJy1waHQnLCAnMi4wJywgJy1waCcsICc3LjAnLCAnLXRuJywgJzgnLCAnLW1hJywgJzIwMCcsICctaW1hZScsICc8aW5maWxlLm1hZT4nLCAnLW9tYWUnLCAnPG91dGZpbGUubWFlPic=

>  <r_epik_Ionization_Penalty>  (314) 
0.0138186

>  <r_epik_Ionization_Penalty_Charging>  (314) 
0.0138186

>  <r_epik_Ionization_Penalty_Neutral>  (314) 
2.1006e-09

>  <r_epik_State_Penalty>  (314) 
0.0107725

>  <r_epik_Charging_Adjusted_Penalty>  (314) 
0.0245911

>  <i_epik_Tot_Q>  (314) 
-1

>  <i_epik_Tot_abs_Q>  (314) 
1

>  <s_epik_Chemistry_Notes>  (314) 
This compound has an ester and may undergo hydrolysis at high or low pH.

>  <s_lp_Force_Field>  (314) 
OPLS3e

>  <r_lp_Energy>  (314) 
167.85

>  <b_lp_Chiralities_Consistent>  (314) 
1

>  <s_lp_Variant>  (314) 
103:0-1

>  <s_i_glide_gridfile>  (314) 
pfpi4k_grid

>  <i_i_glide_lignum>  (314) 
18

>  <i_i_glide_rotatable_bonds>  (314) 
2

>  <r_i_docking_score>  (314) 
-2.93134

>  <r_i_glide_ligand_efficiency>  (314) 
-0.139588

>  <r_i_glide_ligand_efficiency_sa>  (314) 
-0.385112

>  <r_i_glide_ligand_efficiency_ln>  (314) 
-0.724769

>  <r_i_glide_gscore>  (314) 
-2.93134

>  <r_i_glide_lipo>  (314) 
-0.122979

>  <r_i_glide_hbond>  (314) 
0

>  <r_i_glide_metal>  (314) 
-0

>  <r_i_glide_rewards>  (314) 
-1.46406

>  <r_i_glide_evdw>  (314) 
-21.7284

>  <r_i_glide_ecoul>  (314) 
-1.42523

>  <r_i_glide_erotb>  (314) 
0

>  <r_i_glide_esite>  (314) 
-0.0441042

>  <r_i_glide_emodel>  (314) 
-28.4877

>  <r_i_glide_energy>  (314) 
-23.1536

>  <r_i_glide_einternal>  (314) 
0.646811

>  <r_i_glide_intrahb_reward>  (314) 
-0

>  <i_i_glide_confnum>  (314) 
1

>  <i_i_glide_posenum>  (314) 
4

>  <r_i_glide_eff_state_penalty>  (314) 
0

>  <ligand_id>  (314) 
103

>  <original_smiles>  (314) 
COC(=O)C1=COC23CCC1=C1C=CC(=O)C(CC12)C3=O

>  <smiles>  (314) 
[H]C1=C(C(=O)OC([H])([H])[H])C2=C3C([H])=C([H])C([O-])=C4C(=O)C(O1)(C([H])([H])C2([H])[H])C3([H])C4([H])[H]

$$$$
103:0:2
     RDKit          3D

 34 37  0  0  1  0  0  0  0  0999 V2000
    0.2859   -9.5927    2.6119 C   0  0  0  0  0  0  0  0  0  0  0  0
    0.3555   -8.8053    3.7921 O   0  0  0  0  0  0  0  0  0  0  0  0
    0.3883   -7.4535    3.7344 C   0  0  0  0  0  0  0  0  0  0  0  0
    0.3858   -6.8125    2.6796 O   0  0  0  0  0  0  0  0  0  0  0  0
    0.4357   -6.8242    5.0768 C   0  0  0  0  0  0  0  0  0  0  0  0
    0.2487   -7.5982    6.2024 C   0  0  0  0  0  0  0  0  0  0  0  0
    0.2271   -7.1673    7.5255 O   0  0  0  0  0  0  0  0  0  0  0  0
    0.3606   -5.7664    7.6618 C   0  0  1  0  0  0  0  0  0  0  0  0
    1.8624   -5.4032    7.2600 C   0  0  0  0  0  0  0  0  0  0  0  0
    2.0721   -5.1609    5.7389 C   0  0  0  0  0  0  0  0  0  0  0  0
    0.7073   -5.3580    5.1308 C   0  0  0  0  0  0  0  0  0  0  0  0
   -0.1942   -4.5052    5.6911 C   0  0  0  0  0  0  0  0  0  0  0  0
    0.0420   -3.0476    5.8203 C   0  0  0  0  0  0  0  0  0  0  0  0
    0.3186   -2.3082    6.9319 C   0  0  0  0  0  0  0  0  0  0  0  0
    0.2734   -2.6936    8.2872 C   0  0  0  0  0  0  0  0  0  0  0  0
    1.0280   -2.1433    9.1138 O   0  0  0  0  0  0  0  0  0  0  0  0
   -0.5158   -3.7998    8.6145 C   0  0  0  0  0  0  0  0  0  0  0  0
   -1.6233   -4.2528    7.7391 C   0  0  0  0  0  0  0  0  0  0  0  0
   -0.8450   -5.1534    6.8437 C   0  0  2  0  0  0  0  0  0  0  0  0
    0.0953   -5.0861    8.9962 C   0  0  0  0  0  0  0  0  0  0  0  0
    0.3422   -5.5472   10.1149 O   0  0  0  0  0  0  0  0  0  0  0  0
    0.2856  -10.6527    2.8726 H   0  0  0  0  0  0  0  0  0  0  0  0
    1.1349   -9.4163    1.9475 H   0  0  0  0  0  0  0  0  0  0  0  0
   -0.6384   -9.3925    2.0683 H   0  0  0  0  0  0  0  0  0  0  0  0
    0.0443   -8.6611    6.1822 H   0  0  0  0  0  0  0  0  0  0  0  0
    2.2364   -4.5236    7.7891 H   0  0  0  0  0  0  0  0  0  0  0  0
    2.5162   -6.2129    7.5938 H   0  0  0  0  0  0  0  0  0  0  0  0
    2.4724   -4.1711    5.5245 H   0  0  0  0  0  0  0  0  0  0  0  0
    2.7638   -5.8968    5.3345 H   0  0  0  0  0  0  0  0  0  0  0  0
    0.1751   -2.5173    4.8962 H   0  0  0  0  0  0  0  0  0  0  0  0
    0.7282   -1.3293    6.7362 H   0  0  0  0  0  0  0  0  0  0  0  0
   -2.3718   -4.8037    8.3210 H   0  0  0  0  0  0  0  0  0  0  0  0
   -2.1697   -3.4662    7.2102 H   0  0  0  0  0  0  0  0  0  0  0  0
   -1.5950   -5.8545    6.4340 H   0  0  0  0  0  0  0  0  0  0  0  0
  1  2  1  0
  1 22  1  0
  1 23  1  0
  1 24  1  0
  2  3  1  0
  3  4  2  0
  3  5  1  0
  5 11  1  0
  5  6  2  0
  6  7  1  0
  6 25  1  0
  7  8  1  0
  8 19  1  0
  8 20  1  1
  8  9  1  0
  9 10  1  0
  9 26  1  0
  9 27  1  0
 10 11  1  0
 10 28  1  0
 10 29  1  0
 11 12  2  0
 12 19  1  0
 12 13  1  0
 13 14  2  0
 13 30  1  0
 14 15  1  0
 14 31  1  0
 15 16  1  0
 15 17  2  0
 17 18  1  0
 17 20  1  0
 18 19  1  0
 18 32  1  0
 18 33  1  0
 19 34  1  6
 20 21  2  0
M  CHG  1  16  -1
M  END
>  <i_m_ct_stereo_status>  (315) 
1

>  <s_m_source_file>  (315) 
/var/tmp/pbs.5076255.sched01/tmpux3k924y/120tsqzh4i4.sdf

>  <i_m_source_file_index>  (315) 
18

>  <i_lp_mmshare_version>  (315) 
48012

>  <i_f3d_flags>  (315) 
0

>  <s_epik_input>  (315) 
W0NIM11PQyg9TylDKD1bQ0hdTzEpQyhbQ0gyXVtDSDJdMik9QyhbQ0BIXTNbQ0BAXTEyNClbQ0hdPVtDSF1DKD1PKVtDQEBIXShbQ0gyXTMpQzQ9Tw==

>  <s_epik_cmdline>  (315) 
J2VwaWtfcHl0aG9uJywgJy1waHQnLCAnMi4wJywgJy1waCcsICc3LjAnLCAnLXRuJywgJzgnLCAnLW1hJywgJzIwMCcsICctaW1hZScsICc8aW5maWxlLm1hZT4nLCAnLW9tYWUnLCAnPG91dGZpbGUubWFlPic=

>  <r_epik_Ionization_Penalty>  (315) 
0.0138186

>  <r_epik_Ionization_Penalty_Charging>  (315) 
0.0138186

>  <r_epik_Ionization_Penalty_Neutral>  (315) 
2.1006e-09

>  <r_epik_State_Penalty>  (315) 
0.0107725

>  <r_epik_Charging_Adjusted_Penalty>  (315) 
0.0245911

>  <i_epik_Tot_Q>  (315) 
-1

>  <i_epik_Tot_abs_Q>  (315) 
1

>  <s_epik_Chemistry_Notes>  (315) 
This compound has an ester and may undergo hydrolysis at high or low pH.

>  <s_lp_Force_Field>  (315) 
OPLS3e

>  <r_lp_Energy>  (315) 
167.85

>  <b_lp_Chiralities_Consistent>  (315) 
1

>  <s_lp_Variant>  (315) 
103:0-1

>  <s_i_glide_gridfile>  (315) 
pfpi4k_grid

>  <i_i_glide_lignum>  (315) 
18

>  <i_i_glide_rotatable_bonds>  (315) 
2

>  <r_i_docking_score>  (315) 
-2.76961

>  <r_i_glide_ligand_efficiency>  (315) 
-0.131886

>  <r_i_glide_ligand_efficiency_sa>  (315) 
-0.363864

>  <r_i_glide_ligand_efficiency_ln>  (315) 
-0.684781

>  <r_i_glide_gscore>  (315) 
-2.76961

>  <r_i_glide_lipo>  (315) 
-0.0792662

>  <r_i_glide_hbond>  (315) 
0

>  <r_i_glide_metal>  (315) 
-0

>  <r_i_glide_rewards>  (315) 
-1.46406

>  <r_i_glide_evdw>  (315) 
-16.738

>  <r_i_glide_ecoul>  (315) 
-2.35641

>  <r_i_glide_erotb>  (315) 
0

>  <r_i_glide_esite>  (315) 
-0.0359276

>  <r_i_glide_emodel>  (315) 
-23.8296

>  <r_i_glide_energy>  (315) 
-19.0944

>  <r_i_glide_einternal>  (315) 
0.981763

>  <r_i_glide_intrahb_reward>  (315) 
-0

>  <i_i_glide_confnum>  (315) 
2

>  <i_i_glide_posenum>  (315) 
15

>  <r_i_glide_eff_state_penalty>  (315) 
0

>  <ligand_id>  (315) 
103

>  <original_smiles>  (315) 
COC(=O)C1=COC23CCC1=C1C=CC(=O)C(CC12)C3=O

>  <smiles>  (315) 
[H]C1=C(C(=O)OC([H])([H])[H])C2=C3C([H])=C([H])C([O-])=C4C(=O)C(O1)(C([H])([H])C2([H])[H])C3([H])C4([H])[H]

$$$$
103:1:0
     RDKit          3D

 35 38  0  0  1  0  0  0  0  0999 V2000
    3.3131   -0.1261   -5.0535 C   0  0  0  0  0  0  0  0  0  0  0  0
    3.8237   -0.5351   -3.7945 O   0  0  0  0  0  0  0  0  0  0  0  0
    3.8362   -1.8398   -3.4536 C   0  0  0  0  0  0  0  0  0  0  0  0
    3.6353   -2.7529   -4.2537 O   0  0  0  0  0  0  0  0  0  0  0  0
    4.1078   -2.0530   -1.9966 C   0  0  0  0  0  0  0  0  0  0  0  0
    4.4160   -0.9950   -1.1833 C   0  0  0  0  0  0  0  0  0  0  0  0
    4.7031   -1.0176    0.1900 O   0  0  0  0  0  0  0  0  0  0  0  0
    4.6893   -2.3266    0.7396 C   0  0  1  0  0  0  0  0  0  0  0  0
    3.1711   -2.8326    0.7136 C   0  0  0  0  0  0  0  0  0  0  0  0
    2.7492   -3.5103   -0.6169 C   0  0  0  0  0  0  0  0  0  0  0  0
    3.9716   -3.4382   -1.4941 C   0  0  0  0  0  0  0  0  0  0  0  0
    5.0126   -4.0719   -0.8838 C   0  0  0  0  0  0  0  0  0  0  0  0
    4.8592   -5.4313   -0.3168 C   0  0  0  0  0  0  0  0  0  0  0  0
    4.9769   -5.8239    0.9865 C   0  0  0  0  0  0  0  0  0  0  0  0
    5.1613   -4.9607    2.1556 C   0  0  0  0  0  0  0  0  0  0  0  0
    4.2849   -5.0992    3.1579 O   0  0  0  0  0  0  0  0  0  0  0  0
    5.9528   -3.8601    2.0808 C   0  0  0  0  0  0  0  0  0  0  0  0
    6.8152   -3.6741    0.8742 C   0  0  0  0  0  0  0  0  0  0  0  0
    5.8018   -3.0836   -0.0998 C   0  0  2  0  0  0  0  0  0  0  0  0
    5.2269   -2.5745    2.1432 C   0  0  0  0  0  0  0  0  0  0  0  0
    5.0142   -1.8617    3.1221 O   0  0  0  0  0  0  0  0  0  0  0  0
    3.4175    0.9532   -5.1659 H   0  0  0  0  0  0  0  0  0  0  0  0
    2.2505   -0.3606   -5.1182 H   0  0  0  0  0  0  0  0  0  0  0  0
    3.8134   -0.6085   -5.8933 H   0  0  0  0  0  0  0  0  0  0  0  0
    4.4967    0.0140   -1.5365 H   0  0  0  0  0  0  0  0  0  0  0  0
    2.9628   -3.5285    1.5261 H   0  0  0  0  0  0  0  0  0  0  0  0
    2.5163   -1.9840    0.9156 H   0  0  0  0  0  0  0  0  0  0  0  0
    2.4077   -4.5330   -0.4685 H   0  0  0  0  0  0  0  0  0  0  0  0
    1.9272   -2.9735   -1.0872 H   0  0  0  0  0  0  0  0  0  0  0  0
    4.6578   -6.2104   -1.0310 H   0  0  0  0  0  0  0  0  0  0  0  0
    4.8507   -6.8816    1.1840 H   0  0  0  0  0  0  0  0  0  0  0  0
    7.5775   -2.9338    1.1147 H   0  0  0  0  0  0  0  0  0  0  0  0
    7.3293   -4.5756    0.5238 H   0  0  0  0  0  0  0  0  0  0  0  0
    6.3824   -2.4485   -0.7720 H   0  0  0  0  0  0  0  0  0  0  0  0
    4.3701   -4.3270    3.7020 H   0  0  0  0  0  0  0  0  0  0  0  0
  1  2  1  0
  1 22  1  0
  1 23  1  0
  1 24  1  0
  2  3  1  0
  3  4  2  0
  3  5  1  0
  5 11  1  0
  5  6  2  0
  6  7  1  0
  6 25  1  0
  7  8  1  0
  8 19  1  0
  8 20  1  1
  8  9  1  0
  9 10  1  0
  9 26  1  0
  9 27  1  0
 10 11  1  0
 10 28  1  0
 10 29  1  0
 11 12  2  0
 12 19  1  0
 12 13  1  0
 13 14  2  0
 13 30  1  0
 14 15  1  0
 14 31  1  0
 15 16  1  0
 15 17  2  0
 16 35  1  0
 17 18  1  0
 17 20  1  0
 18 19  1  0
 18 32  1  0
 18 33  1  0
 19 34  1  6
 20 21  2  0
M  END
>  <i_m_ct_stereo_status>  (316) 
1

>  <s_m_source_file>  (316) 
/var/tmp/pbs.5076255.sched01/tmpux3k924y/120tsqzh4i4.sdf

>  <i_m_source_file_index>  (316) 
19

>  <i_lp_mmshare_version>  (316) 
48012

>  <i_f3d_flags>  (316) 
0

>  <s_epik_input>  (316) 
W0NIM11PQyg9TylDKD1bQ0hdTzEpQyhbQ0gyXVtDSDJdMik9QyhbQ0BIXTNbQ0BAXTEyNClbQ0hdPVtDSF1DKD1PKVtDQEBIXShbQ0gyXTMpQzQ9Tw==

>  <s_epik_cmdline>  (316) 
J2VwaWtfcHl0aG9uJywgJy1waHQnLCAnMi4wJywgJy1waCcsICc3LjAnLCAnLXRuJywgJzgnLCAnLW1hJywgJzIwMCcsICctaW1hZScsICc8aW5maWxlLm1hZT4nLCAnLW9tYWUnLCAnPG91dGZpbGUubWFlPic=

>  <r_epik_Ionization_Penalty>  (316) 
2.23379

>  <r_epik_Ionization_Penalty_Charging>  (316) 
0

>  <r_epik_Ionization_Penalty_Neutral>  (316) 
2.23379

>  <r_epik_State_Penalty>  (316) 
2.37967

>  <r_epik_Charging_Adjusted_Penalty>  (316) 
2.37967

>  <i_epik_Tot_Q>  (316) 
0

>  <i_epik_Tot_abs_Q>  (316) 
0

>  <s_epik_Chemistry_Notes>  (316) 
This compound has an ester and may undergo hydrolysis at high or low pH.

>  <s_lp_Force_Field>  (316) 
OPLS3e

>  <r_lp_Energy>  (316) 
164.056

>  <b_lp_Chiralities_Consistent>  (316) 
1

>  <s_lp_Variant>  (316) 
103:0-2

>  <s_i_glide_gridfile>  (316) 
pfpi4k_grid

>  <i_i_glide_lignum>  (316) 
19

>  <i_i_glide_rotatable_bonds>  (316) 
3

>  <r_i_docking_score>  (316) 
-3.92404

>  <r_i_glide_ligand_efficiency>  (316) 
-0.186859

>  <r_i_glide_ligand_efficiency_sa>  (316) 
-0.51553

>  <r_i_glide_ligand_efficiency_ln>  (316) 
-0.97021

>  <r_i_glide_gscore>  (316) 
-3.92404

>  <r_i_glide_lipo>  (316) 
-0.449823

>  <r_i_glide_hbond>  (316) 
-0.302589

>  <r_i_glide_metal>  (316) 
-0

>  <r_i_glide_rewards>  (316) 
-1.7778

>  <r_i_glide_evdw>  (316) 
-27.5244

>  <r_i_glide_ecoul>  (316) 
-1.59439

>  <r_i_glide_erotb>  (316) 
0.221551

>  <r_i_glide_esite>  (316) 
0

>  <r_i_glide_emodel>  (316) 
-35.2356

>  <r_i_glide_energy>  (316) 
-29.1188

>  <r_i_glide_einternal>  (316) 
1.27716

>  <r_i_glide_intrahb_reward>  (316) 
-0

>  <i_i_glide_confnum>  (316) 
4

>  <i_i_glide_posenum>  (316) 
7

>  <r_i_glide_eff_state_penalty>  (316) 
0

>  <ligand_id>  (316) 
103

>  <original_smiles>  (316) 
COC(=O)C1=COC23CCC1=C1C=CC(=O)C(CC12)C3=O

>  <smiles>  (316) 
[H]OC1=C2C(=O)C34OC([H])=C(C(=O)OC([H])([H])[H])C(=C(C([H])=C1[H])C3([H])C2([H])[H])C([H])([H])C4([H])[H]

$$$$
103:1:1
     RDKit          3D

 35 38  0  0  1  0  0  0  0  0999 V2000
    3.5462   -2.0245   -3.8880 C   0  0  0  0  0  0  0  0  0  0  0  0
    3.8830   -2.6090   -2.6382 O   0  0  0  0  0  0  0  0  0  0  0  0
    4.5454   -1.8865   -1.7139 C   0  0  0  0  0  0  0  0  0  0  0  0
    5.0172   -0.7668   -1.9302 O   0  0  0  0  0  0  0  0  0  0  0  0
    4.6517   -2.5827   -0.3930 C   0  0  0  0  0  0  0  0  0  0  0  0
    5.1219   -1.8916    0.6911 C   0  0  0  0  0  0  0  0  0  0  0  0
    5.3102   -2.3757    2.0020 O   0  0  0  0  0  0  0  0  0  0  0  0
    4.9878   -3.7581    2.1384 C   0  0  1  0  0  0  0  0  0  0  0  0
    3.4002   -3.8927    1.9605 C   0  0  0  0  0  0  0  0  0  0  0  0
    2.9295   -4.0368    0.4918 C   0  0  0  0  0  0  0  0  0  0  0  0
    4.1947   -3.9891   -0.3200 C   0  0  0  0  0  0  0  0  0  0  0  0
    5.0388   -4.9815    0.0696 C   0  0  0  0  0  0  0  0  0  0  0  0
    4.5769   -6.3802    0.1976 C   0  0  0  0  0  0  0  0  0  0  0  0
    4.5249   -7.1508    1.3179 C   0  0  0  0  0  0  0  0  0  0  0  0
    4.8065   -6.7328    2.6937 C   0  0  0  0  0  0  0  0  0  0  0  0
    3.8563   -6.9690    3.6081 O   0  0  0  0  0  0  0  0  0  0  0  0
    5.8228   -5.8652    2.9634 C   0  0  0  0  0  0  0  0  0  0  0  0
    6.7741   -5.5200    1.8642 C   0  0  0  0  0  0  0  0  0  0  0  0
    5.9680   -4.4647    1.1124 C   0  0  2  0  0  0  0  0  0  0  0  0
    5.3654   -4.5280    3.4018 C   0  0  0  0  0  0  0  0  0  0  0  0
    5.2399   -4.0996    4.5441 O   0  0  0  0  0  0  0  0  0  0  0  0
    3.0315   -2.7514   -4.5162 H   0  0  0  0  0  0  0  0  0  0  0  0
    4.4331   -1.6857   -4.4257 H   0  0  0  0  0  0  0  0  0  0  0  0
    2.8782   -1.1719   -3.7573 H   0  0  0  0  0  0  0  0  0  0  0  0
    5.4240   -0.8632    0.6305 H   0  0  0  0  0  0  0  0  0  0  0  0
    2.9999   -4.7343    2.5260 H   0  0  0  0  0  0  0  0  0  0  0  0
    2.9295   -3.0197    2.4095 H   0  0  0  0  0  0  0  0  0  0  0  0
    2.3712   -4.9540    0.3223 H   0  0  0  0  0  0  0  0  0  0  0  0
    2.2813   -3.2065    0.2133 H   0  0  0  0  0  0  0  0  0  0  0  0
    4.2705   -6.8497   -0.7219 H   0  0  0  0  0  0  0  0  0  0  0  0
    4.1651   -8.1656    1.1925 H   0  0  0  0  0  0  0  0  0  0  0  0
    7.6560   -5.0736    2.3197 H   0  0  0  0  0  0  0  0  0  0  0  0
    7.1124   -6.3720    1.2639 H   0  0  0  0  0  0  0  0  0  0  0  0
    6.7124   -3.8038    0.6615 H   0  0  0  0  0  0  0  0  0  0  0  0
    4.0745   -6.4513    4.3746 H   0  0  0  0  0  0  0  0  0  0  0  0
  1  2  1  0
  1 22  1  0
  1 23  1  0
  1 24  1  0
  2  3  1  0
  3  4  2  0
  3  5  1  0
  5 11  1  0
  5  6  2  0
  6  7  1  0
  6 25  1  0
  7  8  1  0
  8 19  1  0
  8 20  1  1
  8  9  1  0
  9 10  1  0
  9 26  1  0
  9 27  1  0
 10 11  1  0
 10 28  1  0
 10 29  1  0
 11 12  2  0
 12 19  1  0
 12 13  1  0
 13 14  2  0
 13 30  1  0
 14 15  1  0
 14 31  1  0
 15 16  1  0
 15 17  2  0
 16 35  1  0
 17 18  1  0
 17 20  1  0
 18 19  1  0
 18 32  1  0
 18 33  1  0
 19 34  1  6
 20 21  2  0
M  END
>  <i_m_ct_stereo_status>  (317) 
1

>  <s_m_source_file>  (317) 
/var/tmp/pbs.5076255.sched01/tmpux3k924y/120tsqzh4i4.sdf

>  <i_m_source_file_index>  (317) 
19

>  <i_lp_mmshare_version>  (317) 
48012

>  <i_f3d_flags>  (317) 
0

>  <s_epik_input>  (317) 
W0NIM11PQyg9TylDKD1bQ0hdTzEpQyhbQ0gyXVtDSDJdMik9QyhbQ0BIXTNbQ0BAXTEyNClbQ0hdPVtDSF1DKD1PKVtDQEBIXShbQ0gyXTMpQzQ9Tw==

>  <s_epik_cmdline>  (317) 
J2VwaWtfcHl0aG9uJywgJy1waHQnLCAnMi4wJywgJy1waCcsICc3LjAnLCAnLXRuJywgJzgnLCAnLW1hJywgJzIwMCcsICctaW1hZScsICc8aW5maWxlLm1hZT4nLCAnLW9tYWUnLCAnPG91dGZpbGUubWFlPic=

>  <r_epik_Ionization_Penalty>  (317) 
2.23379

>  <r_epik_Ionization_Penalty_Charging>  (317) 
0

>  <r_epik_Ionization_Penalty_Neutral>  (317) 
2.23379

>  <r_epik_State_Penalty>  (317) 
2.37967

>  <r_epik_Charging_Adjusted_Penalty>  (317) 
2.37967

>  <i_epik_Tot_Q>  (317) 
0

>  <i_epik_Tot_abs_Q>  (317) 
0

>  <s_epik_Chemistry_Notes>  (317) 
This compound has an ester and may undergo hydrolysis at high or low pH.

>  <s_lp_Force_Field>  (317) 
OPLS3e

>  <r_lp_Energy>  (317) 
164.056

>  <b_lp_Chiralities_Consistent>  (317) 
1

>  <s_lp_Variant>  (317) 
103:0-2

>  <s_i_glide_gridfile>  (317) 
pfpi4k_grid

>  <i_i_glide_lignum>  (317) 
19

>  <i_i_glide_rotatable_bonds>  (317) 
3

>  <r_i_docking_score>  (317) 
-2.99265

>  <r_i_glide_ligand_efficiency>  (317) 
-0.142507

>  <r_i_glide_ligand_efficiency_sa>  (317) 
-0.393166

>  <r_i_glide_ligand_efficiency_ln>  (317) 
-0.739926

>  <r_i_glide_gscore>  (317) 
-2.99265

>  <r_i_glide_lipo>  (317) 
-0.575232

>  <r_i_glide_hbond>  (317) 
0

>  <r_i_glide_metal>  (317) 
-0

>  <r_i_glide_rewards>  (317) 
-1.46787

>  <r_i_glide_evdw>  (317) 
-23.4986

>  <r_i_glide_ecoul>  (317) 
0.23529

>  <r_i_glide_erotb>  (317) 
0.221551

>  <r_i_glide_esite>  (317) 
-0.0314649

>  <r_i_glide_emodel>  (317) 
-28.1466

>  <r_i_glide_energy>  (317) 
-23.2633

>  <r_i_glide_einternal>  (317) 
0.426572

>  <r_i_glide_intrahb_reward>  (317) 
-0

>  <i_i_glide_confnum>  (317) 
1

>  <i_i_glide_posenum>  (317) 
13

>  <r_i_glide_eff_state_penalty>  (317) 
0

>  <ligand_id>  (317) 
103

>  <original_smiles>  (317) 
COC(=O)C1=COC23CCC1=C1C=CC(=O)C(CC12)C3=O

>  <smiles>  (317) 
[H]OC1=C2C(=O)C34OC([H])=C(C(=O)OC([H])([H])[H])C(=C(C([H])=C1[H])C3([H])C2([H])[H])C([H])([H])C4([H])[H]

$$$$
103:1:2
     RDKit          3D

 35 38  0  0  1  0  0  0  0  0999 V2000
    5.2860   -7.8812    4.4087 C   0  0  0  0  0  0  0  0  0  0  0  0
    5.1951   -7.1464    3.1947 O   0  0  0  0  0  0  0  0  0  0  0  0
    4.8638   -5.8367    3.2120 C   0  0  0  0  0  0  0  0  0  0  0  0
    4.6415   -5.2047    4.2459 O   0  0  0  0  0  0  0  0  0  0  0  0
    4.7750   -5.2342    1.8500 C   0  0  0  0  0  0  0  0  0  0  0  0
    5.0268   -5.9899    0.7303 C   0  0  0  0  0  0  0  0  0  0  0  0
    5.0150   -5.5540   -0.6018 O   0  0  0  0  0  0  0  0  0  0  0  0
    4.7475   -4.1660   -0.7685 C   0  0  1  0  0  0  0  0  0  0  0  0
    3.2206   -3.9557   -0.3426 C   0  0  0  0  0  0  0  0  0  0  0  0
    2.9973   -3.7338    1.1787 C   0  0  0  0  0  0  0  0  0  0  0  0
    4.3719   -3.8115    1.7841 C   0  0  0  0  0  0  0  0  0  0  0  0
    5.1827   -2.8690    1.2219 C   0  0  0  0  0  0  0  0  0  0  0  0
    4.7513   -1.4599    1.0927 C   0  0  0  0  0  0  0  0  0  0  0  0
    4.5431   -0.7419   -0.0502 C   0  0  0  0  0  0  0  0  0  0  0  0
    4.6063   -1.2307   -1.4378 C   0  0  0  0  0  0  0  0  0  0  0  0
    3.5173   -1.0635   -2.2044 O   0  0  0  0  0  0  0  0  0  0  0  0
    5.5228   -2.1553   -1.7865 C   0  0  0  0  0  0  0  0  0  0  0  0
    6.6353   -2.4978   -0.8538 C   0  0  0  0  0  0  0  0  0  0  0  0
    5.9096   -3.4723    0.0604 C   0  0  2  0  0  0  0  0  0  0  0  0
    4.9758   -3.4785   -2.1274 C   0  0  0  0  0  0  0  0  0  0  0  0
    4.6726   -3.9055   -3.2424 O   0  0  0  0  0  0  0  0  0  0  0  0
    5.5548   -8.9147    4.1891 H   0  0  0  0  0  0  0  0  0  0  0  0
    4.3352   -7.8934    4.9450 H   0  0  0  0  0  0  0  0  0  0  0  0
    6.0521   -7.4688    5.0651 H   0  0  0  0  0  0  0  0  0  0  0  0
    5.3083   -7.0294    0.7643 H   0  0  0  0  0  0  0  0  0  0  0  0
    2.7565   -3.1288   -0.8793 H   0  0  0  0  0  0  0  0  0  0  0  0
    2.6480   -4.8279   -0.6645 H   0  0  0  0  0  0  0  0  0  0  0  0
    2.5024   -2.7826    1.3818 H   0  0  0  0  0  0  0  0  0  0  0  0
    2.3617   -4.5213    1.5917 H   0  0  0  0  0  0  0  0  0  0  0  0
    4.6127   -0.9287    2.0168 H   0  0  0  0  0  0  0  0  0  0  0  0
    4.2548    0.2888    0.0832 H   0  0  0  0  0  0  0  0  0  0  0  0
    7.4178   -3.0096   -1.4247 H   0  0  0  0  0  0  0  0  0  0  0  0
    7.0887   -1.6448   -0.3455 H   0  0  0  0  0  0  0  0  0  0  0  0
    6.6819   -4.1520    0.4210 H   0  0  0  0  0  0  0  0  0  0  0  0
    2.8359   -0.6787   -1.6670 H   0  0  0  0  0  0  0  0  0  0  0  0
  1  2  1  0
  1 22  1  0
  1 23  1  0
  1 24  1  0
  2  3  1  0
  3  4  2  0
  3  5  1  0
  5 11  1  0
  5  6  2  0
  6  7  1  0
  6 25  1  0
  7  8  1  0
  8 19  1  0
  8 20  1  6
  8  9  1  0
  9 10  1  0
  9 26  1  0
  9 27  1  0
 10 11  1  0
 10 28  1  0
 10 29  1  0
 11 12  2  0
 12 19  1  0
 12 13  1  0
 13 14  2  0
 13 30  1  0
 14 15  1  0
 14 31  1  0
 15 16  1  0
 15 17  2  0
 16 35  1  0
 17 18  1  0
 17 20  1  0
 18 19  1  0
 18 32  1  0
 18 33  1  0
 19 34  1  1
 20 21  2  0
M  END
>  <i_m_ct_stereo_status>  (318) 
1

>  <s_m_source_file>  (318) 
/var/tmp/pbs.5076255.sched01/tmpux3k924y/120tsqzh4i4.sdf

>  <i_m_source_file_index>  (318) 
19

>  <i_lp_mmshare_version>  (318) 
48012

>  <i_f3d_flags>  (318) 
0

>  <s_epik_input>  (318) 
W0NIM11PQyg9TylDKD1bQ0hdTzEpQyhbQ0gyXVtDSDJdMik9QyhbQ0BIXTNbQ0BAXTEyNClbQ0hdPVtDSF1DKD1PKVtDQEBIXShbQ0gyXTMpQzQ9Tw==

>  <s_epik_cmdline>  (318) 
J2VwaWtfcHl0aG9uJywgJy1waHQnLCAnMi4wJywgJy1waCcsICc3LjAnLCAnLXRuJywgJzgnLCAnLW1hJywgJzIwMCcsICctaW1hZScsICc8aW5maWxlLm1hZT4nLCAnLW9tYWUnLCAnPG91dGZpbGUubWFlPic=

>  <r_epik_Ionization_Penalty>  (318) 
2.23379

>  <r_epik_Ionization_Penalty_Charging>  (318) 
0

>  <r_epik_Ionization_Penalty_Neutral>  (318) 
2.23379

>  <r_epik_State_Penalty>  (318) 
2.37967

>  <r_epik_Charging_Adjusted_Penalty>  (318) 
2.37967

>  <i_epik_Tot_Q>  (318) 
0

>  <i_epik_Tot_abs_Q>  (318) 
0

>  <s_epik_Chemistry_Notes>  (318) 
This compound has an ester and may undergo hydrolysis at high or low pH.

>  <s_lp_Force_Field>  (318) 
OPLS3e

>  <r_lp_Energy>  (318) 
164.056

>  <b_lp_Chiralities_Consistent>  (318) 
1

>  <s_lp_Variant>  (318) 
103:0-2

>  <s_i_glide_gridfile>  (318) 
pfpi4k_grid

>  <i_i_glide_lignum>  (318) 
19

>  <i_i_glide_rotatable_bonds>  (318) 
3

>  <r_i_docking_score>  (318) 
-2.98087

>  <r_i_glide_ligand_efficiency>  (318) 
-0.141946

>  <r_i_glide_ligand_efficiency_sa>  (318) 
-0.391618

>  <r_i_glide_ligand_efficiency_ln>  (318) 
-0.737013

>  <r_i_glide_gscore>  (318) 
-2.98087

>  <r_i_glide_lipo>  (318) 
-0.296389

>  <r_i_glide_hbond>  (318) 
0

>  <r_i_glide_metal>  (318) 
-0

>  <r_i_glide_rewards>  (318) 
-1.57182

>  <r_i_glide_evdw>  (318) 
-23.8309

>  <r_i_glide_ecoul>  (318) 
-0.951083

>  <r_i_glide_erotb>  (318) 
0.221551

>  <r_i_glide_esite>  (318) 
0

>  <r_i_glide_emodel>  (318) 
-29.5954

>  <r_i_glide_energy>  (318) 
-24.782

>  <r_i_glide_einternal>  (318) 
0.720943

>  <r_i_glide_intrahb_reward>  (318) 
-0

>  <i_i_glide_confnum>  (318) 
4

>  <i_i_glide_posenum>  (318) 
9

>  <r_i_glide_eff_state_penalty>  (318) 
0

>  <ligand_id>  (318) 
103

>  <original_smiles>  (318) 
COC(=O)C1=COC23CCC1=C1C=CC(=O)C(CC12)C3=O

>  <smiles>  (318) 
[H]OC1=C2C(=O)C34OC([H])=C(C(=O)OC([H])([H])[H])C(=C(C([H])=C1[H])C3([H])C2([H])[H])C([H])([H])C4([H])[H]

$$$$
104:0:0
     RDKit          3D

 54 57  0  0  1  0  0  0  0  0999 V2000
    3.4126   -9.2120    1.0118 C   0  0  0  0  0  0  0  0  0  0  0  0
    4.4520   -8.2624    0.8082 O   0  0  0  0  0  0  0  0  0  0  0  0
    4.8103   -7.5475    1.9887 C   0  0  0  0  0  0  0  0  0  0  0  0
    3.8324   -6.4079    2.2765 C   0  0  0  0  0  0  0  0  0  0  0  0
    2.8898   -6.4318    3.2267 C   0  0  0  0  0  0  0  0  0  0  0  0
    2.1034   -5.1492    3.1412 C   0  0  1  0  0  0  0  0  0  0  0  0
    3.0684   -4.0639    3.6280 C   0  0  0  0  0  0  0  0  0  0  0  0
    2.9947   -3.4880    4.7132 O   0  0  0  0  0  0  0  0  0  0  0  0
    4.1641   -3.8487    2.5583 C   0  0  2  0  0  0  0  0  0  0  0  0
    5.5474   -4.1727    3.1954 C   0  0  0  0  0  0  0  0  0  0  0  0
    4.1374   -2.3461    1.9654 C   0  0  0  0  0  0  0  0  0  0  0  0
    2.7366   -1.6370    1.9607 C   0  0  0  0  0  0  0  0  0  0  0  0
    4.9613   -1.3625    2.8505 C   0  0  0  0  0  0  0  0  0  0  0  0
    4.7653   -2.3205    0.5481 C   0  0  2  0  0  0  0  0  0  0  0  0
    4.2068   -1.4687   -0.6176 C   0  0  1  0  0  0  0  0  0  0  0  0
    5.1721   -0.6698   -1.2807 O   0  0  0  0  0  0  0  0  0  0  0  0
    3.7041   -2.7630   -1.3258 C   0  0  1  0  0  0  0  0  0  0  0  0
    2.3371   -3.0593   -1.0842 O   0  0  0  0  0  0  0  0  0  0  0  0
    3.8861   -2.8789   -2.8544 C   0  0  0  0  0  0  0  0  0  0  0  0
    4.6132   -4.0368   -3.2248 O   0  0  0  0  0  0  0  0  0  0  0  0
    4.6580   -3.5247   -0.3905 C   0  0  2  0  0  0  0  0  0  0  0  0
    4.3698   -4.9380    0.1287 C   0  0  1  0  0  0  0  0  0  0  0  0
    5.6417   -5.5411    0.0835 O   0  0  0  0  0  0  0  0  0  0  0  0
    3.7528   -5.0292    1.5578 C   0  0  1  0  0  0  0  0  0  0  0  0
    2.2006   -4.9018    1.6253 C   0  0  1  0  0  0  0  0  0  0  0  0
    1.4476   -5.8636    0.8826 O   0  0  0  0  0  0  0  0  0  0  0  0
    3.1921   -9.7358    0.0828 H   0  0  0  0  0  0  0  0  0  0  0  0
    2.4950   -8.7322    1.3500 H   0  0  0  0  0  0  0  0  0  0  0  0
    3.7026   -9.9661    1.7433 H   0  0  0  0  0  0  0  0  0  0  0  0
    4.8550   -8.2327    2.8398 H   0  0  0  0  0  0  0  0  0  0  0  0
    5.8286   -7.1680    1.9080 H   0  0  0  0  0  0  0  0  0  0  0  0
    2.6773   -7.2317    3.9190 H   0  0  0  0  0  0  0  0  0  0  0  0
    1.1082   -5.1438    3.5792 H   0  0  0  0  0  0  0  0  0  0  0  0
    6.3427   -4.1335    2.4524 H   0  0  0  0  0  0  0  0  0  0  0  0
    5.5870   -5.1561    3.6586 H   0  0  0  0  0  0  0  0  0  0  0  0
    5.7996   -3.4908    4.0068 H   0  0  0  0  0  0  0  0  0  0  0  0
    2.8365   -0.5676    1.7735 H   0  0  0  0  0  0  0  0  0  0  0  0
    2.2067   -1.6976    2.9088 H   0  0  0  0  0  0  0  0  0  0  0  0
    2.0633   -1.9638    1.1777 H   0  0  0  0  0  0  0  0  0  0  0  0
    4.9124   -0.3411    2.4678 H   0  0  0  0  0  0  0  0  0  0  0  0
    6.0255   -1.5985    2.8747 H   0  0  0  0  0  0  0  0  0  0  0  0
    4.5954   -1.3361    3.8763 H   0  0  0  0  0  0  0  0  0  0  0  0
    5.8363   -2.1272    0.6304 H   0  0  0  0  0  0  0  0  0  0  0  0
    3.3729   -0.8269   -0.3456 H   0  0  0  0  0  0  0  0  0  0  0  0
    5.0048    0.2466   -1.0648 H   0  0  0  0  0  0  0  0  0  0  0  0
    1.8606   -2.2218   -1.1102 H   0  0  0  0  0  0  0  0  0  0  0  0
    2.9321   -2.8645   -3.3840 H   0  0  0  0  0  0  0  0  0  0  0  0
    4.4533   -2.0413   -3.2497 H   0  0  0  0  0  0  0  0  0  0  0  0
    4.0895   -4.7872   -2.9546 H   0  0  0  0  0  0  0  0  0  0  0  0
    5.6006   -3.5155   -0.9363 H   0  0  0  0  0  0  0  0  0  0  0  0
    3.7368   -5.4835   -0.5681 H   0  0  0  0  0  0  0  0  0  0  0  0
    5.8151   -5.7821   -0.8153 H   0  0  0  0  0  0  0  0  0  0  0  0
    1.8212   -3.9372    1.3404 H   0  0  0  0  0  0  0  0  0  0  0  0
    1.8466   -6.7115    1.0216 H   0  0  0  0  0  0  0  0  0  0  0  0
  1  2  1  0
  1 27  1  0
  1 28  1  0
  1 29  1  0
  2  3  1  0
  3  4  1  0
  3 30  1  0
  3 31  1  0
 24  4  1  1
  4  5  2  0
  5  6  1  0
  5 32  1  0
  6 25  1  0
  6  7  1  0
  6 33  1  1
  7  8  2  0
  7  9  1  0
  9 24  1  0
  9 10  1  1
  9 11  1  0
 10 34  1  0
 10 35  1  0
 10 36  1  0
 11 12  1  0
 11 13  1  0
 11 14  1  0
 12 37  1  0
 12 38  1  0
 12 39  1  0
 13 40  1  0
 13 41  1  0
 13 42  1  0
 14 21  1  0
 14 15  1  0
 14 43  1  1
 15 16  1  0
 15 17  1  0
 15 44  1  1
 16 45  1  0
 17 18  1  6
 17 19  1  0
 17 21  1  0
 18 46  1  0
 19 20  1  0
 19 47  1  0
 19 48  1  0
 20 49  1  0
 21 22  1  0
 21 50  1  6
 22 23  1  0
 22 24  1  0
 22 51  1  6
 23 52  1  0
 24 25  1  0
 25 26  1  0
 25 53  1  1
 26 54  1  0
M  END
>  <i_m_ct_stereo_status>  (319) 
1

>  <s_m_source_file>  (319) 
/var/tmp/pbs.5076255.sched01/tmpux3k924y/120tsqzh4i4.sdf

>  <i_m_source_file_index>  (319) 
20

>  <i_lp_mmshare_version>  (319) 
48012

>  <i_f3d_flags>  (319) 
1

>  <s_epik_input>  (319) 
W0NIM11PW0NIMl1DMT1bQ0hdW0NIXShbQ0BASF0yW09IXSlDKD1PKVtDQF0oQzEyMykoW0NIM10pQyhbQ0gzXSkoW0NIM10pW0NASF00W0NAQEhdKFtDQEhdM1tPSF0pW0NAQF0oW09IXSkoW0NAQEhdNFtPSF0pW0NIMl1bT0hd

>  <s_epik_cmdline>  (319) 
J2VwaWtfcHl0aG9uJywgJy1waHQnLCAnMi4wJywgJy1waCcsICc3LjAnLCAnLXRuJywgJzgnLCAnLW1hJywgJzIwMCcsICctaW1hZScsICc8aW5maWxlLm1hZT4nLCAnLW9tYWUnLCAnPG91dGZpbGUubWFlPic=

>  <r_lp_tautomer_probability>  (319) 
1

>  <r_epik_Ionization_Penalty>  (319) 
1.03042e-06

>  <r_epik_Ionization_Penalty_Charging>  (319) 
0

>  <r_epik_Ionization_Penalty_Neutral>  (319) 
1.03042e-06

>  <r_epik_State_Penalty>  (319) 
-0

>  <r_epik_Charging_Adjusted_Penalty>  (319) 
0

>  <i_epik_Tot_Q>  (319) 
0

>  <i_epik_Tot_abs_Q>  (319) 
0

>  <s_lp_Force_Field>  (319) 
OPLS3e

>  <r_lp_Energy>  (319) 
76.6503

>  <b_lp_Chiralities_Consistent>  (319) 
1

>  <s_lp_Variant>  (319) 
104:0-1

>  <s_i_glide_gridfile>  (319) 
pfpi4k_grid

>  <i_i_glide_lignum>  (319) 
20

>  <i_i_glide_rotatable_bonds>  (319) 
8

>  <r_i_docking_score>  (319) 
-4.68923

>  <r_i_glide_ligand_efficiency>  (319) 
-0.180355

>  <r_i_glide_ligand_efficiency_sa>  (319) 
-0.534301

>  <r_i_glide_ligand_efficiency_ln>  (319) 
-1.10125

>  <r_i_glide_gscore>  (319) 
-4.68923

>  <r_i_glide_lipo>  (319) 
-0.219199

>  <r_i_glide_hbond>  (319) 
-0.421306

>  <r_i_glide_metal>  (319) 
-0

>  <r_i_glide_rewards>  (319) 
-0.897185

>  <r_i_glide_evdw>  (319) 
-18.2676

>  <r_i_glide_ecoul>  (319) 
-16.8139

>  <r_i_glide_erotb>  (319) 
0.283932

>  <r_i_glide_esite>  (319) 
0

>  <r_i_glide_emodel>  (319) 
-42.9658

>  <r_i_glide_energy>  (319) 
-35.0815

>  <r_i_glide_einternal>  (319) 
7.01507

>  <r_i_glide_intrahb_reward>  (319) 
-0

>  <i_i_glide_confnum>  (319) 
3

>  <i_i_glide_posenum>  (319) 
5

>  <r_i_glide_eff_state_penalty>  (319) 
0

>  <ligand_id>  (319) 
104

>  <original_smiles>  (319) 
COCC1=CC2C(=O)C3(C)C(C)(C)C4C(O)C(O)(CO)C4C(O)C13C2O

>  <smiles>  (319) 
[H]OC([H])([H])C1(O[H])C([H])(O[H])C2([H])C1([H])C([H])(O[H])C13C(C([H])([H])OC([H])([H])[H])=C([H])C([H])(C(=O)C1(C([H])([H])[H])C2(C([H])([H])[H])C([H])([H])[H])C3([H])O[H]

$$$$
104:0:1
     RDKit          3D

 54 57  0  0  1  0  0  0  0  0999 V2000
    3.6149   -9.1387    0.8934 C   0  0  0  0  0  0  0  0  0  0  0  0
    4.6471   -8.1627    0.8935 O   0  0  0  0  0  0  0  0  0  0  0  0
    4.7697   -7.4598    2.1267 C   0  0  0  0  0  0  0  0  0  0  0  0
    3.7533   -6.3319    2.2414 C   0  0  0  0  0  0  0  0  0  0  0  0
    2.6909   -6.3480    3.0632 C   0  0  0  0  0  0  0  0  0  0  0  0
    1.9102   -5.0813    2.8348 C   0  0  1  0  0  0  0  0  0  0  0  0
    2.7811   -3.9722    3.4265 C   0  0  0  0  0  0  0  0  0  0  0  0
    2.5557   -3.3710    4.4751 O   0  0  0  0  0  0  0  0  0  0  0  0
    4.0140   -3.7647    2.5075 C   0  0  2  0  0  0  0  0  0  0  0  0
    5.3051   -4.0462    3.3239 C   0  0  0  0  0  0  0  0  0  0  0  0
    4.0449   -2.2798    1.8752 C   0  0  0  0  0  0  0  0  0  0  0  0
    2.6505   -1.5915    1.6774 C   0  0  0  0  0  0  0  0  0  0  0  0
    4.7324   -1.2604    2.8315 C   0  0  0  0  0  0  0  0  0  0  0  0
    4.8461   -2.2767    0.5473 C   0  0  2  0  0  0  0  0  0  0  0  0
    4.4135   -1.4571   -0.6926 C   0  0  1  0  0  0  0  0  0  0  0  0
    5.4205   -0.6677   -1.2623 O   0  0  0  0  0  0  0  0  0  0  0  0
    4.0186   -2.7580   -1.4341 C   0  0  1  0  0  0  0  0  0  0  0  0
    2.6356   -3.0592   -1.3828 O   0  0  0  0  0  0  0  0  0  0  0  0
    4.4268   -2.9333   -2.9020 C   0  0  0  0  0  0  0  0  0  0  0  0
    3.9323   -1.8873   -3.7160 O   0  0  0  0  0  0  0  0  0  0  0  0
    4.8642   -3.4968   -0.3748 C   0  0  2  0  0  0  0  0  0  0  0  0
    4.5537   -4.9082    0.1416 C   0  0  1  0  0  0  0  0  0  0  0  0
    5.8335   -5.4860    0.2935 O   0  0  0  0  0  0  0  0  0  0  0  0
    3.7562   -4.9707    1.4866 C   0  0  1  0  0  0  0  0  0  0  0  0
    2.2128   -4.8663    1.3405 C   0  0  1  0  0  0  0  0  0  0  0  0
    1.5945   -5.8535    0.5129 O   0  0  0  0  0  0  0  0  0  0  0  0
    3.5794   -9.6391   -0.0728 H   0  0  0  0  0  0  0  0  0  0  0  0
    2.6370   -8.6967    1.0847 H   0  0  0  0  0  0  0  0  0  0  0  0
    3.8035   -9.9069    1.6438 H   0  0  0  0  0  0  0  0  0  0  0  0
    4.6639   -8.1580    2.9649 H   0  0  0  0  0  0  0  0  0  0  0  0
    5.7826   -7.0640    2.2284 H   0  0  0  0  0  0  0  0  0  0  0  0
    2.3989   -7.1305    3.7427 H   0  0  0  0  0  0  0  0  0  0  0  0
    0.8637   -5.0851    3.1395 H   0  0  0  0  0  0  0  0  0  0  0  0
    6.1960   -4.0087    2.6977 H   0  0  0  0  0  0  0  0  0  0  0  0
    5.2979   -5.0161    3.8180 H   0  0  0  0  0  0  0  0  0  0  0  0
    5.4438   -3.3412    4.1440 H   0  0  0  0  0  0  0  0  0  0  0  0
    2.7566   -0.5266    1.4669 H   0  0  0  0  0  0  0  0  0  0  0  0
    1.9987   -1.6329    2.5491 H   0  0  0  0  0  0  0  0  0  0  0  0
    2.0913   -1.9565    0.8303 H   0  0  0  0  0  0  0  0  0  0  0  0
    4.7170   -0.2515    2.4155 H   0  0  0  0  0  0  0  0  0  0  0  0
    5.7849   -1.4755    3.0055 H   0  0  0  0  0  0  0  0  0  0  0  0
    4.2289   -1.2120    3.7974 H   0  0  0  0  0  0  0  0  0  0  0  0
    5.9000   -2.0678    0.7591 H   0  0  0  0  0  0  0  0  0  0  0  0
    3.5476   -0.8182   -0.5460 H   0  0  0  0  0  0  0  0  0  0  0  0
    5.1990    0.2524   -1.1133 H   0  0  0  0  0  0  0  0  0  0  0  0
    2.1627   -2.2524   -1.1987 H   0  0  0  0  0  0  0  0  0  0  0  0
    5.5146   -2.9376   -3.0120 H   0  0  0  0  0  0  0  0  0  0  0  0
    4.0745   -3.8890   -3.2884 H   0  0  0  0  0  0  0  0  0  0  0  0
    3.0043   -1.8062   -3.5511 H   0  0  0  0  0  0  0  0  0  0  0  0
    5.8637   -3.5006   -0.8243 H   0  0  0  0  0  0  0  0  0  0  0  0
    4.0385   -5.4917   -0.6235 H   0  0  0  0  0  0  0  0  0  0  0  0
    6.2800   -5.0751    1.0164 H   0  0  0  0  0  0  0  0  0  0  0  0
    1.8497   -3.9253    0.9736 H   0  0  0  0  0  0  0  0  0  0  0  0
    2.0272   -5.8288   -0.3285 H   0  0  0  0  0  0  0  0  0  0  0  0
  1  2  1  0
  1 27  1  0
  1 28  1  0
  1 29  1  0
  2  3  1  0
  3  4  1  0
  3 30  1  0
  3 31  1  0
 24  4  1  1
  4  5  2  0
  5  6  1  0
  5 32  1  0
  6 25  1  0
  6  7  1  0
  6 33  1  6
  7  8  2  0
  7  9  1  0
  9 24  1  0
  9 10  1  1
  9 11  1  0
 10 34  1  0
 10 35  1  0
 10 36  1  0
 11 12  1  0
 11 13  1  0
 11 14  1  0
 12 37  1  0
 12 38  1  0
 12 39  1  0
 13 40  1  0
 13 41  1  0
 13 42  1  0
 14 21  1  0
 14 15  1  0
 14 43  1  1
 15 16  1  0
 15 17  1  0
 15 44  1  1
 16 45  1  0
 17 18  1  6
 17 19  1  0
 17 21  1  0
 18 46  1  0
 19 20  1  0
 19 47  1  0
 19 48  1  0
 20 49  1  0
 21 22  1  0
 21 50  1  6
 22 23  1  0
 22 24  1  0
 22 51  1  6
 23 52  1  0
 24 25  1  0
 25 26  1  0
 25 53  1  6
 26 54  1  0
M  END
>  <i_m_ct_stereo_status>  (320) 
1

>  <s_m_source_file>  (320) 
/var/tmp/pbs.5076255.sched01/tmpux3k924y/120tsqzh4i4.sdf

>  <i_m_source_file_index>  (320) 
20

>  <i_lp_mmshare_version>  (320) 
48012

>  <i_f3d_flags>  (320) 
1

>  <s_epik_input>  (320) 
W0NIM11PW0NIMl1DMT1bQ0hdW0NIXShbQ0BASF0yW09IXSlDKD1PKVtDQF0oQzEyMykoW0NIM10pQyhbQ0gzXSkoW0NIM10pW0NASF00W0NAQEhdKFtDQEhdM1tPSF0pW0NAQF0oW09IXSkoW0NAQEhdNFtPSF0pW0NIMl1bT0hd

>  <s_epik_cmdline>  (320) 
J2VwaWtfcHl0aG9uJywgJy1waHQnLCAnMi4wJywgJy1waCcsICc3LjAnLCAnLXRuJywgJzgnLCAnLW1hJywgJzIwMCcsICctaW1hZScsICc8aW5maWxlLm1hZT4nLCAnLW9tYWUnLCAnPG91dGZpbGUubWFlPic=

>  <r_lp_tautomer_probability>  (320) 
1

>  <r_epik_Ionization_Penalty>  (320) 
1.03042e-06

>  <r_epik_Ionization_Penalty_Charging>  (320) 
0

>  <r_epik_Ionization_Penalty_Neutral>  (320) 
1.03042e-06

>  <r_epik_State_Penalty>  (320) 
-0

>  <r_epik_Charging_Adjusted_Penalty>  (320) 
0

>  <i_epik_Tot_Q>  (320) 
0

>  <i_epik_Tot_abs_Q>  (320) 
0

>  <s_lp_Force_Field>  (320) 
OPLS3e

>  <r_lp_Energy>  (320) 
76.6503

>  <b_lp_Chiralities_Consistent>  (320) 
1

>  <s_lp_Variant>  (320) 
104:0-1

>  <s_i_glide_gridfile>  (320) 
pfpi4k_grid

>  <i_i_glide_lignum>  (320) 
20

>  <i_i_glide_rotatable_bonds>  (320) 
8

>  <r_i_docking_score>  (320) 
-4.11642

>  <r_i_glide_ligand_efficiency>  (320) 
-0.158324

>  <r_i_glide_ligand_efficiency_sa>  (320) 
-0.469034

>  <r_i_glide_ligand_efficiency_ln>  (320) 
-0.966728

>  <r_i_glide_gscore>  (320) 
-4.11642

>  <r_i_glide_lipo>  (320) 
-0.289376

>  <r_i_glide_hbond>  (320) 
-0.127986

>  <r_i_glide_metal>  (320) 
-0

>  <r_i_glide_rewards>  (320) 
-0.897824

>  <r_i_glide_evdw>  (320) 
-21.9023

>  <r_i_glide_ecoul>  (320) 
-13.267

>  <r_i_glide_erotb>  (320) 
0.283932

>  <r_i_glide_esite>  (320) 
0

>  <r_i_glide_emodel>  (320) 
-42.5657

>  <r_i_glide_energy>  (320) 
-35.1693

>  <r_i_glide_einternal>  (320) 
5.39613

>  <r_i_glide_intrahb_reward>  (320) 
-0

>  <i_i_glide_confnum>  (320) 
3

>  <i_i_glide_posenum>  (320) 
1

>  <r_i_glide_eff_state_penalty>  (320) 
0

>  <ligand_id>  (320) 
104

>  <original_smiles>  (320) 
COCC1=CC2C(=O)C3(C)C(C)(C)C4C(O)C(O)(CO)C4C(O)C13C2O

>  <smiles>  (320) 
[H]OC([H])([H])C1(O[H])C([H])(O[H])C2([H])C1([H])C([H])(O[H])C13C(C([H])([H])OC([H])([H])[H])=C([H])C([H])(C(=O)C1(C([H])([H])[H])C2(C([H])([H])[H])C([H])([H])[H])C3([H])O[H]

$$$$
104:0:2
     RDKit          3D

 54 57  0  0  1  0  0  0  0  0999 V2000
    3.5744   -9.1044    1.0074 C   0  0  0  0  0  0  0  0  0  0  0  0
    4.6074   -8.1400    0.8523 O   0  0  0  0  0  0  0  0  0  0  0  0
    4.8834   -7.4019    2.0397 C   0  0  0  0  0  0  0  0  0  0  0  0
    3.8684   -6.2816    2.2570 C   0  0  0  0  0  0  0  0  0  0  0  0
    2.9074   -6.2868    3.1856 C   0  0  0  0  0  0  0  0  0  0  0  0
    2.0945   -5.0282    3.0303 C   0  0  1  0  0  0  0  0  0  0  0  0
    3.0177   -3.8988    3.4935 C   0  0  0  0  0  0  0  0  0  0  0  0
    2.9069   -3.2800    4.5501 O   0  0  0  0  0  0  0  0  0  0  0  0
    4.1333   -3.7038    2.4361 C   0  0  2  0  0  0  0  0  0  0  0  0
    5.5090   -3.9642    3.1162 C   0  0  0  0  0  0  0  0  0  0  0  0
    4.0866   -2.2281    1.7799 C   0  0  0  0  0  0  0  0  0  0  0  0
    2.6707   -1.5563    1.7135 C   0  0  0  0  0  0  0  0  0  0  0  0
    4.8661   -1.1889    2.6394 C   0  0  0  0  0  0  0  0  0  0  0  0
    4.7505   -2.2500    0.3763 C   0  0  2  0  0  0  0  0  0  0  0  0
    4.2050   -1.4414   -0.8237 C   0  0  1  0  0  0  0  0  0  0  0  0
    5.1762   -0.6549   -1.4890 O   0  0  0  0  0  0  0  0  0  0  0  0
    3.7205   -2.7584   -1.4959 C   0  0  1  0  0  0  0  0  0  0  0  0
    2.3579   -3.0736   -1.2939 O   0  0  0  0  0  0  0  0  0  0  0  0
    3.9631   -2.9592   -2.9993 C   0  0  0  0  0  0  0  0  0  0  0  0
    3.4722   -1.8773   -3.7632 O   0  0  0  0  0  0  0  0  0  0  0  0
    4.6720   -3.4837   -0.5258 C   0  0  2  0  0  0  0  0  0  0  0  0
    4.4104   -4.8851    0.0547 C   0  0  1  0  0  0  0  0  0  0  0  0
    5.7066   -5.4489    0.0840 O   0  0  0  0  0  0  0  0  0  0  0  0
    3.7653   -4.9302    1.4759 C   0  0  1  0  0  0  0  0  0  0  0  0
    2.2127   -4.8464    1.5084 C   0  0  1  0  0  0  0  0  0  0  0  0
    1.5006   -5.8588    0.7982 O   0  0  0  0  0  0  0  0  0  0  0  0
    3.4166   -9.6364    0.0720 H   0  0  0  0  0  0  0  0  0  0  0  0
    2.6293   -8.6401    1.2885 H   0  0  0  0  0  0  0  0  0  0  0  0
    3.8376   -9.8510    1.7574 H   0  0  0  0  0  0  0  0  0  0  0  0
    4.8911   -8.0768    2.9029 H   0  0  0  0  0  0  0  0  0  0  0  0
    5.8948   -6.9964    2.0048 H   0  0  0  0  0  0  0  0  0  0  0  0
    2.7004   -7.0618    3.9121 H   0  0  0  0  0  0  0  0  0  0  0  0
    1.0878   -5.0311    3.4476 H   0  0  0  0  0  0  0  0  0  0  0  0
    6.3181   -3.9394    2.3871 H   0  0  0  0  0  0  0  0  0  0  0  0
    5.5636   -4.9248    3.6245 H   0  0  0  0  0  0  0  0  0  0  0  0
    5.7359   -3.2419    3.9003 H   0  0  0  0  0  0  0  0  0  0  0  0
    2.7472   -0.4935    1.4819 H   0  0  0  0  0  0  0  0  0  0  0  0
    2.1206   -1.5890    2.6521 H   0  0  0  0  0  0  0  0  0  0  0  0
    2.0242   -1.9353    0.9329 H   0  0  0  0  0  0  0  0  0  0  0  0
    4.7998   -0.1869    2.2116 H   0  0  0  0  0  0  0  0  0  0  0  0
    5.9342   -1.3956    2.7007 H   0  0  0  0  0  0  0  0  0  0  0  0
    4.4730   -1.1278    3.6536 H   0  0  0  0  0  0  0  0  0  0  0  0
    5.8172   -2.0353    0.4743 H   0  0  0  0  0  0  0  0  0  0  0  0
    3.3515   -0.8031   -0.6045 H   0  0  0  0  0  0  0  0  0  0  0  0
    5.0152    0.2548   -1.2575 H   0  0  0  0  0  0  0  0  0  0  0  0
    1.8915   -2.2548   -1.1323 H   0  0  0  0  0  0  0  0  0  0  0  0
    5.0274   -3.0536   -3.2175 H   0  0  0  0  0  0  0  0  0  0  0  0
    3.4898   -3.8742   -3.3492 H   0  0  0  0  0  0  0  0  0  0  0  0
    2.5773   -1.7178   -3.4953 H   0  0  0  0  0  0  0  0  0  0  0  0
    5.6168   -3.4950   -1.0734 H   0  0  0  0  0  0  0  0  0  0  0  0
    3.8144   -5.4867   -0.6317 H   0  0  0  0  0  0  0  0  0  0  0  0
    5.9072   -5.7493   -0.7868 H   0  0  0  0  0  0  0  0  0  0  0  0
    1.8132   -3.9070    1.1679 H   0  0  0  0  0  0  0  0  0  0  0  0
    1.9197   -6.6889    0.9820 H   0  0  0  0  0  0  0  0  0  0  0  0
  1  2  1  0
  1 27  1  0
  1 28  1  0
  1 29  1  0
  2  3  1  0
  3  4  1  0
  3 30  1  0
  3 31  1  0
 24  4  1  1
  4  5  2  0
  5  6  1  0
  5 32  1  0
  6 25  1  0
  6  7  1  0
  6 33  1  1
  7  8  2  0
  7  9  1  0
  9 24  1  0
  9 10  1  1
  9 11  1  0
 10 34  1  0
 10 35  1  0
 10 36  1  0
 11 12  1  0
 11 13  1  0
 11 14  1  0
 12 37  1  0
 12 38  1  0
 12 39  1  0
 13 40  1  0
 13 41  1  0
 13 42  1  0
 14 21  1  0
 14 15  1  0
 14 43  1  1
 15 16  1  0
 15 17  1  0
 15 44  1  1
 16 45  1  0
 17 18  1  1
 17 19  1  0
 17 21  1  0
 18 46  1  0
 19 20  1  0
 19 47  1  0
 19 48  1  0
 20 49  1  0
 21 22  1  0
 21 50  1  6
 22 23  1  0
 22 24  1  0
 22 51  1  6
 23 52  1  0
 24 25  1  0
 25 26  1  0
 25 53  1  1
 26 54  1  0
M  END
>  <i_m_ct_stereo_status>  (321) 
1

>  <s_m_source_file>  (321) 
/var/tmp/pbs.5076255.sched01/tmpux3k924y/120tsqzh4i4.sdf

>  <i_m_source_file_index>  (321) 
20

>  <i_lp_mmshare_version>  (321) 
48012

>  <i_f3d_flags>  (321) 
1

>  <s_epik_input>  (321) 
W0NIM11PW0NIMl1DMT1bQ0hdW0NIXShbQ0BASF0yW09IXSlDKD1PKVtDQF0oQzEyMykoW0NIM10pQyhbQ0gzXSkoW0NIM10pW0NASF00W0NAQEhdKFtDQEhdM1tPSF0pW0NAQF0oW09IXSkoW0NAQEhdNFtPSF0pW0NIMl1bT0hd

>  <s_epik_cmdline>  (321) 
J2VwaWtfcHl0aG9uJywgJy1waHQnLCAnMi4wJywgJy1waCcsICc3LjAnLCAnLXRuJywgJzgnLCAnLW1hJywgJzIwMCcsICctaW1hZScsICc8aW5maWxlLm1hZT4nLCAnLW9tYWUnLCAnPG91dGZpbGUubWFlPic=

>  <r_lp_tautomer_probability>  (321) 
1

>  <r_epik_Ionization_Penalty>  (321) 
1.03042e-06

>  <r_epik_Ionization_Penalty_Charging>  (321) 
0

>  <r_epik_Ionization_Penalty_Neutral>  (321) 
1.03042e-06

>  <r_epik_State_Penalty>  (321) 
-0

>  <r_epik_Charging_Adjusted_Penalty>  (321) 
0

>  <i_epik_Tot_Q>  (321) 
0

>  <i_epik_Tot_abs_Q>  (321) 
0

>  <s_lp_Force_Field>  (321) 
OPLS3e

>  <r_lp_Energy>  (321) 
76.6503

>  <b_lp_Chiralities_Consistent>  (321) 
1

>  <s_lp_Variant>  (321) 
104:0-1

>  <s_i_glide_gridfile>  (321) 
pfpi4k_grid

>  <i_i_glide_lignum>  (321) 
20

>  <i_i_glide_rotatable_bonds>  (321) 
8

>  <r_i_docking_score>  (321) 
-4.1077

>  <r_i_glide_ligand_efficiency>  (321) 
-0.157988

>  <r_i_glide_ligand_efficiency_sa>  (321) 
-0.46804

>  <r_i_glide_ligand_efficiency_ln>  (321) 
-0.96468

>  <r_i_glide_gscore>  (321) 
-4.1077

>  <r_i_glide_lipo>  (321) 
-0.254404

>  <r_i_glide_hbond>  (321) 
-0.143552

>  <r_i_glide_metal>  (321) 
-0

>  <r_i_glide_rewards>  (321) 
-0.897351

>  <r_i_glide_evdw>  (321) 
-21.1199

>  <r_i_glide_ecoul>  (321) 
-13.6022

>  <r_i_glide_erotb>  (321) 
0.283932

>  <r_i_glide_esite>  (321) 
0

>  <r_i_glide_emodel>  (321) 
-41.9285

>  <r_i_glide_energy>  (321) 
-34.7221

>  <r_i_glide_einternal>  (321) 
5.4951

>  <r_i_glide_intrahb_reward>  (321) 
-0

>  <i_i_glide_confnum>  (321) 
4

>  <i_i_glide_posenum>  (321) 
18

>  <r_i_glide_eff_state_penalty>  (321) 
0

>  <ligand_id>  (321) 
104

>  <original_smiles>  (321) 
COCC1=CC2C(=O)C3(C)C(C)(C)C4C(O)C(O)(CO)C4C(O)C13C2O

>  <smiles>  (321) 
[H]OC([H])([H])C1(O[H])C([H])(O[H])C2([H])C1([H])C([H])(O[H])C13C(C([H])([H])OC([H])([H])[H])=C([H])C([H])(C(=O)C1(C([H])([H])[H])C2(C([H])([H])[H])C([H])([H])[H])C3([H])O[H]

$$$$
104:1:0
     RDKit          3D

 54 57  0  0  1  0  0  0  0  0999 V2000
    3.7113   -7.3610    0.8201 C   0  0  0  0  0  0  0  0  0  0  0  0
    4.6567   -7.1592   -0.2199 O   0  0  0  0  0  0  0  0  0  0  0  0
    4.7310   -5.8120   -0.6847 C   0  0  0  0  0  0  0  0  0  0  0  0
    5.4256   -4.8583    0.2478 C   0  0  0  0  0  0  0  0  0  0  0  0
    5.7149   -5.0836    1.5376 C   0  0  0  0  0  0  0  0  0  0  0  0
    6.5875   -4.0096    1.9903 C   0  0  2  0  0  0  0  0  0  0  0  0
    5.6807   -2.7760    2.0441 C   0  0  0  0  0  0  0  0  0  0  0  0
    5.3405   -2.1975    3.0655 O   0  0  0  0  0  0  0  0  0  0  0  0
    5.4406   -2.3060    0.6022 C   0  0  2  0  0  0  0  0  0  0  0  0
    6.2482   -0.9784    0.4525 C   0  0  0  0  0  0  0  0  0  0  0  0
    3.9367   -2.0645    0.1731 C   0  0  0  0  0  0  0  0  0  0  0  0
    2.9267   -3.1368    0.6762 C   0  0  0  0  0  0  0  0  0  0  0  0
    3.3440   -0.7748    0.8001 C   0  0  0  0  0  0  0  0  0  0  0  0
    3.9208   -1.9377   -1.3743 C   0  0  2  0  0  0  0  0  0  0  0  0
    3.0350   -2.8551   -2.2518 C   0  0  1  0  0  0  0  0  0  0  0  0
    1.8346   -2.4046   -2.7517 O   0  0  0  0  0  0  0  0  0  0  0  0
    4.1426   -2.8752   -3.2952 C   0  0  1  0  0  0  0  0  0  0  0  0
    4.3882   -4.1623   -3.8164 O   0  0  0  0  0  0  0  0  0  0  0  0
    3.9973   -1.9497   -4.4883 C   0  0  0  0  0  0  0  0  0  0  0  0
    3.4038   -0.7144   -4.3140 O   0  0  0  0  0  0  0  0  0  0  0  0
    5.1303   -2.3945   -2.2320 C   0  0  2  0  0  0  0  0  0  0  0  0
    6.2399   -3.3171   -1.6786 C   0  0  1  0  0  0  0  0  0  0  0  0
    7.4991   -2.7338   -1.9279 O   0  0  0  0  0  0  0  0  0  0  0  0
    6.1117   -3.5337   -0.1554 C   0  0  2  0  0  0  0  0  0  0  0  0
    7.3807   -3.8873    0.6865 C   0  0  1  0  0  0  0  0  0  0  0  0
    8.4822   -3.0245    0.7693 O   0  0  0  0  0  0  0  0  0  0  0  0
    3.6915   -8.4188    1.1429 H   0  0  0  0  0  0  0  0  0  0  0  0
    2.6986   -6.9481    0.6057 H   0  0  0  0  0  0  0  0  0  0  0  0
    3.9686   -6.8449    1.7490 H   0  0  0  0  0  0  0  0  0  0  0  0
    5.2457   -5.8270   -1.6137 H   0  0  0  0  0  0  0  0  0  0  0  0
    3.8105   -5.4097   -1.0217 H   0  0  0  0  0  0  0  0  0  0  0  0
    5.5840   -5.9040    2.2040 H   0  0  0  0  0  0  0  0  0  0  0  0
    7.0493   -4.4493    2.8521 H   0  0  0  0  0  0  0  0  0  0  0  0
    6.3368   -0.6824   -0.5852 H   0  0  0  0  0  0  0  0  0  0  0  0
    7.2447   -0.9959    0.8769 H   0  0  0  0  0  0  0  0  0  0  0  0
    5.7923   -0.1519    0.9835 H   0  0  0  0  0  0  0  0  0  0  0  0
    1.9053   -2.8844    0.3986 H   0  0  0  0  0  0  0  0  0  0  0  0
    2.9425   -3.2535    1.7553 H   0  0  0  0  0  0  0  0  0  0  0  0
    3.0530   -4.1267    0.2860 H   0  0  0  0  0  0  0  0  0  0  0  0
    2.2821   -0.6795    0.5908 H   0  0  0  0  0  0  0  0  0  0  0  0
    3.7856    0.1420    0.4189 H   0  0  0  0  0  0  0  0  0  0  0  0
    3.4319   -0.7682    1.8856 H   0  0  0  0  0  0  0  0  0  0  0  0
    3.7791   -0.8912   -1.6551 H   0  0  0  0  0  0  0  0  0  0  0  0
    2.8444   -3.8134   -1.8174 H   0  0  0  0  0  0  0  0  0  0  0  0
    1.4704   -1.8048   -2.0611 H   0  0  0  0  0  0  0  0  0  0  0  0
    3.9752   -4.7838   -3.2151 H   0  0  0  0  0  0  0  0  0  0  0  0
    4.9267   -1.6303   -4.8801 H   0  0  0  0  0  0  0  0  0  0  0  0
    3.4286   -2.4781   -5.2312 H   0  0  0  0  0  0  0  0  0  0  0  0
    2.5528   -0.9233   -3.9737 H   0  0  0  0  0  0  0  0  0  0  0  0
    5.5990   -1.5057   -2.6366 H   0  0  0  0  0  0  0  0  0  0  0  0
    6.2618   -4.2332   -2.2459 H   0  0  0  0  0  0  0  0  0  0  0  0
    7.7712   -2.9936   -2.8078 H   0  0  0  0  0  0  0  0  0  0  0  0
    7.8236   -4.8480    0.4007 H   0  0  0  0  0  0  0  0  0  0  0  0
    8.1448   -2.1884    1.0568 H   0  0  0  0  0  0  0  0  0  0  0  0
  1  2  1  0
  1 27  1  0
  1 28  1  0
  1 29  1  0
  2  3  1  0
  3  4  1  0
  3 30  1  0
  3 31  1  0
 24  4  1  6
  4  5  2  0
  5  6  1  0
  5 32  1  0
  6 25  1  0
  6  7  1  0
  6 33  1  1
  7  8  2  0
  7  9  1  0
  9 24  1  0
  9 10  1  1
  9 11  1  0
 10 34  1  0
 10 35  1  0
 10 36  1  0
 11 12  1  0
 11 13  1  0
 11 14  1  0
 12 37  1  0
 12 38  1  0
 12 39  1  0
 13 40  1  0
 13 41  1  0
 13 42  1  0
 14 21  1  0
 14 15  1  0
 14 43  1  1
 15 16  1  0
 15 17  1  0
 15 44  1  1
 16 45  1  0
 17 18  1  6
 17 19  1  0
 17 21  1  0
 18 46  1  0
 19 20  1  0
 19 47  1  0
 19 48  1  0
 20 49  1  0
 21 22  1  0
 21 50  1  6
 22 23  1  0
 22 24  1  0
 22 51  1  6
 23 52  1  0
 24 25  1  0
 25 26  1  0
 25 53  1  6
 26 54  1  0
M  END
>  <i_m_ct_stereo_status>  (322) 
1

>  <s_m_source_file>  (322) 
/var/tmp/pbs.5076255.sched01/tmpux3k924y/120tsqzh4i4.sdf

>  <i_m_source_file_index>  (322) 
21

>  <i_lp_mmshare_version>  (322) 
48012

>  <i_f3d_flags>  (322) 
1

>  <s_epik_input>  (322) 
W0NIM11PW0NIMl1DMT1bQ0hdW0NIXShbQ0BASF0yW09IXSlDKD1PKVtDQF0oQzEyMykoW0NIM10pQyhbQ0gzXSkoW0NIM10pW0NASF00W0NAQEhdKFtDQEhdM1tPSF0pW0NAQF0oW09IXSkoW0NAQEhdNFtPSF0pW0NIMl1bT0hd

>  <s_epik_cmdline>  (322) 
J2VwaWtfcHl0aG9uJywgJy1waHQnLCAnMi4wJywgJy1waCcsICc3LjAnLCAnLXRuJywgJzgnLCAnLW1hJywgJzIwMCcsICctaW1hZScsICc8aW5maWxlLm1hZT4nLCAnLW9tYWUnLCAnPG91dGZpbGUubWFlPic=

>  <r_lp_tautomer_probability>  (322) 
1

>  <r_epik_Ionization_Penalty>  (322) 
1.03042e-06

>  <r_epik_Ionization_Penalty_Charging>  (322) 
0

>  <r_epik_Ionization_Penalty_Neutral>  (322) 
1.03042e-06

>  <r_epik_State_Penalty>  (322) 
-0

>  <r_epik_Charging_Adjusted_Penalty>  (322) 
0

>  <i_epik_Tot_Q>  (322) 
0

>  <i_epik_Tot_abs_Q>  (322) 
0

>  <s_lp_Force_Field>  (322) 
OPLS3e

>  <r_lp_Energy>  (322) 
76.3987

>  <b_lp_Chiralities_Consistent>  (322) 
1

>  <s_lp_Variant>  (322) 
104:0-2

>  <s_i_glide_gridfile>  (322) 
pfpi4k_grid

>  <i_i_glide_lignum>  (322) 
21

>  <i_i_glide_rotatable_bonds>  (322) 
8

>  <r_i_docking_score>  (322) 
-3.73757

>  <r_i_glide_ligand_efficiency>  (322) 
-0.143753

>  <r_i_glide_ligand_efficiency_sa>  (322) 
-0.425867

>  <r_i_glide_ligand_efficiency_ln>  (322) 
-0.877757

>  <r_i_glide_gscore>  (322) 
-3.73757

>  <r_i_glide_lipo>  (322) 
-0.995169

>  <r_i_glide_hbond>  (322) 
0

>  <r_i_glide_metal>  (322) 
-0

>  <r_i_glide_rewards>  (322) 
-1.45655

>  <r_i_glide_evdw>  (322) 
4.28031

>  <r_i_glide_ecoul>  (322) 
-12.9406

>  <r_i_glide_erotb>  (322) 
0.283932

>  <r_i_glide_esite>  (322) 
0

>  <r_i_glide_emodel>  (322) 
-11.2778

>  <r_i_glide_energy>  (322) 
-8.66025

>  <r_i_glide_einternal>  (322) 
6.92014

>  <r_i_glide_intrahb_reward>  (322) 
-0.5

>  <i_i_glide_confnum>  (322) 
5

>  <i_i_glide_posenum>  (322) 
25

>  <r_i_glide_eff_state_penalty>  (322) 
0

>  <ligand_id>  (322) 
104

>  <original_smiles>  (322) 
COCC1=CC2C(=O)C3(C)C(C)(C)C4C(O)C(O)(CO)C4C(O)C13C2O

>  <smiles>  (322) 
[H]OC([H])([H])C1(O[H])C([H])(O[H])C2([H])C1([H])C([H])(O[H])C13C(C([H])([H])OC([H])([H])[H])=C([H])C([H])(C(=O)C1(C([H])([H])[H])C2(C([H])([H])[H])C([H])([H])[H])C3([H])O[H]

$$$$
105:0:0
     RDKit          3D

 19 20  0  0  1  0  0  0  0  0999 V2000
    1.6537  -11.4947    4.3470 C   0  0  0  0  0  0  0  0  0  0  0  0
    2.5760  -10.5689    3.7737 O   0  0  0  0  0  0  0  0  0  0  0  0
    2.0618   -9.5081    3.0542 C   0  0  0  0  0  0  0  0  0  0  0  0
    0.7141   -9.4072    2.9257 N   0  0  0  0  0  0  0  0  0  0  0  0
    0.2338   -8.3437    2.2383 C   0  0  0  0  0  0  0  0  0  0  0  0
   -1.1266   -8.2100    2.0823 O   0  0  0  0  0  0  0  0  0  0  0  0
   -1.9416   -9.2818    2.5251 C   0  0  0  0  0  0  0  0  0  0  0  0
    1.0993   -7.3820    1.6751 C   0  0  0  0  0  0  0  0  0  0  0  0
    0.9922   -6.2648    0.9623 N   0  0  0  0  0  0  0  0  0  0  0  0
    2.2967   -5.8463    0.7682 N   0  0  0  0  0  0  0  0  0  0  0  0
    3.1747   -6.6384    1.3114 N   0  0  0  0  0  0  0  0  0  0  0  0
    2.4563   -7.6289    1.8922 N   0  0  0  0  0  0  0  0  0  0  0  0
    2.9902   -8.6534    2.5628 N   0  0  0  0  0  0  0  0  0  0  0  0
    2.1793  -12.2900    4.8784 H   0  0  0  0  0  0  0  0  0  0  0  0
    1.0423  -11.9600    3.5731 H   0  0  0  0  0  0  0  0  0  0  0  0
    0.9993  -10.9968    5.0632 H   0  0  0  0  0  0  0  0  0  0  0  0
   -2.9704   -9.0336    2.2885 H   0  0  0  0  0  0  0  0  0  0  0  0
   -1.8593   -9.4323    3.6010 H   0  0  0  0  0  0  0  0  0  0  0  0
   -1.7032  -10.2139    2.0141 H   0  0  0  0  0  0  0  0  0  0  0  0
  1  2  1  0
  1 14  1  0
  1 15  1  0
  1 16  1  0
  2  3  1  0
  3 13  2  0
  3  4  1  0
  4  5  2  0
  5  6  1  0
  5  8  1  0
  6  7  1  0
  7 17  1  0
  7 18  1  0
  7 19  1  0
  8 12  1  0
  8  9  2  0
  9 10  1  0
 10 11  2  0
 11 12  1  0
 12 13  1  0
M  END
>  <i_m_ct_stereo_status>  (323) 
1

>  <s_m_source_file>  (323) 
/var/tmp/pbs.5076255.sched01/tmpux3k924y/120tsqzh4i4.sdf

>  <i_m_source_file_index>  (323) 
22

>  <i_lp_mmshare_version>  (323) 
48012

>  <i_f3d_flags>  (323) 
0

>  <s_epik_input>  (323) 
W0NIM11PYzFuYyhPW0NIM10pbm4oYzEyKW5ubjI=

>  <s_epik_cmdline>  (323) 
J2VwaWtfcHl0aG9uJywgJy1waHQnLCAnMi4wJywgJy1waCcsICc3LjAnLCAnLXRuJywgJzgnLCAnLW1hJywgJzIwMCcsICctaW1hZScsICc8aW5maWxlLm1hZT4nLCAnLW9tYWUnLCAnPG91dGZpbGUubWFlPic=

>  <r_lp_tautomer_probability>  (323) 
1

>  <r_epik_Ionization_Penalty>  (323) 
5.84119e-14

>  <r_epik_Ionization_Penalty_Charging>  (323) 
0

>  <r_epik_Ionization_Penalty_Neutral>  (323) 
5.84119e-14

>  <r_epik_State_Penalty>  (323) 
-0

>  <r_epik_Charging_Adjusted_Penalty>  (323) 
0

>  <i_epik_Tot_Q>  (323) 
0

>  <i_epik_Tot_abs_Q>  (323) 
0

>  <s_lp_Force_Field>  (323) 
OPLS3e

>  <r_lp_Energy>  (323) 
7.05864

>  <b_lp_Chiralities_Consistent>  (323) 
1

>  <s_lp_Variant>  (323) 
105:0-1

>  <s_i_glide_gridfile>  (323) 
pfpi4k_grid

>  <i_i_glide_lignum>  (323) 
22

>  <i_i_glide_rotatable_bonds>  (323) 
2

>  <r_i_docking_score>  (323) 
-4.00439

>  <r_i_glide_ligand_efficiency>  (323) 
-0.30803

>  <r_i_glide_ligand_efficiency_sa>  (323) 
-0.724282

>  <r_i_glide_ligand_efficiency_ln>  (323) 
-1.12327

>  <r_i_glide_gscore>  (323) 
-4.00439

>  <r_i_glide_lipo>  (323) 
-0.226266

>  <r_i_glide_hbond>  (323) 
0

>  <r_i_glide_metal>  (323) 
-0

>  <r_i_glide_rewards>  (323) 
-2.18224

>  <r_i_glide_evdw>  (323) 
-18.3529

>  <r_i_glide_ecoul>  (323) 
-3.23753

>  <r_i_glide_erotb>  (323) 
0

>  <r_i_glide_esite>  (323) 
-0.192618

>  <r_i_glide_emodel>  (323) 
-27.0302

>  <r_i_glide_energy>  (323) 
-21.5904

>  <r_i_glide_einternal>  (323) 
1.89525

>  <r_i_glide_intrahb_reward>  (323) 
-0

>  <i_i_glide_confnum>  (323) 
1

>  <i_i_glide_posenum>  (323) 
24

>  <r_i_glide_eff_state_penalty>  (323) 
0

>  <ligand_id>  (323) 
105

>  <original_smiles>  (323) 
COc1nc(OC)c2nnnn2n1

>  <smiles>  (323) 
[H]C([H])([H])Oc1nc(OC([H])([H])[H])c2nnnn2n1

$$$$
105:0:1
     RDKit          3D

 19 20  0  0  1  0  0  0  0  0999 V2000
   -1.9752   -8.3078    3.4721 C   0  0  0  0  0  0  0  0  0  0  0  0
   -1.1949   -7.3314    2.7835 O   0  0  0  0  0  0  0  0  0  0  0  0
    0.1041   -7.6699    2.4596 C   0  0  0  0  0  0  0  0  0  0  0  0
    0.5622   -8.8989    2.8084 N   0  0  0  0  0  0  0  0  0  0  0  0
    1.8409   -9.2030    2.4801 C   0  0  0  0  0  0  0  0  0  0  0  0
    2.3401  -10.4397    2.8192 O   0  0  0  0  0  0  0  0  0  0  0  0
    1.4842  -11.3408    3.5018 C   0  0  0  0  0  0  0  0  0  0  0  0
    2.6670   -8.2645    1.8180 C   0  0  0  0  0  0  0  0  0  0  0  0
    3.9169   -8.1975    1.3717 N   0  0  0  0  0  0  0  0  0  0  0  0
    4.0407   -6.9195    0.8527 N   0  0  0  0  0  0  0  0  0  0  0  0
    2.9417   -6.2278    0.9307 N   0  0  0  0  0  0  0  0  0  0  0  0
    2.0491   -7.0427    1.5398 N   0  0  0  0  0  0  0  0  0  0  0  0
    0.7899   -6.6931    1.8211 N   0  0  0  0  0  0  0  0  0  0  0  0
   -2.9778   -7.9268    3.6667 H   0  0  0  0  0  0  0  0  0  0  0  0
   -1.5265   -8.5560    4.4342 H   0  0  0  0  0  0  0  0  0  0  0  0
   -2.0701   -9.2207    2.8827 H   0  0  0  0  0  0  0  0  0  0  0  0
    2.0353  -12.2625    3.6722 H   0  0  0  0  0  0  0  0  0  0  0  0
    0.5985  -11.5825    2.9154 H   0  0  0  0  0  0  0  0  0  0  0  0
    1.1792  -10.9435    4.4697 H   0  0  0  0  0  0  0  0  0  0  0  0
  1  2  1  0
  1 14  1  0
  1 15  1  0
  1 16  1  0
  2  3  1  0
  3 13  2  0
  3  4  1  0
  4  5  2  0
  5  6  1  0
  5  8  1  0
  6  7  1  0
  7 17  1  0
  7 18  1  0
  7 19  1  0
  8 12  1  0
  8  9  2  0
  9 10  1  0
 10 11  2  0
 11 12  1  0
 12 13  1  0
M  END
>  <i_m_ct_stereo_status>  (324) 
1

>  <s_m_source_file>  (324) 
/var/tmp/pbs.5076255.sched01/tmpux3k924y/120tsqzh4i4.sdf

>  <i_m_source_file_index>  (324) 
22

>  <i_lp_mmshare_version>  (324) 
48012

>  <i_f3d_flags>  (324) 
0

>  <s_epik_input>  (324) 
W0NIM11PYzFuYyhPW0NIM10pbm4oYzEyKW5ubjI=

>  <s_epik_cmdline>  (324) 
J2VwaWtfcHl0aG9uJywgJy1waHQnLCAnMi4wJywgJy1waCcsICc3LjAnLCAnLXRuJywgJzgnLCAnLW1hJywgJzIwMCcsICctaW1hZScsICc8aW5maWxlLm1hZT4nLCAnLW9tYWUnLCAnPG91dGZpbGUubWFlPic=

>  <r_lp_tautomer_probability>  (324) 
1

>  <r_epik_Ionization_Penalty>  (324) 
5.84119e-14

>  <r_epik_Ionization_Penalty_Charging>  (324) 
0

>  <r_epik_Ionization_Penalty_Neutral>  (324) 
5.84119e-14

>  <r_epik_State_Penalty>  (324) 
-0

>  <r_epik_Charging_Adjusted_Penalty>  (324) 
0

>  <i_epik_Tot_Q>  (324) 
0

>  <i_epik_Tot_abs_Q>  (324) 
0

>  <s_lp_Force_Field>  (324) 
OPLS3e

>  <r_lp_Energy>  (324) 
7.05864

>  <b_lp_Chiralities_Consistent>  (324) 
1

>  <s_lp_Variant>  (324) 
105:0-1

>  <s_i_glide_gridfile>  (324) 
pfpi4k_grid

>  <i_i_glide_lignum>  (324) 
22

>  <i_i_glide_rotatable_bonds>  (324) 
2

>  <r_i_docking_score>  (324) 
-3.80937

>  <r_i_glide_ligand_efficiency>  (324) 
-0.293028

>  <r_i_glide_ligand_efficiency_sa>  (324) 
-0.689008

>  <r_i_glide_ligand_efficiency_ln>  (324) 
-1.06856

>  <r_i_glide_gscore>  (324) 
-3.80937

>  <r_i_glide_lipo>  (324) 
-0.246125

>  <r_i_glide_hbond>  (324) 
-0.0969849

>  <r_i_glide_metal>  (324) 
-0

>  <r_i_glide_rewards>  (324) 
-2.16723

>  <r_i_glide_evdw>  (324) 
-19.7211

>  <r_i_glide_ecoul>  (324) 
-1.36157

>  <r_i_glide_erotb>  (324) 
0

>  <r_i_glide_esite>  (324) 
-0.108741

>  <r_i_glide_emodel>  (324) 
-26.2686

>  <r_i_glide_energy>  (324) 
-21.0827

>  <r_i_glide_einternal>  (324) 
1.81851

>  <r_i_glide_intrahb_reward>  (324) 
-0

>  <i_i_glide_confnum>  (324) 
1

>  <i_i_glide_posenum>  (324) 
26

>  <r_i_glide_eff_state_penalty>  (324) 
0

>  <ligand_id>  (324) 
105

>  <original_smiles>  (324) 
COc1nc(OC)c2nnnn2n1

>  <smiles>  (324) 
[H]C([H])([H])Oc1nc(OC([H])([H])[H])c2nnnn2n1

$$$$
105:0:2
     RDKit          3D

 19 20  0  0  1  0  0  0  0  0999 V2000
    1.1159  -11.7170    4.4818 C   0  0  0  0  0  0  0  0  0  0  0  0
    2.1088  -11.0234    3.7246 O   0  0  0  0  0  0  0  0  0  0  0  0
    1.7573   -9.8172    3.1538 C   0  0  0  0  0  0  0  0  0  0  0  0
    0.4787   -9.3808    3.3019 N   0  0  0  0  0  0  0  0  0  0  0  0
    0.1594   -8.1936    2.7395 C   0  0  0  0  0  0  0  0  0  0  0  0
   -1.1199   -7.7011    2.8840 O   0  0  0  0  0  0  0  0  0  0  0  0
   -2.0280   -8.4590    3.6655 C   0  0  0  0  0  0  0  0  0  0  0  0
    1.1204   -7.4337    2.0318 C   0  0  0  0  0  0  0  0  0  0  0  0
    1.1609   -6.2747    1.3838 N   0  0  0  0  0  0  0  0  0  0  0  0
    2.4787   -6.1535    0.9681 N   0  0  0  0  0  0  0  0  0  0  0  0
    3.2175   -7.1673    1.3117 N   0  0  0  0  0  0  0  0  0  0  0  0
    2.3915   -8.0080    1.9820 N   0  0  0  0  0  0  0  0  0  0  0  0
    2.7639   -9.1796    2.5070 N   0  0  0  0  0  0  0  0  0  0  0  0
    1.5124  -12.6555    4.8710 H   0  0  0  0  0  0  0  0  0  0  0  0
    0.2482  -11.9515    3.8658 H   0  0  0  0  0  0  0  0  0  0  0  0
    0.7937  -11.1148    5.3319 H   0  0  0  0  0  0  0  0  0  0  0  0
   -2.9824   -7.9391    3.6620 H   0  0  0  0  0  0  0  0  0  0  0  0
   -1.6941   -8.5472    4.6994 H   0  0  0  0  0  0  0  0  0  0  0  0
   -2.1824   -9.4549    3.2543 H   0  0  0  0  0  0  0  0  0  0  0  0
  1  2  1  0
  1 14  1  0
  1 15  1  0
  1 16  1  0
  2  3  1  0
  3 13  2  0
  3  4  1  0
  4  5  2  0
  5  6  1  0
  5  8  1  0
  6  7  1  0
  7 17  1  0
  7 18  1  0
  7 19  1  0
  8 12  1  0
  8  9  2  0
  9 10  1  0
 10 11  2  0
 11 12  1  0
 12 13  1  0
M  END
>  <i_m_ct_stereo_status>  (325) 
1

>  <s_m_source_file>  (325) 
/var/tmp/pbs.5076255.sched01/tmpux3k924y/120tsqzh4i4.sdf

>  <i_m_source_file_index>  (325) 
22

>  <i_lp_mmshare_version>  (325) 
48012

>  <i_f3d_flags>  (325) 
0

>  <s_epik_input>  (325) 
W0NIM11PYzFuYyhPW0NIM10pbm4oYzEyKW5ubjI=

>  <s_epik_cmdline>  (325) 
J2VwaWtfcHl0aG9uJywgJy1waHQnLCAnMi4wJywgJy1waCcsICc3LjAnLCAnLXRuJywgJzgnLCAnLW1hJywgJzIwMCcsICctaW1hZScsICc8aW5maWxlLm1hZT4nLCAnLW9tYWUnLCAnPG91dGZpbGUubWFlPic=

>  <r_lp_tautomer_probability>  (325) 
1

>  <r_epik_Ionization_Penalty>  (325) 
5.84119e-14

>  <r_epik_Ionization_Penalty_Charging>  (325) 
0

>  <r_epik_Ionization_Penalty_Neutral>  (325) 
5.84119e-14

>  <r_epik_State_Penalty>  (325) 
-0

>  <r_epik_Charging_Adjusted_Penalty>  (325) 
0

>  <i_epik_Tot_Q>  (325) 
0

>  <i_epik_Tot_abs_Q>  (325) 
0

>  <s_lp_Force_Field>  (325) 
OPLS3e

>  <r_lp_Energy>  (325) 
7.05864

>  <b_lp_Chiralities_Consistent>  (325) 
1

>  <s_lp_Variant>  (325) 
105:0-1

>  <s_i_glide_gridfile>  (325) 
pfpi4k_grid

>  <i_i_glide_lignum>  (325) 
22

>  <i_i_glide_rotatable_bonds>  (325) 
2

>  <r_i_docking_score>  (325) 
-3.74212

>  <r_i_glide_ligand_efficiency>  (325) 
-0.287855

>  <r_i_glide_ligand_efficiency_sa>  (325) 
-0.676844

>  <r_i_glide_ligand_efficiency_ln>  (325) 
-1.0497

>  <r_i_glide_gscore>  (325) 
-3.74212

>  <r_i_glide_lipo>  (325) 
-0.0200316

>  <r_i_glide_hbond>  (325) 
0

>  <r_i_glide_metal>  (325) 
-0

>  <r_i_glide_rewards>  (325) 
-2.21586

>  <r_i_glide_evdw>  (325) 
-19.7606

>  <r_i_glide_ecoul>  (325) 
-2.41389

>  <r_i_glide_erotb>  (325) 
0

>  <r_i_glide_esite>  (325) 
-0.156109

>  <r_i_glide_emodel>  (325) 
-27.2164

>  <r_i_glide_energy>  (325) 
-22.1745

>  <r_i_glide_einternal>  (325) 
1.85789

>  <r_i_glide_intrahb_reward>  (325) 
-0

>  <i_i_glide_confnum>  (325) 
1

>  <i_i_glide_posenum>  (325) 
36

>  <r_i_glide_eff_state_penalty>  (325) 
0

>  <ligand_id>  (325) 
105

>  <original_smiles>  (325) 
COc1nc(OC)c2nnnn2n1

>  <smiles>  (325) 
[H]C([H])([H])Oc1nc(OC([H])([H])[H])c2nnnn2n1

$$$$
106:0:0
     RDKit          3D

 20 22  0  0  1  0  0  0  0  0999 V2000
    3.6411   -0.9032   -2.7501 C   0  0  0  0  0  0  0  0  0  0  0  0
    3.0117   -1.7168   -1.7194 N   0  0  0  0  0  0  0  0  0  0  0  0
    3.7081   -2.7049   -1.0090 C   0  0  0  0  0  0  0  0  0  0  0  0
    2.9346   -3.6299   -0.3605 N   0  0  0  0  0  0  0  0  0  0  0  0
    3.5710   -4.6414    0.3208 C   0  0  0  0  0  0  0  0  0  0  0  0
    2.7899   -5.9447    1.1684 S   0  0  0  0  0  0  0  0  0  0  0  0
    4.4834   -6.4231    1.5314 C   0  0  0  0  0  0  0  0  0  0  0  0
    5.4920   -5.6507    1.0431 N   0  0  0  0  0  0  0  0  0  0  0  0
    4.9855   -4.6628    0.3634 C   0  0  0  0  0  0  0  0  0  0  0  0
    5.7751   -3.6924   -0.2599 N   0  0  0  0  0  0  0  0  0  0  0  0
    7.0768   -3.5019   -0.3299 C   0  0  0  0  0  0  0  0  0  0  0  0
    7.3323   -2.4137   -1.0600 N   0  0  0  0  0  0  0  0  0  0  0  0
    6.0822   -1.9139   -1.4411 N   0  0  0  0  0  0  0  0  0  0  0  0
    5.1360   -2.7389   -0.9364 C   0  0  0  0  0  0  0  0  0  0  0  0
    2.9542   -0.1695   -3.1702 H   0  0  0  0  0  0  0  0  0  0  0  0
    3.9991   -1.5451   -3.5601 H   0  0  0  0  0  0  0  0  0  0  0  0
    4.4838   -0.3146   -2.3791 H   0  0  0  0  0  0  0  0  0  0  0  0
    4.7321   -7.2908    2.1244 H   0  0  0  0  0  0  0  0  0  0  0  0
    7.8351   -4.1288    0.1048 H   0  0  0  0  0  0  0  0  0  0  0  0
    2.0345   -1.4644   -1.4427 H   0  0  0  0  0  0  0  0  0  0  0  0
  1  2  1  0
  1 15  1  0
  1 16  1  0
  1 17  1  0
  2  3  1  0
  2 20  1  0
  3 14  1  0
  3  4  2  0
  4  5  1  0
  5  9  2  0
  5  6  1  0
  6  7  1  0
  7  8  2  0
  7 18  1  0
  8  9  1  0
  9 10  1  0
 10 14  1  0
 10 11  1  0
 11 12  2  0
 11 19  1  0
 12 13  1  0
 13 14  2  0
M  END
>  <i_m_ct_stereo_status>  (326) 
1

>  <s_m_source_file>  (326) 
/var/tmp/pbs.5076255.sched01/tmpux3k924y/120tsqzh4i4.sdf

>  <i_m_source_file_index>  (326) 
23

>  <i_lp_mmshare_version>  (326) 
48012

>  <i_f3d_flags>  (326) 
0

>  <s_epik_input>  (326) 
W0NIM10vTj1jKC9bbkhdMSljKG5uW2NIXTIpbjJjKGMxMyluW2NIXXMz

>  <s_epik_cmdline>  (326) 
J2VwaWtfcHl0aG9uJywgJy1waHQnLCAnMi4wJywgJy1waCcsICc3LjAnLCAnLXRuJywgJzgnLCAnLW1hJywgJzIwMCcsICctaW1hZScsICc8aW5maWxlLm1hZT4nLCAnLW9tYWUnLCAnPG91dGZpbGUubWFlPic=

>  <r_lp_tautomer_probability>  (326) 
1

>  <r_epik_Ionization_Penalty>  (326) 
1.26127e-05

>  <r_epik_Ionization_Penalty_Charging>  (326) 
0

>  <r_epik_Ionization_Penalty_Neutral>  (326) 
1.26127e-05

>  <r_epik_State_Penalty>  (326) 
-0

>  <r_epik_Charging_Adjusted_Penalty>  (326) 
0

>  <i_epik_Tot_Q>  (326) 
0

>  <i_epik_Tot_abs_Q>  (326) 
0

>  <s_lp_Force_Field>  (326) 
OPLS3e

>  <r_lp_Energy>  (326) 
12.9629

>  <b_lp_Chiralities_Consistent>  (326) 
1

>  <s_lp_Variant>  (326) 
106:0-1

>  <s_i_glide_gridfile>  (326) 
pfpi4k_grid

>  <i_i_glide_lignum>  (326) 
23

>  <i_i_glide_rotatable_bonds>  (326) 
1

>  <r_i_docking_score>  (326) 
-4.69808

>  <r_i_glide_ligand_efficiency>  (326) 
-0.335577

>  <r_i_glide_ligand_efficiency_sa>  (326) 
-0.808789

>  <r_i_glide_ligand_efficiency_ln>  (326) 
-1.29102

>  <r_i_glide_gscore>  (326) 
-4.69808

>  <r_i_glide_lipo>  (326) 
-0.0619721

>  <r_i_glide_hbond>  (326) 
-0.152654

>  <r_i_glide_metal>  (326) 
-0

>  <r_i_glide_rewards>  (326) 
-2.36536

>  <r_i_glide_evdw>  (326) 
-16.1198

>  <r_i_glide_ecoul>  (326) 
-7.16373

>  <r_i_glide_erotb>  (326) 
0

>  <r_i_glide_esite>  (326) 
-0.237547

>  <r_i_glide_emodel>  (326) 
-28.439

>  <r_i_glide_energy>  (326) 
-23.2835

>  <r_i_glide_einternal>  (326) 
3.79859

>  <r_i_glide_intrahb_reward>  (326) 
-0

>  <i_i_glide_confnum>  (326) 
1

>  <i_i_glide_posenum>  (326) 
1

>  <r_i_glide_eff_state_penalty>  (326) 
0

>  <ligand_id>  (326) 
106

>  <original_smiles>  (326) 
CN=c1[nH]c2scnc2n2cnnc12

>  <smiles>  (326) 
[H]c1nc2c(nc(N([H])C([H])([H])[H])c3nnc([H])n32)s1

$$$$
106:0:1
     RDKit          3D

 20 22  0  0  1  0  0  0  0  0999 V2000
    2.7964   -2.4448   -3.7498 C   0  0  0  0  0  0  0  0  0  0  0  0
    2.4272   -3.2621   -2.6069 N   0  0  0  0  0  0  0  0  0  0  0  0
    3.0575   -3.1150   -1.3636 C   0  0  0  0  0  0  0  0  0  0  0  0
    3.9819   -2.1214   -1.2236 N   0  0  0  0  0  0  0  0  0  0  0  0
    4.5686   -1.9725    0.0079 C   0  0  0  0  0  0  0  0  0  0  0  0
    5.7494   -0.7735    0.4187 S   0  0  0  0  0  0  0  0  0  0  0  0
    5.6708   -1.5574    2.0284 C   0  0  0  0  0  0  0  0  0  0  0  0
    4.8335   -2.6118    2.1930 N   0  0  0  0  0  0  0  0  0  0  0  0
    4.2104   -2.8450    1.0685 C   0  0  0  0  0  0  0  0  0  0  0  0
    3.2777   -3.8630    0.9053 N   0  0  0  0  0  0  0  0  0  0  0  0
    2.8041   -4.7820    1.7369 C   0  0  0  0  0  0  0  0  0  0  0  0
    1.9135   -5.5381    1.0904 N   0  0  0  0  0  0  0  0  0  0  0  0
    1.8504   -5.0445   -0.2326 N   0  0  0  0  0  0  0  0  0  0  0  0
    2.7066   -4.0056   -0.2961 C   0  0  0  0  0  0  0  0  0  0  0  0
    2.2068   -2.7517   -4.6091 H   0  0  0  0  0  0  0  0  0  0  0  0
    3.8482   -2.5632   -4.0019 H   0  0  0  0  0  0  0  0  0  0  0  0
    2.5947   -1.3955   -3.5495 H   0  0  0  0  0  0  0  0  0  0  0  0
    6.2642   -1.2257    2.8648 H   0  0  0  0  0  0  0  0  0  0  0  0
    3.0832   -4.9044    2.7731 H   0  0  0  0  0  0  0  0  0  0  0  0
    1.7637   -4.0165   -2.7355 H   0  0  0  0  0  0  0  0  0  0  0  0
  1  2  1  0
  1 15  1  0
  1 16  1  0
  1 17  1  0
  2  3  1  0
  2 20  1  0
  3 14  1  0
  3  4  2  0
  4  5  1  0
  5  9  2  0
  5  6  1  0
  6  7  1  0
  7  8  2  0
  7 18  1  0
  8  9  1  0
  9 10  1  0
 10 14  1  0
 10 11  1  0
 11 12  2  0
 11 19  1  0
 12 13  1  0
 13 14  2  0
M  END
>  <i_m_ct_stereo_status>  (327) 
1

>  <s_m_source_file>  (327) 
/var/tmp/pbs.5076255.sched01/tmpux3k924y/120tsqzh4i4.sdf

>  <i_m_source_file_index>  (327) 
23

>  <i_lp_mmshare_version>  (327) 
48012

>  <i_f3d_flags>  (327) 
0

>  <s_epik_input>  (327) 
W0NIM10vTj1jKC9bbkhdMSljKG5uW2NIXTIpbjJjKGMxMyluW2NIXXMz

>  <s_epik_cmdline>  (327) 
J2VwaWtfcHl0aG9uJywgJy1waHQnLCAnMi4wJywgJy1waCcsICc3LjAnLCAnLXRuJywgJzgnLCAnLW1hJywgJzIwMCcsICctaW1hZScsICc8aW5maWxlLm1hZT4nLCAnLW9tYWUnLCAnPG91dGZpbGUubWFlPic=

>  <r_lp_tautomer_probability>  (327) 
1

>  <r_epik_Ionization_Penalty>  (327) 
1.26127e-05

>  <r_epik_Ionization_Penalty_Charging>  (327) 
0

>  <r_epik_Ionization_Penalty_Neutral>  (327) 
1.26127e-05

>  <r_epik_State_Penalty>  (327) 
-0

>  <r_epik_Charging_Adjusted_Penalty>  (327) 
0

>  <i_epik_Tot_Q>  (327) 
0

>  <i_epik_Tot_abs_Q>  (327) 
0

>  <s_lp_Force_Field>  (327) 
OPLS3e

>  <r_lp_Energy>  (327) 
12.9629

>  <b_lp_Chiralities_Consistent>  (327) 
1

>  <s_lp_Variant>  (327) 
106:0-1

>  <s_i_glide_gridfile>  (327) 
pfpi4k_grid

>  <i_i_glide_lignum>  (327) 
23

>  <i_i_glide_rotatable_bonds>  (327) 
1

>  <r_i_docking_score>  (327) 
-4.21207

>  <r_i_glide_ligand_efficiency>  (327) 
-0.300862

>  <r_i_glide_ligand_efficiency_sa>  (327) 
-0.725121

>  <r_i_glide_ligand_efficiency_ln>  (327) 
-1.15746

>  <r_i_glide_gscore>  (327) 
-4.21207

>  <r_i_glide_lipo>  (327) 
-0.495615

>  <r_i_glide_hbond>  (327) 
-0.122552

>  <r_i_glide_metal>  (327) 
-0

>  <r_i_glide_rewards>  (327) 
-2.00916

>  <r_i_glide_evdw>  (327) 
-15.6282

>  <r_i_glide_ecoul>  (327) 
-3.94111

>  <r_i_glide_erotb>  (327) 
0

>  <r_i_glide_esite>  (327) 
-0.212169

>  <r_i_glide_emodel>  (327) 
-26.9347

>  <r_i_glide_energy>  (327) 
-19.5693

>  <r_i_glide_einternal>  (327) 
0.0100482

>  <r_i_glide_intrahb_reward>  (327) 
-0

>  <i_i_glide_confnum>  (327) 
2

>  <i_i_glide_posenum>  (327) 
3

>  <r_i_glide_eff_state_penalty>  (327) 
0

>  <ligand_id>  (327) 
106

>  <original_smiles>  (327) 
CN=c1[nH]c2scnc2n2cnnc12

>  <smiles>  (327) 
[H]c1nc2c(nc(N([H])C([H])([H])[H])c3nnc([H])n32)s1

$$$$
106:0:2
     RDKit          3D

 20 22  0  0  1  0  0  0  0  0999 V2000
   -2.2014    2.9756    3.5871 C   0  0  0  0  0  0  0  0  0  0  0  0
   -0.9596    2.6916    2.8884 N   0  0  0  0  0  0  0  0  0  0  0  0
   -0.2732    1.4791    3.0580 C   0  0  0  0  0  0  0  0  0  0  0  0
    0.8373    1.3438    2.2792 N   0  0  0  0  0  0  0  0  0  0  0  0
    1.5688    0.1866    2.4064 C   0  0  0  0  0  0  0  0  0  0  0  0
    3.0208   -0.1974    1.5383 S   0  0  0  0  0  0  0  0  0  0  0  0
    2.9294   -1.7140    2.4999 C   0  0  0  0  0  0  0  0  0  0  0  0
    1.9055   -1.8670    3.3710 N   0  0  0  0  0  0  0  0  0  0  0  0
    1.1454   -0.8098    3.3227 C   0  0  0  0  0  0  0  0  0  0  0  0
    0.0135   -0.6675    4.1124 N   0  0  0  0  0  0  0  0  0  0  0  0
   -0.5382   -1.4657    5.0189 C   0  0  0  0  0  0  0  0  0  0  0  0
   -1.6285   -0.8743    5.5074 N   0  0  0  0  0  0  0  0  0  0  0  0
   -1.7294    0.3724    4.8588 N   0  0  0  0  0  0  0  0  0  0  0  0
   -0.6979    0.4634    3.9941 C   0  0  0  0  0  0  0  0  0  0  0  0
   -2.6216    3.9420    3.3197 H   0  0  0  0  0  0  0  0  0  0  0  0
   -2.0398    2.9804    4.6639 H   0  0  0  0  0  0  0  0  0  0  0  0
   -2.9577    2.2240    3.3657 H   0  0  0  0  0  0  0  0  0  0  0  0
    3.6390   -2.5188    2.4372 H   0  0  0  0  0  0  0  0  0  0  0  0
   -0.1900   -2.4413    5.3388 H   0  0  0  0  0  0  0  0  0  0  0  0
   -0.6007    3.3447    2.1834 H   0  0  0  0  0  0  0  0  0  0  0  0
  1  2  1  0
  1 15  1  0
  1 16  1  0
  1 17  1  0
  2  3  1  0
  2 20  1  0
  3 14  1  0
  3  4  2  0
  4  5  1  0
  5  9  2  0
  5  6  1  0
  6  7  1  0
  7  8  2  0
  7 18  1  0
  8  9  1  0
  9 10  1  0
 10 14  1  0
 10 11  1  0
 11 12  2  0
 11 19  1  0
 12 13  1  0
 13 14  2  0
M  END
>  <i_m_ct_stereo_status>  (328) 
1

>  <s_m_source_file>  (328) 
/var/tmp/pbs.5076255.sched01/tmpux3k924y/120tsqzh4i4.sdf

>  <i_m_source_file_index>  (328) 
23

>  <i_lp_mmshare_version>  (328) 
48012

>  <i_f3d_flags>  (328) 
0

>  <s_epik_input>  (328) 
W0NIM10vTj1jKC9bbkhdMSljKG5uW2NIXTIpbjJjKGMxMyluW2NIXXMz

>  <s_epik_cmdline>  (328) 
J2VwaWtfcHl0aG9uJywgJy1waHQnLCAnMi4wJywgJy1waCcsICc3LjAnLCAnLXRuJywgJzgnLCAnLW1hJywgJzIwMCcsICctaW1hZScsICc8aW5maWxlLm1hZT4nLCAnLW9tYWUnLCAnPG91dGZpbGUubWFlPic=

>  <r_lp_tautomer_probability>  (328) 
1

>  <r_epik_Ionization_Penalty>  (328) 
1.26127e-05

>  <r_epik_Ionization_Penalty_Charging>  (328) 
0

>  <r_epik_Ionization_Penalty_Neutral>  (328) 
1.26127e-05

>  <r_epik_State_Penalty>  (328) 
-0

>  <r_epik_Charging_Adjusted_Penalty>  (328) 
0

>  <i_epik_Tot_Q>  (328) 
0

>  <i_epik_Tot_abs_Q>  (328) 
0

>  <s_lp_Force_Field>  (328) 
OPLS3e

>  <r_lp_Energy>  (328) 
12.9629

>  <b_lp_Chiralities_Consistent>  (328) 
1

>  <s_lp_Variant>  (328) 
106:0-1

>  <s_i_glide_gridfile>  (328) 
pfpi4k_grid

>  <i_i_glide_lignum>  (328) 
23

>  <i_i_glide_rotatable_bonds>  (328) 
1

>  <r_i_docking_score>  (328) 
-4.0495

>  <r_i_glide_ligand_efficiency>  (328) 
-0.28925

>  <r_i_glide_ligand_efficiency_sa>  (328) 
-0.697134

>  <r_i_glide_ligand_efficiency_ln>  (328) 
-1.11279

>  <r_i_glide_gscore>  (328) 
-4.0495

>  <r_i_glide_lipo>  (328) 
0

>  <r_i_glide_hbond>  (328) 
-0.16

>  <r_i_glide_metal>  (328) 
-0

>  <r_i_glide_rewards>  (328) 
-2.00299

>  <r_i_glide_evdw>  (328) 
-19.2158

>  <r_i_glide_ecoul>  (328) 
-4.41534

>  <r_i_glide_erotb>  (328) 
0

>  <r_i_glide_esite>  (328) 
-0.263427

>  <r_i_glide_emodel>  (328) 
-29.3297

>  <r_i_glide_energy>  (328) 
-23.6311

>  <r_i_glide_einternal>  (328) 
2.6015

>  <r_i_glide_intrahb_reward>  (328) 
-0

>  <i_i_glide_confnum>  (328) 
2

>  <i_i_glide_posenum>  (328) 
32

>  <r_i_glide_eff_state_penalty>  (328) 
0

>  <ligand_id>  (328) 
106

>  <original_smiles>  (328) 
CN=c1[nH]c2scnc2n2cnnc12

>  <smiles>  (328) 
[H]c1nc2c(nc(N([H])C([H])([H])[H])c3nnc([H])n32)s1

$$$$
107:0:0
     RDKit          3D

 44 48  0  0  1  0  0  0  0  0999 V2000
    2.2629    4.8237    5.6182 C   0  0  0  0  0  0  0  0  0  0  0  0
    0.9621    5.4939    5.1154 C   0  0  2  0  0  0  0  0  0  0  0  0
   -0.0455    5.4646    6.1270 O   0  0  0  0  0  0  0  0  0  0  0  0
   -0.5474    4.2117    6.4763 C   0  0  1  0  0  0  0  0  0  0  0  0
   -1.5315    4.3578    7.4419 O   0  0  0  0  0  0  0  0  0  0  0  0
   -1.0519    4.8614    8.6918 C   0  0  2  0  0  0  0  0  0  0  0  0
   -0.3622    3.8143    9.6209 C   0  0  2  0  0  0  0  0  0  0  0  0
   -1.5268    2.8053    9.8333 C   0  0  0  0  0  0  0  0  0  0  0  0
   -2.5211    3.8313   10.3802 C   0  0  2  0  0  0  0  0  0  0  0  0
   -2.2064    5.1694    9.6512 C   0  0  1  0  0  0  0  0  0  0  0  0
   -1.4482    5.5787   10.8762 C   0  0  1  0  0  0  0  0  0  0  0  0
   -1.3746    7.0031   11.3729 C   0  0  0  0  0  0  0  0  0  0  0  0
   -1.7532    4.3333   11.5615 C   0  0  2  0  0  0  0  0  0  0  0  0
   -0.3771    4.5442   10.9819 C   0  0  1  0  0  0  0  0  0  0  0  0
    0.8747    4.6659   11.8140 C   0  0  0  0  0  0  0  0  0  0  0  0
   -1.1835    3.5397    5.2306 C   0  0  0  0  0  0  0  0  0  0  0  0
   -0.1506    3.5001    4.0888 C   0  0  1  0  0  0  0  0  0  0  0  0
   -0.6829    2.9470    2.8957 O   0  0  0  0  0  0  0  0  0  0  0  0
    0.4166    4.8922    3.8078 C   0  0  1  0  0  0  0  0  0  0  0  0
   -0.5857    5.7468    3.2866 O   0  0  0  0  0  0  0  0  0  0  0  0
    3.0845    4.9488    4.9072 H   0  0  0  0  0  0  0  0  0  0  0  0
    2.1338    3.7574    5.8171 H   0  0  0  0  0  0  0  0  0  0  0  0
    2.5981    5.2722    6.5506 H   0  0  0  0  0  0  0  0  0  0  0  0
    1.1798    6.5435    4.9445 H   0  0  0  0  0  0  0  0  0  0  0  0
    0.2427    3.5848    6.8916 H   0  0  0  0  0  0  0  0  0  0  0  0
   -0.4301    5.7480    8.5468 H   0  0  0  0  0  0  0  0  0  0  0  0
    0.6098    3.4160    9.3350 H   0  0  0  0  0  0  0  0  0  0  0  0
   -1.8594    2.3235    8.9039 H   0  0  0  0  0  0  0  0  0  0  0  0
   -1.2981    2.0346   10.5863 H   0  0  0  0  0  0  0  0  0  0  0  0
   -3.5577    3.5649   10.5542 H   0  0  0  0  0  0  0  0  0  0  0  0
   -3.0367    5.7998    9.3570 H   0  0  0  0  0  0  0  0  0  0  0  0
   -0.8881    7.0138   12.3508 H   0  0  0  0  0  0  0  0  0  0  0  0
   -2.3771    7.4167   11.4596 H   0  0  0  0  0  0  0  0  0  0  0  0
   -0.7882    7.6010   10.6742 H   0  0  0  0  0  0  0  0  0  0  0  0
   -2.0537    4.2672   12.6068 H   0  0  0  0  0  0  0  0  0  0  0  0
    0.6297    5.1730   12.7382 H   0  0  0  0  0  0  0  0  0  0  0  0
    1.6294    5.2460   11.2897 H   0  0  0  0  0  0  0  0  0  0  0  0
    1.2761    3.6854   12.0600 H   0  0  0  0  0  0  0  0  0  0  0  0
   -1.5088    2.5350    5.4976 H   0  0  0  0  0  0  0  0  0  0  0  0
   -2.0702    4.0889    4.9371 H   0  0  0  0  0  0  0  0  0  0  0  0
    0.6697    2.8450    4.3603 H   0  0  0  0  0  0  0  0  0  0  0  0
   -0.3793    3.4595    2.1424 H   0  0  0  0  0  0  0  0  0  0  0  0
    1.2121    4.8437    3.0620 H   0  0  0  0  0  0  0  0  0  0  0  0
   -0.1902    6.4242    2.7515 H   0  0  0  0  0  0  0  0  0  0  0  0
  1  2  1  0
  1 21  1  0
  1 22  1  0
  1 23  1  0
  2 19  1  0
  2  3  1  0
  2 24  1  6
  3  4  1  0
  4  5  1  0
  4 16  1  0
  4 25  1  1
  5  6  1  0
  6 10  1  0
  6  7  1  0
  6 26  1  6
  7 14  1  0
  7  8  1  0
  7 27  1  6
  8  9  1  0
  8 28  1  0
  8 29  1  0
  9 13  1  0
  9 10  1  0
  9 30  1  1
 10 11  1  0
 10 31  1  6
 11 14  1  0
 11 12  1  1
 11 13  1  0
 12 32  1  0
 12 33  1  0
 12 34  1  0
 13 14  1  0
 13 35  1  1
 14 15  1  1
 15 36  1  0
 15 37  1  0
 15 38  1  0
 16 17  1  0
 16 39  1  0
 16 40  1  0
 17 18  1  0
 17 19  1  0
 17 41  1  1
 18 42  1  0
 19 20  1  0
 19 43  1  6
 20 44  1  0
M  END
>  <i_m_ct_stereo_status>  (329) 
1

>  <s_m_source_file>  (329) 
/var/tmp/pbs.5076255.sched01/tmpux3k924y/120tsqzh4i4.sdf

>  <i_m_source_file_index>  (329) 
24

>  <i_lp_mmshare_version>  (329) 
48012

>  <i_f3d_flags>  (329) 
0

>  <s_epik_input>  (329) 
W09IXVtDQEBIXTFbQ0BIXShbT0hdKVtDSDJdW0NAQEhdKE9bQ0BIXTFbQ0gzXSlPW0NAQEhdMltDQEhdKFtDSDJdMylbQ0BdNChbQ0gzXSlbQ0BASF01W0NASF0zW0NASF0yW0NAXTQ1W0NIM10=

>  <s_epik_cmdline>  (329) 
J2VwaWtfcHl0aG9uJywgJy1waHQnLCAnMi4wJywgJy1waCcsICc3LjAnLCAnLXRuJywgJzgnLCAnLW1hJywgJzIwMCcsICctaW1hZScsICc8aW5maWxlLm1hZT4nLCAnLW9tYWUnLCAnPG91dGZpbGUubWFlPic=

>  <r_lp_tautomer_probability>  (329) 
1

>  <r_epik_Ionization_Penalty>  (329) 
9.35635e-08

>  <r_epik_Ionization_Penalty_Charging>  (329) 
0

>  <r_epik_Ionization_Penalty_Neutral>  (329) 
9.35635e-08

>  <r_epik_State_Penalty>  (329) 
-0

>  <r_epik_Charging_Adjusted_Penalty>  (329) 
0

>  <i_epik_Tot_Q>  (329) 
0

>  <i_epik_Tot_abs_Q>  (329) 
0

>  <s_epik_Chemistry_Notes>  (329) 
This compound contains an acetal/aminal-like group ( X-CH(R)-Y where X, Y are N, S, or O) that may be acid/base labile, releasing an aldehyde.

>  <s_lp_Force_Field>  (329) 
OPLS3e

>  <r_lp_Energy>  (329) 
55.8684

>  <b_lp_Chiralities_Consistent>  (329) 
1

>  <s_lp_Variant>  (329) 
107:0-1

>  <s_i_glide_gridfile>  (329) 
pfpi4k_grid

>  <i_i_glide_lignum>  (329) 
24

>  <i_i_glide_rotatable_bonds>  (329) 
4

>  <r_i_docking_score>  (329) 
-3.1494

>  <r_i_glide_ligand_efficiency>  (329) 
-0.15747

>  <r_i_glide_ligand_efficiency_sa>  (329) 
-0.427439

>  <r_i_glide_ligand_efficiency_ln>  (329) 
-0.788191

>  <r_i_glide_gscore>  (329) 
-3.1494

>  <r_i_glide_lipo>  (329) 
-0.0208871

>  <r_i_glide_hbond>  (329) 
0

>  <r_i_glide_metal>  (329) 
-0

>  <r_i_glide_rewards>  (329) 
-1.49755

>  <r_i_glide_evdw>  (329) 
-15.0234

>  <r_i_glide_ecoul>  (329) 
-8.89276

>  <r_i_glide_erotb>  (329) 
0.459501

>  <r_i_glide_esite>  (329) 
-0.00537937

>  <r_i_glide_emodel>  (329) 
-28.1854

>  <r_i_glide_energy>  (329) 
-23.9162

>  <r_i_glide_einternal>  (329) 
2.16662

>  <r_i_glide_intrahb_reward>  (329) 
-0

>  <i_i_glide_confnum>  (329) 
6

>  <i_i_glide_posenum>  (329) 
36

>  <r_i_glide_eff_state_penalty>  (329) 
0

>  <ligand_id>  (329) 
107

>  <original_smiles>  (329) 
CC1OC(OC2C3CC4C2C2(C)C4C32C)CC(O)C1O

>  <smiles>  (329) 
[H]OC1([H])C([H])([H])C([H])(OC2([H])C3([H])C([H])([H])C4([H])C2([H])C2(C([H])([H])[H])C4([H])C32C([H])([H])[H])OC([H])(C([H])([H])[H])C1([H])O[H]

$$$$
107:0:1
     RDKit          3D

 44 48  0  0  1  0  0  0  0  0999 V2000
    1.4547    3.2877    3.3536 C   0  0  0  0  0  0  0  0  0  0  0  0
    0.1072    2.5728    3.0740 C   0  0  2  0  0  0  0  0  0  0  0  0
   -0.5670    2.2107    4.2762 O   0  0  0  0  0  0  0  0  0  0  0  0
    0.0411    1.2360    5.0578 C   0  0  1  0  0  0  0  0  0  0  0  0
   -0.7449    0.9805    6.1772 O   0  0  0  0  0  0  0  0  0  0  0  0
   -0.9718    2.1492    6.9854 C   0  0  2  0  0  0  0  0  0  0  0  0
    0.2840    2.7858    7.6522 C   0  0  2  0  0  0  0  0  0  0  0  0
    0.7961    1.5941    8.5009 C   0  0  0  0  0  0  0  0  0  0  0  0
   -0.5139    1.3905    9.2803 C   0  0  2  0  0  0  0  0  0  0  0  0
   -1.6608    1.7677    8.2992 C   0  0  1  0  0  0  0  0  0  0  0  0
   -1.7095    3.0994    8.9843 C   0  0  1  0  0  0  0  0  0  0  0  0
   -2.9802    3.8805    9.1807 C   0  0  0  0  0  0  0  0  0  0  0  0
   -0.6457    2.7430    9.9108 C   0  0  2  0  0  0  0  0  0  0  0  0
   -0.3493    3.6687    8.7482 C   0  0  1  0  0  0  0  0  0  0  0  0
    0.0277    5.1163    8.9053 C   0  0  0  0  0  0  0  0  0  0  0  0
    0.1896   -0.0666    4.2401 C   0  0  0  0  0  0  0  0  0  0  0  0
    0.9314    0.2087    2.9016 C   0  0  1  0  0  0  0  0  0  0  0  0
    1.0226   -0.9462    2.0811 O   0  0  0  0  0  0  0  0  0  0  0  0
    0.2570    1.3485    2.1474 C   0  0  1  0  0  0  0  0  0  0  0  0
   -1.0228    0.9662    1.6948 O   0  0  0  0  0  0  0  0  0  0  0  0
    1.9035    3.6708    2.4346 H   0  0  0  0  0  0  0  0  0  0  0  0
    2.1938    2.6582    3.8407 H   0  0  0  0  0  0  0  0  0  0  0  0
    1.2963    4.1432    4.0011 H   0  0  0  0  0  0  0  0  0  0  0  0
   -0.5659    3.2726    2.5753 H   0  0  0  0  0  0  0  0  0  0  0  0
    1.0140    1.5792    5.4079 H   0  0  0  0  0  0  0  0  0  0  0  0
   -1.5596    2.8902    6.4388 H   0  0  0  0  0  0  0  0  0  0  0  0
    1.0089    3.3173    7.0273 H   0  0  0  0  0  0  0  0  0  0  0  0
    1.0844    0.7236    7.9016 H   0  0  0  0  0  0  0  0  0  0  0  0
    1.6297    1.8656    9.1721 H   0  0  0  0  0  0  0  0  0  0  0  0
   -0.6407    0.5371    9.9358 H   0  0  0  0  0  0  0  0  0  0  0  0
   -2.5792    1.1928    8.3156 H   0  0  0  0  0  0  0  0  0  0  0  0
   -2.7868    4.7442    9.8230 H   0  0  0  0  0  0  0  0  0  0  0  0
   -3.7524    3.2566    9.6441 H   0  0  0  0  0  0  0  0  0  0  0  0
   -3.3407    4.2404    8.2102 H   0  0  0  0  0  0  0  0  0  0  0  0
   -0.6551    2.9676   10.9673 H   0  0  0  0  0  0  0  0  0  0  0  0
   -0.5004    5.5262    9.7529 H   0  0  0  0  0  0  0  0  0  0  0  0
   -0.2500    5.6729    8.0157 H   0  0  0  0  0  0  0  0  0  0  0  0
    1.0966    5.2189    9.0818 H   0  0  0  0  0  0  0  0  0  0  0  0
    0.7423   -0.7911    4.8361 H   0  0  0  0  0  0  0  0  0  0  0  0
   -0.7970   -0.4866    4.0400 H   0  0  0  0  0  0  0  0  0  0  0  0
    1.9543    0.5162    3.1138 H   0  0  0  0  0  0  0  0  0  0  0  0
    1.0258   -0.6856    1.1477 H   0  0  0  0  0  0  0  0  0  0  0  0
    0.8340    1.6402    1.2665 H   0  0  0  0  0  0  0  0  0  0  0  0
   -0.9715    0.8338    0.7291 H   0  0  0  0  0  0  0  0  0  0  0  0
  1  2  1  0
  1 21  1  0
  1 22  1  0
  1 23  1  0
  2 19  1  0
  2  3  1  0
  2 24  1  6
  3  4  1  0
  4  5  1  0
  4 16  1  0
  4 25  1  1
  5  6  1  0
  6 10  1  0
  6  7  1  0
  6 26  1  6
  7 14  1  0
  7  8  1  0
  7 27  1  6
  8  9  1  0
  8 28  1  0
  8 29  1  0
  9 13  1  0
  9 10  1  0
  9 30  1  1
 10 11  1  0
 10 31  1  6
 11 14  1  0
 11 12  1  1
 11 13  1  0
 12 32  1  0
 12 33  1  0
 12 34  1  0
 13 14  1  0
 13 35  1  1
 14 15  1  1
 15 36  1  0
 15 37  1  0
 15 38  1  0
 16 17  1  0
 16 39  1  0
 16 40  1  0
 17 18  1  0
 17 19  1  0
 17 41  1  1
 18 42  1  0
 19 20  1  0
 19 43  1  6
 20 44  1  0
M  END
>  <i_m_ct_stereo_status>  (330) 
1

>  <s_m_source_file>  (330) 
/var/tmp/pbs.5076255.sched01/tmpux3k924y/120tsqzh4i4.sdf

>  <i_m_source_file_index>  (330) 
24

>  <i_lp_mmshare_version>  (330) 
48012

>  <i_f3d_flags>  (330) 
0

>  <s_epik_input>  (330) 
W09IXVtDQEBIXTFbQ0BIXShbT0hdKVtDSDJdW0NAQEhdKE9bQ0BIXTFbQ0gzXSlPW0NAQEhdMltDQEhdKFtDSDJdMylbQ0BdNChbQ0gzXSlbQ0BASF01W0NASF0zW0NASF0yW0NAXTQ1W0NIM10=

>  <s_epik_cmdline>  (330) 
J2VwaWtfcHl0aG9uJywgJy1waHQnLCAnMi4wJywgJy1waCcsICc3LjAnLCAnLXRuJywgJzgnLCAnLW1hJywgJzIwMCcsICctaW1hZScsICc8aW5maWxlLm1hZT4nLCAnLW9tYWUnLCAnPG91dGZpbGUubWFlPic=

>  <r_lp_tautomer_probability>  (330) 
1

>  <r_epik_Ionization_Penalty>  (330) 
9.35635e-08

>  <r_epik_Ionization_Penalty_Charging>  (330) 
0

>  <r_epik_Ionization_Penalty_Neutral>  (330) 
9.35635e-08

>  <r_epik_State_Penalty>  (330) 
-0

>  <r_epik_Charging_Adjusted_Penalty>  (330) 
0

>  <i_epik_Tot_Q>  (330) 
0

>  <i_epik_Tot_abs_Q>  (330) 
0

>  <s_epik_Chemistry_Notes>  (330) 
This compound contains an acetal/aminal-like group ( X-CH(R)-Y where X, Y are N, S, or O) that may be acid/base labile, releasing an aldehyde.

>  <s_lp_Force_Field>  (330) 
OPLS3e

>  <r_lp_Energy>  (330) 
55.8684

>  <b_lp_Chiralities_Consistent>  (330) 
1

>  <s_lp_Variant>  (330) 
107:0-1

>  <s_i_glide_gridfile>  (330) 
pfpi4k_grid

>  <i_i_glide_lignum>  (330) 
24

>  <i_i_glide_rotatable_bonds>  (330) 
4

>  <r_i_docking_score>  (330) 
-2.79018

>  <r_i_glide_ligand_efficiency>  (330) 
-0.139509

>  <r_i_glide_ligand_efficiency_sa>  (330) 
-0.378685

>  <r_i_glide_ligand_efficiency_ln>  (330) 
-0.698289

>  <r_i_glide_gscore>  (330) 
-2.79018

>  <r_i_glide_lipo>  (330) 
-0.00542307

>  <r_i_glide_hbond>  (330) 
0

>  <r_i_glide_metal>  (330) 
-0

>  <r_i_glide_rewards>  (330) 
-1.49755

>  <r_i_glide_evdw>  (330) 
-15.7037

>  <r_i_glide_ecoul>  (330) 
-5.43853

>  <r_i_glide_erotb>  (330) 
0.321651

>  <r_i_glide_esite>  (330) 
-0.00788755

>  <r_i_glide_emodel>  (330) 
-24.173

>  <r_i_glide_energy>  (330) 
-21.1423

>  <r_i_glide_einternal>  (330) 
2.71885

>  <r_i_glide_intrahb_reward>  (330) 
-0

>  <i_i_glide_confnum>  (330) 
5

>  <i_i_glide_posenum>  (330) 
1

>  <r_i_glide_eff_state_penalty>  (330) 
0

>  <ligand_id>  (330) 
107

>  <original_smiles>  (330) 
CC1OC(OC2C3CC4C2C2(C)C4C32C)CC(O)C1O

>  <smiles>  (330) 
[H]OC1([H])C([H])([H])C([H])(OC2([H])C3([H])C([H])([H])C4([H])C2([H])C2(C([H])([H])[H])C4([H])C32C([H])([H])[H])OC([H])(C([H])([H])[H])C1([H])O[H]

$$$$
107:0:2
     RDKit          3D

 44 48  0  0  1  0  0  0  0  0999 V2000
    2.1960    2.5072    3.9117 C   0  0  0  0  0  0  0  0  0  0  0  0
    0.7053    2.4027    3.4674 C   0  0  2  0  0  0  0  0  0  0  0  0
   -0.1733    3.0415    4.4047 O   0  0  0  0  0  0  0  0  0  0  0  0
   -0.2909    2.4478    5.6614 C   0  0  1  0  0  0  0  0  0  0  0  0
   -1.1651    3.2173    6.4279 O   0  0  0  0  0  0  0  0  0  0  0  0
   -0.7022    3.5175    7.7573 C   0  0  2  0  0  0  0  0  0  0  0  0
   -1.2422    2.5095    8.8257 C   0  0  2  0  0  0  0  0  0  0  0  0
   -2.7867    2.7278    8.6893 C   0  0  0  0  0  0  0  0  0  0  0  0
   -2.7404    4.2341    8.9595 C   0  0  2  0  0  0  0  0  0  0  0  0
   -1.3884    4.7372    8.3609 C   0  0  1  0  0  0  0  0  0  0  0  0
   -0.8449    4.6856    9.7391 C   0  0  1  0  0  0  0  0  0  0  0  0
    0.1750    5.6718   10.2370 C   0  0  0  0  0  0  0  0  0  0  0  0
   -2.1097    4.2267   10.3140 C   0  0  2  0  0  0  0  0  0  0  0  0
   -0.9684    3.2379   10.1246 C   0  0  1  0  0  0  0  0  0  0  0  0
   -0.2299    2.5791   11.2498 C   0  0  0  0  0  0  0  0  0  0  0  0
   -0.8696    1.0305    5.5048 C   0  0  0  0  0  0  0  0  0  0  0  0
    0.0344    0.2254    4.5546 C   0  0  1  0  0  0  0  0  0  0  0  0
   -0.4004   -1.1054    4.3944 O   0  0  0  0  0  0  0  0  0  0  0  0
    0.2255    0.9540    3.2102 C   0  0  1  0  0  0  0  0  0  0  0  0
   -0.9636    0.9760    2.4346 O   0  0  0  0  0  0  0  0  0  0  0  0
    2.8744    2.1677    3.1356 H   0  0  0  0  0  0  0  0  0  0  0  0
    2.4299    1.9782    4.8426 H   0  0  0  0  0  0  0  0  0  0  0  0
    2.4676    3.5492    4.0800 H   0  0  0  0  0  0  0  0  0  0  0  0
    0.6066    2.9479    2.5338 H   0  0  0  0  0  0  0  0  0  0  0  0
    0.6913    2.4218    6.1140 H   0  0  0  0  0  0  0  0  0  0  0  0
    0.3692    3.6489    7.8028 H   0  0  0  0  0  0  0  0  0  0  0  0
   -0.8674    1.4797    8.7853 H   0  0  0  0  0  0  0  0  0  0  0  0
   -3.1832    2.4645    7.7001 H   0  0  0  0  0  0  0  0  0  0  0  0
   -3.3477    2.2053    9.4629 H   0  0  0  0  0  0  0  0  0  0  0  0
   -3.6268    4.8611    8.8433 H   0  0  0  0  0  0  0  0  0  0  0  0
   -1.3676    5.7137    7.8726 H   0  0  0  0  0  0  0  0  0  0  0  0
    0.3126    5.5269   11.3000 H   0  0  0  0  0  0  0  0  0  0  0  0
   -0.1761    6.6808   10.0310 H   0  0  0  0  0  0  0  0  0  0  0  0
    1.1179    5.5003    9.7109 H   0  0  0  0  0  0  0  0  0  0  0  0
   -2.5059    4.6770   11.2235 H   0  0  0  0  0  0  0  0  0  0  0  0
   -0.1711    3.2833   12.0827 H   0  0  0  0  0  0  0  0  0  0  0  0
    0.7792    2.3059   10.9611 H   0  0  0  0  0  0  0  0  0  0  0  0
   -0.7584    1.7007   11.5939 H   0  0  0  0  0  0  0  0  0  0  0  0
   -0.9159    0.5652    6.4772 H   0  0  0  0  0  0  0  0  0  0  0  0
   -1.8983    1.0575    5.1386 H   0  0  0  0  0  0  0  0  0  0  0  0
    1.0245    0.1587    5.0196 H   0  0  0  0  0  0  0  0  0  0  0  0
   -0.1515   -1.6031    5.1468 H   0  0  0  0  0  0  0  0  0  0  0  0
    0.9765    0.4348    2.6123 H   0  0  0  0  0  0  0  0  0  0  0  0
   -0.7762    1.3700    1.5932 H   0  0  0  0  0  0  0  0  0  0  0  0
  1  2  1  0
  1 21  1  0
  1 22  1  0
  1 23  1  0
  2 19  1  0
  2  3  1  0
  2 24  1  6
  3  4  1  0
  4  5  1  0
  4 16  1  0
  4 25  1  1
  5  6  1  0
  6 10  1  0
  6  7  1  0
  6 26  1  6
  7 14  1  0
  7  8  1  0
  7 27  1  1
  8  9  1  0
  8 28  1  0
  8 29  1  0
  9 13  1  0
  9 10  1  0
  9 30  1  1
 10 11  1  0
 10 31  1  6
 11 14  1  0
 11 12  1  1
 11 13  1  0
 12 32  1  0
 12 33  1  0
 12 34  1  0
 13 14  1  0
 13 35  1  1
 14 15  1  1
 15 36  1  0
 15 37  1  0
 15 38  1  0
 16 17  1  0
 16 39  1  0
 16 40  1  0
 17 18  1  0
 17 19  1  0
 17 41  1  1
 18 42  1  0
 19 20  1  0
 19 43  1  6
 20 44  1  0
M  END
>  <i_m_ct_stereo_status>  (331) 
1

>  <s_m_source_file>  (331) 
/var/tmp/pbs.5076255.sched01/tmpux3k924y/120tsqzh4i4.sdf

>  <i_m_source_file_index>  (331) 
24

>  <i_lp_mmshare_version>  (331) 
48012

>  <i_f3d_flags>  (331) 
0

>  <s_epik_input>  (331) 
W09IXVtDQEBIXTFbQ0BIXShbT0hdKVtDSDJdW0NAQEhdKE9bQ0BIXTFbQ0gzXSlPW0NAQEhdMltDQEhdKFtDSDJdMylbQ0BdNChbQ0gzXSlbQ0BASF01W0NASF0zW0NASF0yW0NAXTQ1W0NIM10=

>  <s_epik_cmdline>  (331) 
J2VwaWtfcHl0aG9uJywgJy1waHQnLCAnMi4wJywgJy1waCcsICc3LjAnLCAnLXRuJywgJzgnLCAnLW1hJywgJzIwMCcsICctaW1hZScsICc8aW5maWxlLm1hZT4nLCAnLW9tYWUnLCAnPG91dGZpbGUubWFlPic=

>  <r_lp_tautomer_probability>  (331) 
1

>  <r_epik_Ionization_Penalty>  (331) 
9.35635e-08

>  <r_epik_Ionization_Penalty_Charging>  (331) 
0

>  <r_epik_Ionization_Penalty_Neutral>  (331) 
9.35635e-08

>  <r_epik_State_Penalty>  (331) 
-0

>  <r_epik_Charging_Adjusted_Penalty>  (331) 
0

>  <i_epik_Tot_Q>  (331) 
0

>  <i_epik_Tot_abs_Q>  (331) 
0

>  <s_epik_Chemistry_Notes>  (331) 
This compound contains an acetal/aminal-like group ( X-CH(R)-Y where X, Y are N, S, or O) that may be acid/base labile, releasing an aldehyde.

>  <s_lp_Force_Field>  (331) 
OPLS3e

>  <r_lp_Energy>  (331) 
55.8684

>  <b_lp_Chiralities_Consistent>  (331) 
1

>  <s_lp_Variant>  (331) 
107:0-1

>  <s_i_glide_gridfile>  (331) 
pfpi4k_grid

>  <i_i_glide_lignum>  (331) 
24

>  <i_i_glide_rotatable_bonds>  (331) 
4

>  <r_i_docking_score>  (331) 
-1.89084

>  <r_i_glide_ligand_efficiency>  (331) 
-0.0945421

>  <r_i_glide_ligand_efficiency_sa>  (331) 
-0.256627

>  <r_i_glide_ligand_efficiency_ln>  (331) 
-0.473216

>  <r_i_glide_gscore>  (331) 
-1.89084

>  <r_i_glide_lipo>  (331) 
-0.0617646

>  <r_i_glide_hbond>  (331) 
0

>  <r_i_glide_metal>  (331) 
-0

>  <r_i_glide_rewards>  (331) 
-1.49755

>  <r_i_glide_evdw>  (331) 
-19.3167

>  <r_i_glide_ecoul>  (331) 
1.18454

>  <r_i_glide_erotb>  (331) 
0.459501

>  <r_i_glide_esite>  (331) 
-0.00287613

>  <r_i_glide_emodel>  (331) 
-18.8583

>  <r_i_glide_energy>  (331) 
-18.1322

>  <r_i_glide_einternal>  (331) 
4.92281

>  <r_i_glide_intrahb_reward>  (331) 
-0

>  <i_i_glide_confnum>  (331) 
6

>  <i_i_glide_posenum>  (331) 
11

>  <r_i_glide_eff_state_penalty>  (331) 
0

>  <ligand_id>  (331) 
107

>  <original_smiles>  (331) 
CC1OC(OC2C3CC4C2C2(C)C4C32C)CC(O)C1O

>  <smiles>  (331) 
[H]OC1([H])C([H])([H])C([H])(OC2([H])C3([H])C([H])([H])C4([H])C2([H])C2(C([H])([H])[H])C4([H])C32C([H])([H])[H])OC([H])(C([H])([H])[H])C1([H])O[H]

$$$$
108:0:0
     RDKit          3D

 68 75  0  0  1  0  0  0  0  0999 V2000
    1.9254   -8.3126    2.0369 C   0  0  0  0  0  0  0  0  0  0  0  0
    3.1691   -8.0563    2.6678 O   0  0  0  0  0  0  0  0  0  0  0  0
    4.0688   -7.2553    1.9846 C   0  0  0  0  0  0  0  0  0  0  0  0
    3.6629   -6.5234    0.8699 C   0  0  0  0  0  0  0  0  0  0  0  0
    4.6053   -5.7279    0.1927 C   0  0  0  0  0  0  0  0  0  0  0  0
    5.8780   -5.6029    0.5969 N   0  0  0  0  0  0  0  0  0  0  0  0
    6.2642   -6.3189    1.6930 C   0  0  0  0  0  0  0  0  0  0  0  0
    5.4134   -7.1652    2.4107 C   0  0  0  0  0  0  0  0  0  0  0  0
    5.9463   -7.9063    3.6587 C   0  0  2  0  0  0  0  0  0  0  0  0
    7.3997   -8.0418    3.5890 O   0  0  0  0  0  0  0  0  0  0  0  0
    8.1685   -8.9242    4.3442 C   0  0  0  0  0  0  0  0  0  0  0  0
    9.4116   -8.9213    4.2020 O   0  0  0  0  0  0  0  0  0  0  0  0
    7.4404   -9.8546    5.3180 C   0  0  1  0  0  0  0  0  0  0  0  0
    7.4596   -9.3774    6.7813 C   0  0  0  0  0  0  0  0  0  0  0  0
    6.1734   -8.5903    6.5147 C   0  0  2  0  0  0  0  0  0  0  0  0
    4.8882   -8.6702    7.2941 C   0  0  0  0  0  0  0  0  0  0  0  0
    3.9391   -9.5101    6.4376 C   0  0  1  0  0  0  0  0  0  0  0  0
    2.4866   -9.0776    6.1180 C   0  0  1  0  0  0  0  0  0  0  0  0
    2.0725   -7.6731    5.6824 C   0  0  0  0  0  0  0  0  0  0  0  0
    2.6037   -6.4059    5.9471 C   0  0  0  0  0  0  0  0  0  0  0  0
    1.9689   -5.2707    5.4260 C   0  0  0  0  0  0  0  0  0  0  0  0
    2.4555   -4.0101    5.7248 O   0  0  0  0  0  0  0  0  0  0  0  0
    0.8076   -5.3800    4.6285 C   0  0  0  0  0  0  0  0  0  0  0  0
    0.2592   -6.6624    4.3680 C   0  0  0  0  0  0  0  0  0  0  0  0
    0.8825   -7.8053    4.9109 C   0  0  0  0  0  0  0  0  0  0  0  0
    0.4934   -9.2533    4.7738 C   0  0  0  0  0  0  0  0  0  0  0  0
    1.8555   -9.9702    5.0394 C   0  0  2  0  0  0  0  0  0  0  0  0
    1.9241  -11.4736    5.2488 N   0  0  1  0  0  0  0  0  0  0  0  0
    0.7361  -12.1425    4.6909 C   0  0  0  0  0  0  0  0  0  0  0  0
    3.1569  -12.1043    4.7272 C   0  0  0  0  0  0  0  0  0  0  0  0
    4.5472  -11.5999    5.2373 C   0  0  0  0  0  0  0  0  0  0  0  0
    4.7256  -10.0775    5.2526 C   0  0  1  0  0  0  0  0  0  0  0  0
    5.3008   -9.2809    3.9771 C   0  0  1  0  0  0  0  0  0  0  0  0
    5.5109  -10.2076    2.7553 C   0  0  0  0  0  0  0  0  0  0  0  0
    6.0273   -9.4404    5.2681 C   0  0  2  0  0  0  0  0  0  0  0  0
    1.4241   -9.0732    2.6225 H   0  0  0  0  0  0  0  0  0  0  0  0
    2.0278   -8.7534    1.0551 H   0  0  0  0  0  0  0  0  0  0  0  0
    1.3265   -7.4000    2.0289 H   0  0  0  0  0  0  0  0  0  0  0  0
    2.6669   -6.5698    0.4715 H   0  0  0  0  0  0  0  0  0  0  0  0
    4.2929   -5.1868   -0.6836 H   0  0  0  0  0  0  0  0  0  0  0  0
    7.2964   -6.1604    1.9780 H   0  0  0  0  0  0  0  0  0  0  0  0
    5.6775   -7.2078    4.4532 H   0  0  0  0  0  0  0  0  0  0  0  0
    7.6224  -10.9120    5.1386 H   0  0  0  0  0  0  0  0  0  0  0  0
    7.2445  -10.2343    7.4400 H   0  0  0  0  0  0  0  0  0  0  0  0
    8.3353   -8.8161    7.1066 H   0  0  0  0  0  0  0  0  0  0  0  0
    6.4601   -7.5433    6.3218 H   0  0  0  0  0  0  0  0  0  0  0  0
    5.0661   -9.1622    8.2530 H   0  0  0  0  0  0  0  0  0  0  0  0
    4.4889   -7.7069    7.5589 H   0  0  0  0  0  0  0  0  0  0  0  0
    3.7555  -10.3600    7.0923 H   0  0  0  0  0  0  0  0  0  0  0  0
    1.9183   -9.2188    7.0381 H   0  0  0  0  0  0  0  0  0  0  0  0
    3.4831   -6.2596    6.5644 H   0  0  0  0  0  0  0  0  0  0  0  0
    3.2173   -4.0071    6.2482 H   0  0  0  0  0  0  0  0  0  0  0  0
    0.3492   -4.5001    4.2281 H   0  0  0  0  0  0  0  0  0  0  0  0
   -0.6015   -6.7540    3.7262 H   0  0  0  0  0  0  0  0  0  0  0  0
   -0.2380   -9.4814    5.5688 H   0  0  0  0  0  0  0  0  0  0  0  0
    0.0071   -9.5182    3.8341 H   0  0  0  0  0  0  0  0  0  0  0  0
    2.4722   -9.8435    4.1446 H   0  0  0  0  0  0  0  0  0  0  0  0
    0.6653  -12.0201    3.5976 H   0  0  0  0  0  0  0  0  0  0  0  0
   -0.1841  -11.7850    5.1444 H   0  0  0  0  0  0  0  0  0  0  0  0
    0.7684  -13.2046    4.9824 H   0  0  0  0  0  0  0  0  0  0  0  0
    3.1146  -13.1717    4.9798 H   0  0  0  0  0  0  0  0  0  0  0  0
    3.1560  -12.1085    3.6307 H   0  0  0  0  0  0  0  0  0  0  0  0
    4.7459  -12.0024    6.2245 H   0  0  0  0  0  0  0  0  0  0  0  0
    5.3217  -12.0531    4.6253 H   0  0  0  0  0  0  0  0  0  0  0  0
    4.6501  -10.8614    2.6198 H   0  0  0  0  0  0  0  0  0  0  0  0
    6.3910  -10.8398    2.8904 H   0  0  0  0  0  0  0  0  0  0  0  0
    5.6304   -9.6644    1.8227 H   0  0  0  0  0  0  0  0  0  0  0  0
    1.8573  -11.6479    6.2723 H   0  0  0  0  0  0  0  0  0  0  0  0
  1  2  1  0
  1 36  1  0
  1 37  1  0
  1 38  1  0
  2  3  1  0
  3  8  2  0
  3  4  1  0
  4  5  2  0
  4 39  1  0
  5  6  1  0
  5 40  1  0
  6  7  2  0
  7  8  1  0
  7 41  1  0
  8  9  1  0
  9 33  1  0
  9 10  1  0
  9 42  1  1
 10 11  1  0
 11 12  2  0
 11 13  1  0
 13 35  1  0
 13 14  1  0
 13 43  1  1
 14 15  1  0
 14 44  1  0
 14 45  1  0
 15 35  1  0
 15 16  1  0
 15 46  1  6
 16 17  1  0
 16 47  1  0
 16 48  1  0
 17 32  1  0
 17 18  1  0
 17 49  1  1
 18 27  1  0
 18 19  1  0
 18 50  1  1
 19 25  2  0
 19 20  1  0
 20 21  2  0
 20 51  1  0
 21 22  1  0
 21 23  1  0
 22 52  1  0
 23 24  2  0
 23 53  1  0
 24 25  1  0
 24 54  1  0
 25 26  1  0
 26 27  1  0
 26 55  1  0
 26 56  1  0
 27 28  1  0
 27 57  1  6
 28 29  1  0
 28 30  1  0
 28 68  1  1
 29 58  1  0
 29 59  1  0
 29 60  1  0
 30 31  1  0
 30 61  1  0
 30 62  1  0
 32 31  1  6
 31 63  1  0
 31 64  1  0
 32 35  1  0
 32 33  1  0
 33 34  1  1
 35 33  1  6
 34 65  1  0
 34 66  1  0
 34 67  1  0
M  CHG  1  28   1
M  END
>  <i_m_ct_stereo_status>  (332) 
1

>  <s_m_source_file>  (332) 
/var/tmp/pbs.5076255.sched01/tmpux3k924y/120tsqzh4i4.sdf

>  <i_m_source_file_index>  (332) 
25

>  <i_lp_mmshare_version>  (332) 
48012

>  <i_f3d_flags>  (332) 
0

>  <s_epik_input>  (332) 
W0NIM11PYzFbY0hdW2NIXW5bY0hdYzFbQ0BASF0oW0NAXTIzW0NIM10pT0MoPU8pW0NASF0oW0NAXTM0W0NAXTI1NilbQ0gyXVtDQEBIXTRbQ0gyXVtDQEhdNVtDQEhdN2M4YyhbY0hdW2NIXWMoW2NIXTgpW09IXSlbQ0gyXVtDQEBIXTdOKFtDSDNdKVtDSDJdW0NIMl02

>  <s_epik_cmdline>  (332) 
J2VwaWtfcHl0aG9uJywgJy1waHQnLCAnMi4wJywgJy1waCcsICc3LjAnLCAnLXRuJywgJzgnLCAnLW1hJywgJzIwMCcsICctaW1hZScsICc8aW5maWxlLm1hZT4nLCAnLW9tYWUnLCAnPG91dGZpbGUubWFlPic=

>  <r_lp_tautomer_probability>  (332) 
1

>  <r_epik_Ionization_Penalty>  (332) 
0.383322

>  <r_epik_Ionization_Penalty_Charging>  (332) 
0.00786162

>  <r_epik_Ionization_Penalty_Neutral>  (332) 
0.375461

>  <r_epik_State_Penalty>  (332) 
0.369831

>  <r_epik_Charging_Adjusted_Penalty>  (332) 
0.377693

>  <i_epik_Tot_Q>  (332) 
1

>  <i_epik_Tot_abs_Q>  (332) 
1

>  <s_epik_Chemistry_Notes>  (332) 
This compound has an ester and may undergo hydrolysis at high or low pH.

>  <s_lp_Force_Field>  (332) 
OPLS3e

>  <r_lp_Energy>  (332) 
171.014

>  <b_lp_Chiralities_Consistent>  (332) 
1

>  <s_lp_Variant>  (332) 
108:0-1

>  <s_i_glide_gridfile>  (332) 
pfpi4k_grid

>  <i_i_glide_lignum>  (332) 
25

>  <i_i_glide_rotatable_bonds>  (332) 
3

>  <r_i_docking_score>  (332) 
-2.76581

>  <r_i_glide_ligand_efficiency>  (332) 
-0.0790232

>  <r_i_glide_ligand_efficiency_sa>  (332) 
-0.25849

>  <r_i_glide_ligand_efficiency_ln>  (332) 
-0.607157

>  <r_i_glide_gscore>  (332) 
-2.76581

>  <r_i_glide_lipo>  (332) 
-0.238102

>  <r_i_glide_hbond>  (332) 
-0.2

>  <r_i_glide_metal>  (332) 
-0

>  <r_i_glide_rewards>  (332) 
-0.192508

>  <r_i_glide_evdw>  (332) 
-20.3694

>  <r_i_glide_ecoul>  (332) 
-7.3795

>  <r_i_glide_erotb>  (332) 
0.0901931

>  <r_i_glide_esite>  (332) 
-0.1

>  <r_i_glide_emodel>  (332) 
-32.3717

>  <r_i_glide_energy>  (332) 
-27.7489

>  <r_i_glide_einternal>  (332) 
1.46131

>  <r_i_glide_intrahb_reward>  (332) 
-0

>  <i_i_glide_confnum>  (332) 
3

>  <i_i_glide_posenum>  (332) 
1

>  <r_i_glide_eff_state_penalty>  (332) 
0

>  <ligand_id>  (332) 
108

>  <original_smiles>  (332) 
COc1ccncc1C1OC(=O)C2CC3CC4C5c6cc(O)ccc6CC5N(C)CCC45C1(C)C325

>  <smiles>  (332) 
[H]Oc1c([H])c([H])c2c(c1[H])C1([H])C3([H])C([H])([H])C4([H])C([H])([H])C5([H])C(=O)OC([H])(c6c([H])nc([H])c([H])c6OC([H])([H])[H])C6(C([H])([H])[H])C3(C([H])([H])C([H])([H])[N+]([H])(C([H])([H])[H])C1([H])C2([H])[H])C546

$$$$
108:0:1
     RDKit          3D

 68 75  0  0  1  0  0  0  0  0999 V2000
    7.1855   -4.2806    0.8920 C   0  0  0  0  0  0  0  0  0  0  0  0
    6.6005   -5.2673    1.7337 O   0  0  0  0  0  0  0  0  0  0  0  0
    5.2559   -5.5628    1.6144 C   0  0  0  0  0  0  0  0  0  0  0  0
    4.4256   -4.9352    0.6519 C   0  0  0  0  0  0  0  0  0  0  0  0
    3.0592   -5.2593    0.6105 C   0  0  0  0  0  0  0  0  0  0  0  0
    2.4732   -6.1316    1.4501 N   0  0  0  0  0  0  0  0  0  0  0  0
    3.2610   -6.7378    2.3608 C   0  0  0  0  0  0  0  0  0  0  0  0
    4.6515   -6.5147    2.4855 C   0  0  0  0  0  0  0  0  0  0  0  0
    5.4170   -7.2533    3.5939 C   0  0  2  0  0  0  0  0  0  0  0  0
    6.8578   -7.2768    3.3686 O   0  0  0  0  0  0  0  0  0  0  0  0
    7.7945   -8.1274    3.9736 C   0  0  0  0  0  0  0  0  0  0  0  0
    8.9897   -8.0099    3.7315 O   0  0  0  0  0  0  0  0  0  0  0  0
    7.2402   -9.1744    4.9441 C   0  0  1  0  0  0  0  0  0  0  0  0
    7.3746   -8.8055    6.4347 C   0  0  0  0  0  0  0  0  0  0  0  0
    6.0124   -8.1124    6.3611 C   0  0  2  0  0  0  0  0  0  0  0  0
    4.8193   -8.3821    7.2480 C   0  0  0  0  0  0  0  0  0  0  0  0
    3.8532   -9.2271    6.4113 C   0  0  1  0  0  0  0  0  0  0  0  0
    2.3553   -8.9030    6.2550 C   0  0  1  0  0  0  0  0  0  0  0  0
    1.7905   -7.5211    5.9581 C   0  0  0  0  0  0  0  0  0  0  0  0
    2.2406   -6.2318    6.3260 C   0  0  0  0  0  0  0  0  0  0  0  0
    1.4506   -5.1181    5.9704 C   0  0  0  0  0  0  0  0  0  0  0  0
    1.8401   -3.8604    6.3233 O   0  0  0  0  0  0  0  0  0  0  0  0
    0.2370   -5.2842    5.2707 C   0  0  0  0  0  0  0  0  0  0  0  0
   -0.2103   -6.5740    4.9062 C   0  0  0  0  0  0  0  0  0  0  0  0
    0.5865   -7.6724    5.2639 C   0  0  0  0  0  0  0  0  0  0  0  0
    0.2954   -9.1327    4.9912 C   0  0  0  0  0  0  0  0  0  0  0  0
    1.7097   -9.7439    5.1312 C   0  0  2  0  0  0  0  0  0  0  0  0
    1.8816  -11.2255    5.2702 N   0  0  1  0  0  0  0  0  0  0  0  0
    0.7036  -11.9852    4.7866 C   0  0  0  0  0  0  0  0  0  0  0  0
    3.1096  -11.7479    4.5829 C   0  0  0  0  0  0  0  0  0  0  0  0
    4.4838  -11.1528    4.9989 C   0  0  0  0  0  0  0  0  0  0  0  0
    4.5492   -9.6193    5.1132 C   0  0  1  0  0  0  0  0  0  0  0  0
    4.9202   -8.6885    3.8661 C   0  0  1  0  0  0  0  0  0  0  0  0
    5.0697   -9.4956    2.5635 C   0  0  0  0  0  0  0  0  0  0  0  0
    5.7954   -8.8809    5.0664 C   0  0  2  0  0  0  0  0  0  0  0  0
    8.2545   -4.2174    1.0977 H   0  0  0  0  0  0  0  0  0  0  0  0
    6.7592   -3.2975    1.0850 H   0  0  0  0  0  0  0  0  0  0  0  0
    7.0776   -4.5212   -0.1647 H   0  0  0  0  0  0  0  0  0  0  0  0
    4.8021   -4.2041   -0.0450 H   0  0  0  0  0  0  0  0  0  0  0  0
    2.4106   -4.8020   -0.1172 H   0  0  0  0  0  0  0  0  0  0  0  0
    2.7560   -7.4203    3.0263 H   0  0  0  0  0  0  0  0  0  0  0  0
    5.1851   -6.6421    4.4625 H   0  0  0  0  0  0  0  0  0  0  0  0
    7.4793  -10.2052    4.6796 H   0  0  0  0  0  0  0  0  0  0  0  0
    7.3199   -9.7114    7.0452 H   0  0  0  0  0  0  0  0  0  0  0  0
    8.2270   -8.1762    6.7082 H   0  0  0  0  0  0  0  0  0  0  0  0
    6.2004   -7.0470    6.2333 H   0  0  0  0  0  0  0  0  0  0  0  0
    5.1280   -8.9313    8.1372 H   0  0  0  0  0  0  0  0  0  0  0  0
    4.3726   -7.4751    7.6234 H   0  0  0  0  0  0  0  0  0  0  0  0
    3.8128  -10.1399    7.0098 H   0  0  0  0  0  0  0  0  0  0  0  0
    1.8858   -9.1715    7.2021 H   0  0  0  0  0  0  0  0  0  0  0  0
    3.1457   -6.0636    6.8799 H   0  0  0  0  0  0  0  0  0  0  0  0
    2.6839   -3.8137    6.7442 H   0  0  0  0  0  0  0  0  0  0  0  0
   -0.3505   -4.4184    5.0237 H   0  0  0  0  0  0  0  0  0  0  0  0
   -1.1418   -6.7102    4.3754 H   0  0  0  0  0  0  0  0  0  0  0  0
   -0.3768   -9.4889    5.7722 H   0  0  0  0  0  0  0  0  0  0  0  0
   -0.1601   -9.2994    4.0146 H   0  0  0  0  0  0  0  0  0  0  0  0
    2.1814   -9.4728    4.1861 H   0  0  0  0  0  0  0  0  0  0  0  0
    0.5031  -11.7845    3.7304 H   0  0  0  0  0  0  0  0  0  0  0  0
   -0.1802  -11.7631    5.3852 H   0  0  0  0  0  0  0  0  0  0  0  0
    0.8769  -13.0619    4.8763 H   0  0  0  0  0  0  0  0  0  0  0  0
    3.1765  -12.8204    4.7675 H   0  0  0  0  0  0  0  0  0  0  0  0
    2.9926  -11.6665    3.5045 H   0  0  0  0  0  0  0  0  0  0  0  0
    4.8220  -11.5950    5.9395 H   0  0  0  0  0  0  0  0  0  0  0  0
    5.2322  -11.4895    4.2784 H   0  0  0  0  0  0  0  0  0  0  0  0
    4.2585  -10.2135    2.4579 H   0  0  0  0  0  0  0  0  0  0  0  0
    6.0089  -10.0504    2.5601 H   0  0  0  0  0  0  0  0  0  0  0  0
    5.0535   -8.8751    1.6700 H   0  0  0  0  0  0  0  0  0  0  0  0
    1.9273  -11.4859    6.2595 H   0  0  0  0  0  0  0  0  0  0  0  0
  1  2  1  0
  1 36  1  0
  1 37  1  0
  1 38  1  0
  2  3  1  0
  3  8  2  0
  3  4  1  0
  4  5  2  0
  4 39  1  0
  5  6  1  0
  5 40  1  0
  6  7  2  0
  7  8  1  0
  7 41  1  0
  8  9  1  0
  9 33  1  0
  9 10  1  0
  9 42  1  1
 10 11  1  0
 11 12  2  0
 11 13  1  0
 13 35  1  0
 13 14  1  0
 13 43  1  1
 14 15  1  0
 14 44  1  0
 14 45  1  0
 15 35  1  0
 15 16  1  0
 15 46  1  6
 16 17  1  0
 16 47  1  0
 16 48  1  0
 17 32  1  0
 17 18  1  0
 17 49  1  1
 18 27  1  0
 18 19  1  0
 18 50  1  1
 19 25  2  0
 19 20  1  0
 20 21  2  0
 20 51  1  0
 21 22  1  0
 21 23  1  0
 22 52  1  0
 23 24  2  0
 23 53  1  0
 24 25  1  0
 24 54  1  0
 25 26  1  0
 26 27  1  0
 26 55  1  0
 26 56  1  0
 27 28  1  0
 27 57  1  6
 28 29  1  0
 28 30  1  0
 28 68  1  1
 29 58  1  0
 29 59  1  0
 29 60  1  0
 30 31  1  0
 30 61  1  0
 30 62  1  0
 32 31  1  6
 31 63  1  0
 31 64  1  0
 32 35  1  0
 32 33  1  0
 33 34  1  1
 35 33  1  6
 34 65  1  0
 34 66  1  0
 34 67  1  0
M  CHG  1  28   1
M  END
>  <i_m_ct_stereo_status>  (333) 
1

>  <s_m_source_file>  (333) 
/var/tmp/pbs.5076255.sched01/tmpux3k924y/120tsqzh4i4.sdf

>  <i_m_source_file_index>  (333) 
25

>  <i_lp_mmshare_version>  (333) 
48012

>  <i_f3d_flags>  (333) 
0

>  <s_epik_input>  (333) 
W0NIM11PYzFbY0hdW2NIXW5bY0hdYzFbQ0BASF0oW0NAXTIzW0NIM10pT0MoPU8pW0NASF0oW0NAXTM0W0NAXTI1NilbQ0gyXVtDQEBIXTRbQ0gyXVtDQEhdNVtDQEhdN2M4YyhbY0hdW2NIXWMoW2NIXTgpW09IXSlbQ0gyXVtDQEBIXTdOKFtDSDNdKVtDSDJdW0NIMl02

>  <s_epik_cmdline>  (333) 
J2VwaWtfcHl0aG9uJywgJy1waHQnLCAnMi4wJywgJy1waCcsICc3LjAnLCAnLXRuJywgJzgnLCAnLW1hJywgJzIwMCcsICctaW1hZScsICc8aW5maWxlLm1hZT4nLCAnLW9tYWUnLCAnPG91dGZpbGUubWFlPic=

>  <r_lp_tautomer_probability>  (333) 
1

>  <r_epik_Ionization_Penalty>  (333) 
0.383322

>  <r_epik_Ionization_Penalty_Charging>  (333) 
0.00786162

>  <r_epik_Ionization_Penalty_Neutral>  (333) 
0.375461

>  <r_epik_State_Penalty>  (333) 
0.369831

>  <r_epik_Charging_Adjusted_Penalty>  (333) 
0.377693

>  <i_epik_Tot_Q>  (333) 
1

>  <i_epik_Tot_abs_Q>  (333) 
1

>  <s_epik_Chemistry_Notes>  (333) 
This compound has an ester and may undergo hydrolysis at high or low pH.

>  <s_lp_Force_Field>  (333) 
OPLS3e

>  <r_lp_Energy>  (333) 
171.014

>  <b_lp_Chiralities_Consistent>  (333) 
1

>  <s_lp_Variant>  (333) 
108:0-1

>  <s_i_glide_gridfile>  (333) 
pfpi4k_grid

>  <i_i_glide_lignum>  (333) 
25

>  <i_i_glide_rotatable_bonds>  (333) 
3

>  <r_i_docking_score>  (333) 
-2.62696

>  <r_i_glide_ligand_efficiency>  (333) 
-0.0750561

>  <r_i_glide_ligand_efficiency_sa>  (333) 
-0.245513

>  <r_i_glide_ligand_efficiency_ln>  (333) 
-0.576677

>  <r_i_glide_gscore>  (333) 
-2.62696

>  <r_i_glide_lipo>  (333) 
-0.221867

>  <r_i_glide_hbond>  (333) 
-0.2

>  <r_i_glide_metal>  (333) 
-0

>  <r_i_glide_rewards>  (333) 
-0.180114

>  <r_i_glide_evdw>  (333) 
-21.6106

>  <r_i_glide_ecoul>  (333) 
-6.21477

>  <r_i_glide_erotb>  (333) 
0.0901931

>  <r_i_glide_esite>  (333) 
-0.102428

>  <r_i_glide_emodel>  (333) 
-33.4789

>  <r_i_glide_energy>  (333) 
-27.8254

>  <r_i_glide_einternal>  (333) 
1.54808

>  <r_i_glide_intrahb_reward>  (333) 
-0

>  <i_i_glide_confnum>  (333) 
3

>  <i_i_glide_posenum>  (333) 
34

>  <r_i_glide_eff_state_penalty>  (333) 
0

>  <ligand_id>  (333) 
108

>  <original_smiles>  (333) 
COc1ccncc1C1OC(=O)C2CC3CC4C5c6cc(O)ccc6CC5N(C)CCC45C1(C)C325

>  <smiles>  (333) 
[H]Oc1c([H])c([H])c2c(c1[H])C1([H])C3([H])C([H])([H])C4([H])C([H])([H])C5([H])C(=O)OC([H])(c6c([H])nc([H])c([H])c6OC([H])([H])[H])C6(C([H])([H])[H])C3(C([H])([H])C([H])([H])[N+]([H])(C([H])([H])[H])C1([H])C2([H])[H])C546

$$$$
108:1:0
     RDKit          3D

 69 76  0  0  1  0  0  0  0  0999 V2000
   -1.6556   -8.8117    2.9078 C   0  0  0  0  0  0  0  0  0  0  0  0
   -0.5779   -8.4134    3.7385 O   0  0  0  0  0  0  0  0  0  0  0  0
    0.5858   -9.1592    3.7273 C   0  0  0  0  0  0  0  0  0  0  0  0
    0.6518  -10.4664    3.1807 C   0  0  0  0  0  0  0  0  0  0  0  0
    1.8450  -11.2136    3.2818 C   0  0  0  0  0  0  0  0  0  0  0  0
    2.9278  -10.6638    3.8634 N   0  0  0  0  0  0  0  0  0  0  0  0
    2.9365   -9.4043    4.3386 C   0  0  0  0  0  0  0  0  0  0  0  0
    1.7753   -8.5942    4.2724 C   0  0  0  0  0  0  0  0  0  0  0  0
    1.8494   -7.1683    4.8242 C   0  0  2  0  0  0  0  0  0  0  0  0
    0.7374   -6.8731    5.7112 O   0  0  0  0  0  0  0  0  0  0  0  0
    0.3584   -5.5986    6.1631 C   0  0  0  0  0  0  0  0  0  0  0  0
   -0.5794   -5.4701    6.9361 O   0  0  0  0  0  0  0  0  0  0  0  0
    1.1814   -4.4122    5.6337 C   0  0  1  0  0  0  0  0  0  0  0  0
    2.2408   -3.8637    6.6110 C   0  0  0  0  0  0  0  0  0  0  0  0
    3.2558   -4.8507    6.0251 C   0  0  2  0  0  0  0  0  0  0  0  0
    4.6119   -4.5042    5.4540 C   0  0  0  0  0  0  0  0  0  0  0  0
    4.4419   -4.5191    3.9304 C   0  0  1  0  0  0  0  0  0  0  0  0
    5.3939   -5.2578    2.9754 C   0  0  1  0  0  0  0  0  0  0  0  0
    5.9001   -6.6812    3.1683 C   0  0  0  0  0  0  0  0  0  0  0  0
    6.1809   -7.4214    4.3412 C   0  0  0  0  0  0  0  0  0  0  0  0
    6.7256   -8.7178    4.2087 C   0  0  0  0  0  0  0  0  0  0  0  0
    6.9947   -9.4532    5.3224 O   0  0  0  0  0  0  0  0  0  0  0  0
    7.0038   -9.2542    2.9326 C   0  0  0  0  0  0  0  0  0  0  0  0
    6.7294   -8.5116    1.7688 C   0  0  0  0  0  0  0  0  0  0  0  0
    6.1707   -7.2262    1.9138 C   0  0  0  0  0  0  0  0  0  0  0  0
    5.8127   -6.2551    0.8118 C   0  0  0  0  0  0  0  0  0  0  0  0
    4.8153   -5.3363    1.5443 C   0  0  2  0  0  0  0  0  0  0  0  0
    4.4181   -4.0188    0.9268 N   0  0  1  0  0  0  0  0  0  0  0  0
    4.6691   -3.9435   -0.5433 C   0  0  0  0  0  0  0  0  0  0  0  0
    2.9841   -3.6450    1.2024 C   0  0  0  0  0  0  0  0  0  0  0  0
    2.5314   -3.5483    2.6882 C   0  0  0  0  0  0  0  0  0  0  0  0
    2.9649   -4.7061    3.6101 C   0  0  1  0  0  0  0  0  0  0  0  0
    2.0758   -6.0376    3.7836 C   0  0  1  0  0  0  0  0  0  0  0  0
    0.8968   -6.0146    2.7995 C   0  0  0  0  0  0  0  0  0  0  0  0
    2.2948   -4.9970    4.8465 C   0  0  2  0  0  0  0  0  0  0  0  0
   -2.4250   -8.0404    2.9119 H   0  0  0  0  0  0  0  0  0  0  0  0
   -2.1267   -9.7383    3.2380 H   0  0  0  0  0  0  0  0  0  0  0  0
   -1.3393   -8.9304    1.8739 H   0  0  0  0  0  0  0  0  0  0  0  0
   -0.1849  -10.9229    2.6811 H   0  0  0  0  0  0  0  0  0  0  0  0
    1.9592  -12.2175    2.9099 H   0  0  0  0  0  0  0  0  0  0  0  0
    3.8589   -9.0858    4.7984 H   0  0  0  0  0  0  0  0  0  0  0  0
    2.7498   -7.2247    5.4277 H   0  0  0  0  0  0  0  0  0  0  0  0
    0.5878   -3.6668    5.1065 H   0  0  0  0  0  0  0  0  0  0  0  0
    2.4929   -2.8326    6.3408 H   0  0  0  0  0  0  0  0  0  0  0  0
    2.0228   -3.9619    7.6782 H   0  0  0  0  0  0  0  0  0  0  0  0
    3.2989   -5.7053    6.7009 H   0  0  0  0  0  0  0  0  0  0  0  0
    4.9271   -3.5130    5.7895 H   0  0  0  0  0  0  0  0  0  0  0  0
    5.3834   -5.1772    5.7970 H   0  0  0  0  0  0  0  0  0  0  0  0
    4.6582   -3.4766    3.6925 H   0  0  0  0  0  0  0  0  0  0  0  0
    6.3086   -4.6656    2.9442 H   0  0  0  0  0  0  0  0  0  0  0  0
    6.0124   -7.0412    5.3333 H   0  0  0  0  0  0  0  0  0  0  0  0
    7.3515  -10.3114    5.1493 H   0  0  0  0  0  0  0  0  0  0  0  0
    7.4398  -10.2326    2.8466 H   0  0  0  0  0  0  0  0  0  0  0  0
    6.9522   -8.9224    0.7972 H   0  0  0  0  0  0  0  0  0  0  0  0
    6.7223   -5.7240    0.5197 H   0  0  0  0  0  0  0  0  0  0  0  0
    5.3685   -6.7310   -0.0608 H   0  0  0  0  0  0  0  0  0  0  0  0
    3.9041   -5.9375    1.5689 H   0  0  0  0  0  0  0  0  0  0  0  0
    4.1006   -4.7124   -1.0629 H   0  0  0  0  0  0  0  0  0  0  0  0
    5.7248   -4.0675   -0.7677 H   0  0  0  0  0  0  0  0  0  0  0  0
    4.3561   -2.9752   -0.9367 H   0  0  0  0  0  0  0  0  0  0  0  0
    2.7940   -2.6696    0.7573 H   0  0  0  0  0  0  0  0  0  0  0  0
    2.3435   -4.3192    0.6440 H   0  0  0  0  0  0  0  0  0  0  0  0
    2.8509   -2.6043    3.1276 H   0  0  0  0  0  0  0  0  0  0  0  0
    1.4459   -3.4714    2.6988 H   0  0  0  0  0  0  0  0  0  0  0  0
    1.1877   -5.5413    1.8670 H   0  0  0  0  0  0  0  0  0  0  0  0
    0.0893   -5.4367    3.2411 H   0  0  0  0  0  0  0  0  0  0  0  0
    0.5557   -6.9846    2.4986 H   0  0  0  0  0  0  0  0  0  0  0  0
    4.9965   -3.2944    1.3517 H   0  0  0  0  0  0  0  0  0  0  0  0
    3.7748  -11.2352    3.9484 H   0  0  0  0  0  0  0  0  0  0  0  0
  1  2  1  0
  1 36  1  0
  1 37  1  0
  1 38  1  0
  2  3  1  0
  3  8  2  0
  3  4  1  0
  4  5  2  0
  4 39  1  0
  5  6  1  0
  5 40  1  0
  6  7  2  0
  6 69  1  0
  7  8  1  0
  7 41  1  0
  8  9  1  0
  9 33  1  0
  9 10  1  0
  9 42  1  1
 10 11  1  0
 11 12  2  0
 11 13  1  0
 13 35  1  0
 13 14  1  0
 13 43  1  6
 14 15  1  0
 14 44  1  0
 14 45  1  0
 15 35  1  0
 15 16  1  0
 15 46  1  1
 16 17  1  0
 16 47  1  0
 16 48  1  0
 17 32  1  0
 17 18  1  0
 17 49  1  6
 18 27  1  0
 18 19  1  0
 18 50  1  6
 19 25  2  0
 19 20  1  0
 20 21  2  0
 20 51  1  0
 21 22  1  0
 21 23  1  0
 22 52  1  0
 23 24  2  0
 23 53  1  0
 24 25  1  0
 24 54  1  0
 25 26  1  0
 26 27  1  0
 26 55  1  0
 26 56  1  0
 27 28  1  0
 27 57  1  1
 28 29  1  0
 28 30  1  0
 28 68  1  1
 29 58  1  0
 29 59  1  0
 29 60  1  0
 30 31  1  0
 30 61  1  0
 30 62  1  0
 32 31  1  6
 31 63  1  0
 31 64  1  0
 32 35  1  0
 32 33  1  0
 33 34  1  1
 35 33  1  6
 34 65  1  0
 34 66  1  0
 34 67  1  0
M  CHG  2   6   1  28   1
M  END
>  <i_m_ct_stereo_status>  (334) 
1

>  <s_m_source_file>  (334) 
/var/tmp/pbs.5076255.sched01/tmpux3k924y/120tsqzh4i4.sdf

>  <i_m_source_file_index>  (334) 
26

>  <i_lp_mmshare_version>  (334) 
48012

>  <i_f3d_flags>  (334) 
0

>  <s_epik_input>  (334) 
W0NIM11PYzFbY0hdW2NIXW5bY0hdYzFbQ0BASF0oW0NAXTIzW0NIM10pT0MoPU8pW0NASF0oW0NAXTM0W0NAXTI1NilbQ0gyXVtDQEBIXTRbQ0gyXVtDQEhdNVtDQEhdN2M4YyhbY0hdW2NIXWMoW2NIXTgpW09IXSlbQ0gyXVtDQEBIXTdOKFtDSDNdKVtDSDJdW0NIMl02

>  <s_epik_cmdline>  (334) 
J2VwaWtfcHl0aG9uJywgJy1waHQnLCAnMi4wJywgJy1waCcsICc3LjAnLCAnLXRuJywgJzgnLCAnLW1hJywgJzIwMCcsICctaW1hZScsICc8aW5maWxlLm1hZT4nLCAnLW9tYWUnLCAnPG91dGZpbGUubWFlPic=

>  <r_lp_tautomer_probability>  (334) 
1

>  <r_epik_Ionization_Penalty>  (334) 
0.463257

>  <r_epik_Ionization_Penalty_Charging>  (334) 
0.460105

>  <r_epik_Ionization_Penalty_Neutral>  (334) 
0.00315234

>  <r_epik_State_Penalty>  (334) 
0.454555

>  <r_epik_Charging_Adjusted_Penalty>  (334) 
0.914659

>  <i_epik_Tot_Q>  (334) 
2

>  <i_epik_Tot_abs_Q>  (334) 
2

>  <s_epik_Chemistry_Notes>  (334) 
This compound has an ester and may undergo hydrolysis at high or low pH.

>  <s_lp_Force_Field>  (334) 
OPLS3e

>  <r_lp_Energy>  (334) 
179.915

>  <b_lp_Chiralities_Consistent>  (334) 
1

>  <s_lp_Variant>  (334) 
108:0-2

>  <s_i_glide_gridfile>  (334) 
pfpi4k_grid

>  <i_i_glide_lignum>  (334) 
26

>  <i_i_glide_rotatable_bonds>  (334) 
3

>  <r_i_docking_score>  (334) 
-2.82097

>  <r_i_glide_ligand_efficiency>  (334) 
-0.0805991

>  <r_i_glide_ligand_efficiency_sa>  (334) 
-0.263645

>  <r_i_glide_ligand_efficiency_ln>  (334) 
-0.619265

>  <r_i_glide_gscore>  (334) 
-2.82097

>  <r_i_glide_lipo>  (334) 
-0.581643

>  <r_i_glide_hbond>  (334) 
0

>  <r_i_glide_metal>  (334) 
-0

>  <r_i_glide_rewards>  (334) 
-0.173241

>  <r_i_glide_evdw>  (334) 
-24.4581

>  <r_i_glide_ecoul>  (334) 
-6.10285

>  <r_i_glide_erotb>  (334) 
0.0898436

>  <r_i_glide_esite>  (334) 
-0.0175963

>  <r_i_glide_emodel>  (334) 
-37.4599

>  <r_i_glide_energy>  (334) 
-30.5609

>  <r_i_glide_einternal>  (334) 
0.849391

>  <r_i_glide_intrahb_reward>  (334) 
-0

>  <i_i_glide_confnum>  (334) 
2

>  <i_i_glide_posenum>  (334) 
3

>  <r_i_glide_eff_state_penalty>  (334) 
0

>  <ligand_id>  (334) 
108

>  <original_smiles>  (334) 
COc1ccncc1C1OC(=O)C2CC3CC4C5c6cc(O)ccc6CC5N(C)CCC45C1(C)C325

>  <smiles>  (334) 
[H]Oc1c([H])c([H])c2c(c1[H])C1([H])C3([H])C([H])([H])C4([H])C([H])([H])C5([H])C(=O)OC([H])(c6c(OC([H])([H])[H])c([H])c([H])[n+]([H])c6[H])C6(C([H])([H])[H])C3(C([H])([H])C([H])([H])[N+]([H])(C([H])([H])[H])C1([H])C2([H])[H])C546

$$$$
108:1:1
     RDKit          3D

 69 76  0  0  1  0  0  0  0  0999 V2000
   -0.3767   -9.4561    7.4424 C   0  0  0  0  0  0  0  0  0  0  0  0
    0.4218   -8.5579    6.6912 O   0  0  0  0  0  0  0  0  0  0  0  0
    1.0383   -8.9784    5.5275 C   0  0  0  0  0  0  0  0  0  0  0  0
    0.8500  -10.2789    4.9978 C   0  0  0  0  0  0  0  0  0  0  0  0
    1.5102  -10.6640    3.8141 C   0  0  0  0  0  0  0  0  0  0  0  0
    2.3329   -9.7954    3.1948 N   0  0  0  0  0  0  0  0  0  0  0  0
    2.5572   -8.5492    3.6576 C   0  0  0  0  0  0  0  0  0  0  0  0
    1.9064   -8.0850    4.8284 C   0  0  0  0  0  0  0  0  0  0  0  0
    2.2345   -6.6623    5.3149 C   0  0  2  0  0  0  0  0  0  0  0  0
    1.3413   -6.2004    6.3718 O   0  0  0  0  0  0  0  0  0  0  0  0
    1.1379   -4.8848    6.7988 C   0  0  0  0  0  0  0  0  0  0  0  0
    0.3629   -4.6431    7.7175 O   0  0  0  0  0  0  0  0  0  0  0  0
    1.9311   -3.8049    6.0607 C   0  0  1  0  0  0  0  0  0  0  0  0
    3.2036   -3.3218    6.7833 C   0  0  0  0  0  0  0  0  0  0  0  0
    3.9970   -4.4190    6.0706 C   0  0  2  0  0  0  0  0  0  0  0  0
    5.2372   -4.2285    5.2273 C   0  0  0  0  0  0  0  0  0  0  0  0
    4.7702   -4.3004    3.7712 C   0  0  1  0  0  0  0  0  0  0  0  0
    5.4645   -5.1545    2.6959 C   0  0  1  0  0  0  0  0  0  0  0  0
    5.8837   -6.6074    2.8785 C   0  0  0  0  0  0  0  0  0  0  0  0
    6.3221   -7.3154    4.0204 C   0  0  0  0  0  0  0  0  0  0  0  0
    6.7310   -8.6564    3.8650 C   0  0  0  0  0  0  0  0  0  0  0  0
    7.1710   -9.3699    4.9388 O   0  0  0  0  0  0  0  0  0  0  0  0
    6.7108   -9.2767    2.5969 C   0  0  0  0  0  0  0  0  0  0  0  0
    6.2750   -8.5682    1.4604 C   0  0  0  0  0  0  0  0  0  0  0  0
    5.8656   -7.2341    1.6274 C   0  0  0  0  0  0  0  0  0  0  0  0
    5.3735   -6.2863    0.5522 C   0  0  0  0  0  0  0  0  0  0  0  0
    4.6148   -5.2417    1.4022 C   0  0  2  0  0  0  0  0  0  0  0  0
    4.2231   -3.9199    0.8068 N   0  0  1  0  0  0  0  0  0  0  0  0
    4.1853   -3.9270   -0.6779 C   0  0  0  0  0  0  0  0  0  0  0  0
    2.9047   -3.4216    1.3191 C   0  0  0  0  0  0  0  0  0  0  0  0
    2.7443   -3.2290    2.8566 C   0  0  0  0  0  0  0  0  0  0  0  0
    3.2493   -4.3805    3.7462 C   0  0  1  0  0  0  0  0  0  0  0  0
    2.3114   -5.5982    4.1984 C   0  0  1  0  0  0  0  0  0  0  0  0
    0.9467   -5.5567    3.4963 C   0  0  0  0  0  0  0  0  0  0  0  0
    2.8164   -4.5279    5.1203 C   0  0  2  0  0  0  0  0  0  0  0  0
   -0.7722   -8.9465    8.3212 H   0  0  0  0  0  0  0  0  0  0  0  0
    0.2160  -10.2897    7.8029 H   0  0  0  0  0  0  0  0  0  0  0  0
   -1.2313   -9.8285    6.8786 H   0  0  0  0  0  0  0  0  0  0  0  0
    0.2136  -11.0025    5.4879 H   0  0  0  0  0  0  0  0  0  0  0  0
    1.4034  -11.6352    3.3578 H   0  0  0  0  0  0  0  0  0  0  0  0
    3.2595   -7.9538    3.0938 H   0  0  0  0  0  0  0  0  0  0  0  0
    3.2339   -6.8017    5.7172 H   0  0  0  0  0  0  0  0  0  0  0  0
    1.3153   -3.0275    5.6037 H   0  0  0  0  0  0  0  0  0  0  0  0
    3.4853   -2.3331    6.4131 H   0  0  0  0  0  0  0  0  0  0  0  0
    3.1901   -3.3648    7.8780 H   0  0  0  0  0  0  0  0  0  0  0  0
    4.0983   -5.2426    6.7756 H   0  0  0  0  0  0  0  0  0  0  0  0
    5.6921   -3.2608    5.4359 H   0  0  0  0  0  0  0  0  0  0  0  0
    6.0030   -4.9514    5.4613 H   0  0  0  0  0  0  0  0  0  0  0  0
    5.0173   -3.2904    3.4363 H   0  0  0  0  0  0  0  0  0  0  0  0
    6.4032   -4.6506    2.4654 H   0  0  0  0  0  0  0  0  0  0  0  0
    6.3762   -6.8733    4.9990 H   0  0  0  0  0  0  0  0  0  0  0  0
    7.1373   -8.9127    5.7646 H   0  0  0  0  0  0  0  0  0  0  0  0
    7.0501  -10.2930    2.4937 H   0  0  0  0  0  0  0  0  0  0  0  0
    6.2695   -9.0456    0.4904 H   0  0  0  0  0  0  0  0  0  0  0  0
    6.2497   -5.8510    0.0676 H   0  0  0  0  0  0  0  0  0  0  0  0
    4.7481   -6.7822   -0.1929 H   0  0  0  0  0  0  0  0  0  0  0  0
    3.6859   -5.7602    1.6429 H   0  0  0  0  0  0  0  0  0  0  0  0
    3.4584   -4.6541   -1.0369 H   0  0  0  0  0  0  0  0  0  0  0  0
    5.1600   -4.1640   -1.1050 H   0  0  0  0  0  0  0  0  0  0  0  0
    3.8870   -2.9489   -1.0696 H   0  0  0  0  0  0  0  0  0  0  0  0
    2.6991   -2.4490    0.8685 H   0  0  0  0  0  0  0  0  0  0  0  0
    2.1121   -4.0651    0.9517 H   0  0  0  0  0  0  0  0  0  0  0  0
    3.2194   -2.2972    3.1772 H   0  0  0  0  0  0  0  0  0  0  0  0
    1.6860   -3.0558    3.0641 H   0  0  0  0  0  0  0  0  0  0  0  0
    1.0591   -5.2670    2.4553 H   0  0  0  0  0  0  0  0  0  0  0  0
    0.2930   -4.8290    3.9788 H   0  0  0  0  0  0  0  0  0  0  0  0
    0.4371   -6.5196    3.4950 H   0  0  0  0  0  0  0  0  0  0  0  0
    4.9208   -3.2392    1.0724 H   0  0  0  0  0  0  0  0  0  0  0  0
    2.8169  -10.1045    2.3420 H   0  0  0  0  0  0  0  0  0  0  0  0
  1  2  1  0
  1 36  1  0
  1 37  1  0
  1 38  1  0
  2  3  1  0
  3  8  2  0
  3  4  1  0
  4  5  2  0
  4 39  1  0
  5  6  1  0
  5 40  1  0
  6  7  2  0
  6 69  1  0
  7  8  1  0
  7 41  1  0
  8  9  1  0
  9 33  1  0
  9 10  1  0
  9 42  1  1
 10 11  1  0
 11 12  2  0
 11 13  1  0
 13 35  1  0
 13 14  1  0
 13 43  1  6
 14 15  1  0
 14 44  1  0
 14 45  1  0
 15 35  1  0
 15 16  1  0
 15 46  1  1
 16 17  1  0
 16 47  1  0
 16 48  1  0
 17 32  1  0
 17 18  1  0
 17 49  1  6
 18 27  1  0
 18 19  1  0
 18 50  1  6
 19 25  2  0
 19 20  1  0
 20 21  2  0
 20 51  1  0
 21 22  1  0
 21 23  1  0
 22 52  1  0
 23 24  2  0
 23 53  1  0
 24 25  1  0
 24 54  1  0
 25 26  1  0
 26 27  1  0
 26 55  1  0
 26 56  1  0
 27 28  1  0
 27 57  1  1
 28 29  1  0
 28 30  1  0
 28 68  1  6
 29 58  1  0
 29 59  1  0
 29 60  1  0
 30 31  1  0
 30 61  1  0
 30 62  1  0
 32 31  1  6
 31 63  1  0
 31 64  1  0
 32 35  1  0
 32 33  1  0
 33 34  1  1
 35 33  1  6
 34 65  1  0
 34 66  1  0
 34 67  1  0
M  CHG  2   6   1  28   1
M  END
>  <i_m_ct_stereo_status>  (335) 
1

>  <s_m_source_file>  (335) 
/var/tmp/pbs.5076255.sched01/tmpux3k924y/120tsqzh4i4.sdf

>  <i_m_source_file_index>  (335) 
26

>  <i_lp_mmshare_version>  (335) 
48012

>  <i_f3d_flags>  (335) 
0

>  <s_epik_input>  (335) 
W0NIM11PYzFbY0hdW2NIXW5bY0hdYzFbQ0BASF0oW0NAXTIzW0NIM10pT0MoPU8pW0NASF0oW0NAXTM0W0NAXTI1NilbQ0gyXVtDQEBIXTRbQ0gyXVtDQEhdNVtDQEhdN2M4YyhbY0hdW2NIXWMoW2NIXTgpW09IXSlbQ0gyXVtDQEBIXTdOKFtDSDNdKVtDSDJdW0NIMl02

>  <s_epik_cmdline>  (335) 
J2VwaWtfcHl0aG9uJywgJy1waHQnLCAnMi4wJywgJy1waCcsICc3LjAnLCAnLXRuJywgJzgnLCAnLW1hJywgJzIwMCcsICctaW1hZScsICc8aW5maWxlLm1hZT4nLCAnLW9tYWUnLCAnPG91dGZpbGUubWFlPic=

>  <r_lp_tautomer_probability>  (335) 
1

>  <r_epik_Ionization_Penalty>  (335) 
0.463257

>  <r_epik_Ionization_Penalty_Charging>  (335) 
0.460105

>  <r_epik_Ionization_Penalty_Neutral>  (335) 
0.00315234

>  <r_epik_State_Penalty>  (335) 
0.454555

>  <r_epik_Charging_Adjusted_Penalty>  (335) 
0.914659

>  <i_epik_Tot_Q>  (335) 
2

>  <i_epik_Tot_abs_Q>  (335) 
2

>  <s_epik_Chemistry_Notes>  (335) 
This compound has an ester and may undergo hydrolysis at high or low pH.

>  <s_lp_Force_Field>  (335) 
OPLS3e

>  <r_lp_Energy>  (335) 
179.915

>  <b_lp_Chiralities_Consistent>  (335) 
1

>  <s_lp_Variant>  (335) 
108:0-2

>  <s_i_glide_gridfile>  (335) 
pfpi4k_grid

>  <i_i_glide_lignum>  (335) 
26

>  <i_i_glide_rotatable_bonds>  (335) 
3

>  <r_i_docking_score>  (335) 
-2.72492

>  <r_i_glide_ligand_efficiency>  (335) 
-0.0778549

>  <r_i_glide_ligand_efficiency_sa>  (335) 
-0.254669

>  <r_i_glide_ligand_efficiency_ln>  (335) 
-0.598181

>  <r_i_glide_gscore>  (335) 
-2.72492

>  <r_i_glide_lipo>  (335) 
-0.4994

>  <r_i_glide_hbond>  (335) 
0

>  <r_i_glide_metal>  (335) 
-0

>  <r_i_glide_rewards>  (335) 
-0.173241

>  <r_i_glide_evdw>  (335) 
-21.9551

>  <r_i_glide_ecoul>  (335) 
-6.96155

>  <r_i_glide_erotb>  (335) 
0.0898436

>  <r_i_glide_esite>  (335) 
-0.000135916

>  <r_i_glide_emodel>  (335) 
-35.7449

>  <r_i_glide_energy>  (335) 
-28.9167

>  <r_i_glide_einternal>  (335) 
1.64268

>  <r_i_glide_intrahb_reward>  (335) 
-0

>  <i_i_glide_confnum>  (335) 
2

>  <i_i_glide_posenum>  (335) 
26

>  <r_i_glide_eff_state_penalty>  (335) 
0

>  <ligand_id>  (335) 
108

>  <original_smiles>  (335) 
COc1ccncc1C1OC(=O)C2CC3CC4C5c6cc(O)ccc6CC5N(C)CCC45C1(C)C325

>  <smiles>  (335) 
[H]Oc1c([H])c([H])c2c(c1[H])C1([H])C3([H])C([H])([H])C4([H])C([H])([H])C5([H])C(=O)OC([H])(c6c(OC([H])([H])[H])c([H])c([H])[n+]([H])c6[H])C6(C([H])([H])[H])C3(C([H])([H])C([H])([H])[N+]([H])(C([H])([H])[H])C1([H])C2([H])[H])C546

$$$$
108:1:2
     RDKit          3D

 69 76  0  0  1  0  0  0  0  0999 V2000
    0.2070   -9.0221    8.2715 C   0  0  0  0  0  0  0  0  0  0  0  0
    0.8722   -8.1068    7.4056 O   0  0  0  0  0  0  0  0  0  0  0  0
    0.8344   -8.3144    6.0382 C   0  0  0  0  0  0  0  0  0  0  0  0
    0.2194   -9.4522    5.4642 C   0  0  0  0  0  0  0  0  0  0  0  0
    0.2167   -9.6328    4.0698 C   0  0  0  0  0  0  0  0  0  0  0  0
    0.8135   -8.7260    3.2733 N   0  0  0  0  0  0  0  0  0  0  0  0
    1.4281   -7.6317    3.7628 C   0  0  0  0  0  0  0  0  0  0  0  0
    1.4353   -7.3656    5.1535 C   0  0  0  0  0  0  0  0  0  0  0  0
    2.1578   -6.1069    5.6561 C   0  0  2  0  0  0  0  0  0  0  0  0
    1.6188   -5.6276    6.9216 O   0  0  0  0  0  0  0  0  0  0  0  0
    1.8333   -4.3705    7.5056 C   0  0  0  0  0  0  0  0  0  0  0  0
    1.3672   -4.1125    8.6097 O   0  0  0  0  0  0  0  0  0  0  0  0
    2.6550   -3.3692    6.6844 C   0  0  1  0  0  0  0  0  0  0  0  0
    4.1336   -3.2322    7.0973 C   0  0  0  0  0  0  0  0  0  0  0  0
    4.4844   -4.3539    6.1182 C   0  0  2  0  0  0  0  0  0  0  0  0
    5.5042   -4.2929    5.0061 C   0  0  0  0  0  0  0  0  0  0  0  0
    4.7093   -4.0842    3.7139 C   0  0  1  0  0  0  0  0  0  0  0  0
    4.9345   -4.9070    2.4317 C   0  0  1  0  0  0  0  0  0  0  0  0
    5.0607   -6.4257    2.3848 C   0  0  0  0  0  0  0  0  0  0  0  0
    5.5923   -7.3516    3.3122 C   0  0  0  0  0  0  0  0  0  0  0  0
    5.6526   -8.7160    2.9488 C   0  0  0  0  0  0  0  0  0  0  0  0
    6.1674   -9.6248    3.8228 O   0  0  0  0  0  0  0  0  0  0  0  0
    5.2007   -9.1447    1.6802 C   0  0  0  0  0  0  0  0  0  0  0  0
    4.6693   -8.2210    0.7652 C   0  0  0  0  0  0  0  0  0  0  0  0
    4.6136   -6.8654    1.1335 C   0  0  0  0  0  0  0  0  0  0  0  0
    4.1085   -5.7120    0.2965 C   0  0  0  0  0  0  0  0  0  0  0  0
    3.8110   -4.6630    1.3931 C   0  0  2  0  0  0  0  0  0  0  0  0
    3.5804   -3.2245    1.0236 N   0  0  1  0  0  0  0  0  0  0  0  0
    3.1949   -3.0354   -0.4003 C   0  0  0  0  0  0  0  0  0  0  0  0
    2.5626   -2.5503    1.8970 C   0  0  0  0  0  0  0  0  0  0  0  0
    2.8108   -2.5373    3.4339 C   0  0  0  0  0  0  0  0  0  0  0  0
    3.2457   -3.8691    4.0703 C   0  0  1  0  0  0  0  0  0  0  0  0
    2.1965   -4.9353    4.6482 C   0  0  1  0  0  0  0  0  0  0  0  0
    0.7460   -4.5376    4.3238 C   0  0  0  0  0  0  0  0  0  0  0  0
    3.1212   -4.1119    5.4952 C   0  0  2  0  0  0  0  0  0  0  0  0
    0.3257   -8.7047    9.3074 H   0  0  0  0  0  0  0  0  0  0  0  0
    0.6171  -10.0294    8.1984 H   0  0  0  0  0  0  0  0  0  0  0  0
   -0.8639   -9.0537    8.0700 H   0  0  0  0  0  0  0  0  0  0  0  0
   -0.2435  -10.2188    6.0720 H   0  0  0  0  0  0  0  0  0  0  0  0
   -0.2489  -10.4719    3.5823 H   0  0  0  0  0  0  0  0  0  0  0  0
    1.8922   -6.9907    3.0268 H   0  0  0  0  0  0  0  0  0  0  0  0
    3.1705   -6.4820    5.7865 H   0  0  0  0  0  0  0  0  0  0  0  0
    2.1335   -2.4354    6.4626 H   0  0  0  0  0  0  0  0  0  0  0  0
    4.5262   -2.2735    6.7439 H   0  0  0  0  0  0  0  0  0  0  0  0
    4.3687   -3.4118    8.1519 H   0  0  0  0  0  0  0  0  0  0  0  0
    4.5683   -5.2663    6.7078 H   0  0  0  0  0  0  0  0  0  0  0  0
    6.1896   -3.4621    5.1729 H   0  0  0  0  0  0  0  0  0  0  0  0
    6.1292   -5.1704    4.9751 H   0  0  0  0  0  0  0  0  0  0  0  0
    5.0821   -3.1040    3.4089 H   0  0  0  0  0  0  0  0  0  0  0  0
    5.8800   -4.5627    2.0121 H   0  0  0  0  0  0  0  0  0  0  0  0
    5.9683   -7.0663    4.2804 H   0  0  0  0  0  0  0  0  0  0  0  0
    6.1135  -10.5201    3.5268 H   0  0  0  0  0  0  0  0  0  0  0  0
    5.2755  -10.1826    1.4001 H   0  0  0  0  0  0  0  0  0  0  0  0
    4.3390   -8.5454   -0.2112 H   0  0  0  0  0  0  0  0  0  0  0  0
    4.9204   -5.3924   -0.3617 H   0  0  0  0  0  0  0  0  0  0  0  0
    3.2368   -5.9792   -0.3045 H   0  0  0  0  0  0  0  0  0  0  0  0
    2.8742   -5.0202    1.8201 H   0  0  0  0  0  0  0  0  0  0  0  0
    2.2696   -3.5682   -0.6292 H   0  0  0  0  0  0  0  0  0  0  0  0
    3.9751   -3.3884   -1.0756 H   0  0  0  0  0  0  0  0  0  0  0  0
    3.0239   -1.9771   -0.6247 H   0  0  0  0  0  0  0  0  0  0  0  0
    2.4745   -1.5080    1.5870 H   0  0  0  0  0  0  0  0  0  0  0  0
    1.5821   -2.9647    1.7059 H   0  0  0  0  0  0  0  0  0  0  0  0
    3.5358   -1.7636    3.6971 H   0  0  0  0  0  0  0  0  0  0  0  0
    1.8920   -2.1971    3.9130 H   0  0  0  0  0  0  0  0  0  0  0  0
    0.6738   -4.1446    3.3126 H   0  0  0  0  0  0  0  0  0  0  0  0
    0.3947   -3.7652    5.0081 H   0  0  0  0  0  0  0  0  0  0  0  0
    0.0501   -5.3716    4.3832 H   0  0  0  0  0  0  0  0  0  0  0  0
    4.4521   -2.7266    1.1490 H   0  0  0  0  0  0  0  0  0  0  0  0
    0.8042   -8.8834    2.2586 H   0  0  0  0  0  0  0  0  0  0  0  0
  1  2  1  0
  1 36  1  0
  1 37  1  0
  1 38  1  0
  2  3  1  0
  3  8  2  0
  3  4  1  0
  4  5  2  0
  4 39  1  0
  5  6  1  0
  5 40  1  0
  6  7  2  0
  6 69  1  0
  7  8  1  0
  7 41  1  0
  8  9  1  0
  9 33  1  0
  9 10  1  0
  9 42  1  1
 10 11  1  0
 11 12  2  0
 11 13  1  0
 13 35  1  0
 13 14  1  0
 13 43  1  6
 14 15  1  0
 14 44  1  0
 14 45  1  0
 15 35  1  0
 15 16  1  0
 15 46  1  1
 16 17  1  0
 16 47  1  0
 16 48  1  0
 17 32  1  0
 17 18  1  0
 17 49  1  6
 18 27  1  0
 18 19  1  0
 18 50  1  6
 19 25  2  0
 19 20  1  0
 20 21  2  0
 20 51  1  0
 21 22  1  0
 21 23  1  0
 22 52  1  0
 23 24  2  0
 23 53  1  0
 24 25  1  0
 24 54  1  0
 25 26  1  0
 26 27  1  0
 26 55  1  0
 26 56  1  0
 27 28  1  0
 27 57  1  1
 28 29  1  0
 28 30  1  0
 28 68  1  6
 29 58  1  0
 29 59  1  0
 29 60  1  0
 30 31  1  0
 30 61  1  0
 30 62  1  0
 32 31  1  1
 31 63  1  0
 31 64  1  0
 32 35  1  0
 32 33  1  0
 33 34  1  6
 35 33  1  6
 34 65  1  0
 34 66  1  0
 34 67  1  0
M  CHG  2   6   1  28   1
M  END
>  <i_m_ct_stereo_status>  (336) 
1

>  <s_m_source_file>  (336) 
/var/tmp/pbs.5076255.sched01/tmpux3k924y/120tsqzh4i4.sdf

>  <i_m_source_file_index>  (336) 
26

>  <i_lp_mmshare_version>  (336) 
48012

>  <i_f3d_flags>  (336) 
0

>  <s_epik_input>  (336) 
W0NIM11PYzFbY0hdW2NIXW5bY0hdYzFbQ0BASF0oW0NAXTIzW0NIM10pT0MoPU8pW0NASF0oW0NAXTM0W0NAXTI1NilbQ0gyXVtDQEBIXTRbQ0gyXVtDQEhdNVtDQEhdN2M4YyhbY0hdW2NIXWMoW2NIXTgpW09IXSlbQ0gyXVtDQEBIXTdOKFtDSDNdKVtDSDJdW0NIMl02

>  <s_epik_cmdline>  (336) 
J2VwaWtfcHl0aG9uJywgJy1waHQnLCAnMi4wJywgJy1waCcsICc3LjAnLCAnLXRuJywgJzgnLCAnLW1hJywgJzIwMCcsICctaW1hZScsICc8aW5maWxlLm1hZT4nLCAnLW9tYWUnLCAnPG91dGZpbGUubWFlPic=

>  <r_lp_tautomer_probability>  (336) 
1

>  <r_epik_Ionization_Penalty>  (336) 
0.463257

>  <r_epik_Ionization_Penalty_Charging>  (336) 
0.460105

>  <r_epik_Ionization_Penalty_Neutral>  (336) 
0.00315234

>  <r_epik_State_Penalty>  (336) 
0.454555

>  <r_epik_Charging_Adjusted_Penalty>  (336) 
0.914659

>  <i_epik_Tot_Q>  (336) 
2

>  <i_epik_Tot_abs_Q>  (336) 
2

>  <s_epik_Chemistry_Notes>  (336) 
This compound has an ester and may undergo hydrolysis at high or low pH.

>  <s_lp_Force_Field>  (336) 
OPLS3e

>  <r_lp_Energy>  (336) 
179.915

>  <b_lp_Chiralities_Consistent>  (336) 
1

>  <s_lp_Variant>  (336) 
108:0-2

>  <s_i_glide_gridfile>  (336) 
pfpi4k_grid

>  <i_i_glide_lignum>  (336) 
26

>  <i_i_glide_rotatable_bonds>  (336) 
3

>  <r_i_docking_score>  (336) 
-2.55992

>  <r_i_glide_ligand_efficiency>  (336) 
-0.0731406

>  <r_i_glide_ligand_efficiency_sa>  (336) 
-0.239248

>  <r_i_glide_ligand_efficiency_ln>  (336) 
-0.561959

>  <r_i_glide_gscore>  (336) 
-2.55992

>  <r_i_glide_lipo>  (336) 
-0.190479

>  <r_i_glide_hbond>  (336) 
0

>  <r_i_glide_metal>  (336) 
-0

>  <r_i_glide_rewards>  (336) 
-0.173241

>  <r_i_glide_evdw>  (336) 
-21.2678

>  <r_i_glide_ecoul>  (336) 
-8.00772

>  <r_i_glide_erotb>  (336) 
0.0898436

>  <r_i_glide_esite>  (336) 
-0.021495

>  <r_i_glide_emodel>  (336) 
-35.5735

>  <r_i_glide_energy>  (336) 
-29.2755

>  <r_i_glide_einternal>  (336) 
1.57782

>  <r_i_glide_intrahb_reward>  (336) 
-0

>  <i_i_glide_confnum>  (336) 
2

>  <i_i_glide_posenum>  (336) 
19

>  <r_i_glide_eff_state_penalty>  (336) 
0

>  <ligand_id>  (336) 
108

>  <original_smiles>  (336) 
COc1ccncc1C1OC(=O)C2CC3CC4C5c6cc(O)ccc6CC5N(C)CCC45C1(C)C325

>  <smiles>  (336) 
[H]Oc1c([H])c([H])c2c(c1[H])C1([H])C3([H])C([H])([H])C4([H])C([H])([H])C5([H])C(=O)OC([H])(c6c(OC([H])([H])[H])c([H])c([H])[n+]([H])c6[H])C6(C([H])([H])[H])C3(C([H])([H])C([H])([H])[N+]([H])(C([H])([H])[H])C1([H])C2([H])[H])C546

$$$$
110:0:0
     RDKit          3D

 97104  0  0  1  0  0  0  0  0999 V2000
    0.5458  -10.9712    3.2435 C   0  0  0  0  0  0  0  0  0  0  0  0
    1.6318  -10.1811    3.1883 C   0  0  0  0  0  0  0  0  0  0  0  0
    2.9843  -10.8047    2.8322 C   0  0  0  0  0  0  0  0  0  0  0  0
    1.5079   -8.6608    3.3969 C   0  0  2  0  0  0  0  0  0  0  0  0
    2.3585   -7.7877    2.4896 C   0  0  0  0  0  0  0  0  0  0  0  0
    2.2276   -6.3794    3.0822 C   0  0  0  0  0  0  0  0  0  0  0  0
    1.7377   -6.4893    4.5633 C   0  0  2  0  0  0  0  0  0  0  0  0
    0.2479   -6.0536    4.6764 C   0  0  0  0  0  0  0  0  0  0  0  0
    2.6072   -5.5916    5.5129 C   0  0  0  0  0  0  0  0  0  0  0  0
    2.7156   -4.2265    5.3906 C   0  0  0  0  0  0  0  0  0  0  0  0
    1.9235   -3.4538    4.3280 C   0  0  0  0  0  0  0  0  0  0  0  0
    2.2433   -1.9644    4.2489 C   0  0  0  0  0  0  0  0  0  0  0  0
    2.4737   -1.4177    3.1759 O   0  0  0  0  0  0  0  0  0  0  0  0
    2.2098   -1.1779    5.5600 C   0  0  2  0  0  0  0  0  0  0  0  0
    2.8104   -2.0106    6.7622 C   0  0  1  0  0  0  0  0  0  0  0  0
    3.8245   -1.1129    7.5249 C   0  0  0  0  0  0  0  0  0  0  0  0
    1.6205   -2.3235    7.7148 C   0  0  0  0  0  0  0  0  0  0  0  0
    0.9703   -1.0540    8.3080 C   0  0  0  0  0  0  0  0  0  0  0  0
    0.4589   -0.0318    7.2600 C   0  0  1  0  0  0  0  0  0  0  0  0
    0.7414    1.5326    7.4702 C   0  0  0  0  0  0  0  0  0  0  0  0
   -0.5842    2.3477    7.5225 C   0  0  0  0  0  0  0  0  0  0  0  0
    1.5040    1.9153    8.7590 C   0  0  0  0  0  0  0  0  0  0  0  0
    1.5440    1.7629    6.2008 C   0  0  2  0  0  0  0  0  0  0  0  0
    1.7096    2.8430    5.2706 O   0  0  0  0  0  0  0  0  0  0  0  0
    1.6835    1.7994    4.2179 C   0  0  2  0  0  0  0  0  0  0  0  0
    0.8174    2.2205    3.0709 C   0  0  0  0  0  0  0  0  0  0  0  0
   -0.5284    2.3843    3.7724 C   0  0  1  0  0  0  0  0  0  0  0  0
   -1.7736    2.1542    2.9162 C   0  0  0  0  0  0  0  0  0  0  0  0
   -0.5058    1.4101    4.8163 O   0  0  0  0  0  0  0  0  0  0  0  0
    0.8246    0.9656    5.1461 C   0  0  2  0  0  0  0  0  0  0  0  0
    0.8045   -0.4330    5.7591 C   0  0  1  0  0  0  0  0  0  0  0  0
   -0.4042   -1.2292    5.1748 C   0  0  0  0  0  0  0  0  0  0  0  0
    3.6026   -3.3359    6.3040 C   0  0  2  0  0  0  0  0  0  0  0  0
    4.9006   -2.9936    5.4937 C   0  0  0  0  0  0  0  0  0  0  0  0
    4.1313   -4.1396    7.5329 C   0  0  0  0  0  0  0  0  0  0  0  0
    4.5640   -5.5487    7.1617 C   0  0  0  0  0  0  0  0  0  0  0  0
    3.3919   -6.3629    6.5898 C   0  0  1  0  0  0  0  0  0  0  0  0
    2.4505   -6.7704    7.7516 C   0  0  0  0  0  0  0  0  0  0  0  0
    4.0220   -7.5973    5.9456 C   0  0  0  0  0  0  0  0  0  0  0  0
    2.9826   -8.6230    5.5525 C   0  0  0  0  0  0  0  0  0  0  0  0
    1.7558   -8.0538    4.8027 C   0  0  2  0  0  0  0  0  0  0  0  0
    0.6230  -12.0322    3.0731 H   0  0  0  0  0  0  0  0  0  0  0  0
   -0.4419  -10.5827    3.4550 H   0  0  0  0  0  0  0  0  0  0  0  0
    3.4086  -10.3122    1.9626 H   0  0  0  0  0  0  0  0  0  0  0  0
    2.8497  -11.8463    2.5454 H   0  0  0  0  0  0  0  0  0  0  0  0
    3.7317  -10.8191    3.6228 H   0  0  0  0  0  0  0  0  0  0  0  0
    0.4749   -8.4275    3.1356 H   0  0  0  0  0  0  0  0  0  0  0  0
    3.4045   -8.0866    2.5520 H   0  0  0  0  0  0  0  0  0  0  0  0
    2.0550   -7.8396    1.4419 H   0  0  0  0  0  0  0  0  0  0  0  0
    3.1958   -5.8786    3.0071 H   0  0  0  0  0  0  0  0  0  0  0  0
    1.5279   -5.8083    2.4696 H   0  0  0  0  0  0  0  0  0  0  0  0
   -0.4491   -6.8326    4.3697 H   0  0  0  0  0  0  0  0  0  0  0  0
    0.0000   -5.2033    4.0507 H   0  0  0  0  0  0  0  0  0  0  0  0
   -0.0010   -5.7980    5.7064 H   0  0  0  0  0  0  0  0  0  0  0  0
    2.0504   -3.8847    3.3390 H   0  0  0  0  0  0  0  0  0  0  0  0
    0.8754   -3.5112    4.5953 H   0  0  0  0  0  0  0  0  0  0  0  0
    2.9570   -0.4104    5.3679 H   0  0  0  0  0  0  0  0  0  0  0  0
    4.1430   -1.5630    8.4669 H   0  0  0  0  0  0  0  0  0  0  0  0
    3.4073   -0.1444    7.7697 H   0  0  0  0  0  0  0  0  0  0  0  0
    4.7163   -0.8844    6.9426 H   0  0  0  0  0  0  0  0  0  0  0  0
    0.8762   -2.9250    7.1966 H   0  0  0  0  0  0  0  0  0  0  0  0
    1.9102   -2.9197    8.5740 H   0  0  0  0  0  0  0  0  0  0  0  0
    0.1338   -1.3637    8.9323 H   0  0  0  0  0  0  0  0  0  0  0  0
    1.6583   -0.6048    9.0183 H   0  0  0  0  0  0  0  0  0  0  0  0
   -0.6239   -0.1197    7.3524 H   0  0  0  0  0  0  0  0  0  0  0  0
   -0.4198    3.3798    7.2046 H   0  0  0  0  0  0  0  0  0  0  0  0
   -0.9948    2.3850    8.5361 H   0  0  0  0  0  0  0  0  0  0  0  0
   -1.3850    1.9427    6.9036 H   0  0  0  0  0  0  0  0  0  0  0  0
    1.6135    2.9972    8.8454 H   0  0  0  0  0  0  0  0  0  0  0  0
    2.5034    1.4932    8.8201 H   0  0  0  0  0  0  0  0  0  0  0  0
    0.9573    1.5880    9.6481 H   0  0  0  0  0  0  0  0  0  0  0  0
    2.5476    1.3726    6.3772 H   0  0  0  0  0  0  0  0  0  0  0  0
    2.6647    1.3851    3.9723 H   0  0  0  0  0  0  0  0  0  0  0  0
    1.1523    3.1289    2.5645 H   0  0  0  0  0  0  0  0  0  0  0  0
    0.7511    1.4166    2.3357 H   0  0  0  0  0  0  0  0  0  0  0  0
   -0.5674    3.3809    4.2193 H   0  0  0  0  0  0  0  0  0  0  0  0
   -1.8354    2.8716    2.0994 H   0  0  0  0  0  0  0  0  0  0  0  0
   -2.6728    2.2577    3.5237 H   0  0  0  0  0  0  0  0  0  0  0  0
   -1.7753    1.1499    2.4933 H   0  0  0  0  0  0  0  0  0  0  0  0
   -1.3531   -0.7358    5.3785 H   0  0  0  0  0  0  0  0  0  0  0  0
   -0.4948   -2.2231    5.5980 H   0  0  0  0  0  0  0  0  0  0  0  0
   -0.3555   -1.3092    4.0887 H   0  0  0  0  0  0  0  0  0  0  0  0
    5.7366   -2.7224    6.1394 H   0  0  0  0  0  0  0  0  0  0  0  0
    4.7885   -2.1676    4.7962 H   0  0  0  0  0  0  0  0  0  0  0  0
    5.2390   -3.8479    4.9054 H   0  0  0  0  0  0  0  0  0  0  0  0
    4.9721   -3.6302    8.0068 H   0  0  0  0  0  0  0  0  0  0  0  0
    3.4016   -4.2429    8.3269 H   0  0  0  0  0  0  0  0  0  0  0  0
    5.3941   -5.5040    6.4557 H   0  0  0  0  0  0  0  0  0  0  0  0
    4.9687   -6.0488    8.0435 H   0  0  0  0  0  0  0  0  0  0  0  0
    2.9821   -7.3587    8.5028 H   0  0  0  0  0  0  0  0  0  0  0  0
    1.6063   -7.3725    7.4207 H   0  0  0  0  0  0  0  0  0  0  0  0
    2.0108   -5.9076    8.2472 H   0  0  0  0  0  0  0  0  0  0  0  0
    4.5875   -7.2975    5.0623 H   0  0  0  0  0  0  0  0  0  0  0  0
    4.7457   -8.0647    6.6163 H   0  0  0  0  0  0  0  0  0  0  0  0
    3.5453   -9.3327    4.9690 H   0  0  0  0  0  0  0  0  0  0  0  0
    2.6390   -9.1682    6.4351 H   0  0  0  0  0  0  0  0  0  0  0  0
    0.8936   -8.3223    5.4223 H   0  0  0  0  0  0  0  0  0  0  0  0
  1  2  2  0
  1 42  1  0
  1 43  1  0
  2  3  1  0
  2  4  1  0
  3 44  1  0
  3 45  1  0
  3 46  1  0
  4 41  1  0
  4  5  1  0
  4 47  1  6
  5  6  1  0
  5 48  1  0
  5 49  1  0
  6  7  1  0
  6 50  1  0
  6 51  1  0
  7 41  1  0
  7  8  1  6
  7  9  1  0
  8 52  1  0
  8 53  1  0
  8 54  1  0
  9 37  1  0
  9 10  2  0
 10 33  1  0
 10 11  1  0
 11 12  1  0
 11 55  1  0
 11 56  1  0
 12 13  2  0
 12 14  1  0
 14 31  1  0
 14 15  1  0
 14 57  1  6
 15 16  1  1
 15 17  1  0
 15 33  1  0
 16 58  1  0
 16 59  1  0
 16 60  1  0
 17 18  1  0
 17 61  1  0
 17 62  1  0
 18 19  1  0
 18 63  1  0
 18 64  1  0
 19 31  1  0
 19 20  1  0
 19 65  1  6
 20 21  1  0
 20 22  1  0
 20 23  1  0
 21 66  1  0
 21 67  1  0
 21 68  1  0
 22 69  1  0
 22 70  1  0
 22 71  1  0
 23 30  1  0
 23 24  1  0
 23 72  1  1
 24 25  1  0
 25 30  1  0
 25 26  1  0
 25 73  1  6
 26 27  1  0
 26 74  1  0
 26 75  1  0
 27 28  1  0
 27 29  1  0
 27 76  1  1
 28 77  1  0
 28 78  1  0
 28 79  1  0
 30 29  1  6
 30 31  1  0
 31 32  1  6
 32 80  1  0
 32 81  1  0
 32 82  1  0
 33 34  1  6
 33 35  1  0
 34 83  1  0
 34 84  1  0
 34 85  1  0
 35 36  1  0
 35 86  1  0
 35 87  1  0
 36 37  1  0
 36 88  1  0
 36 89  1  0
 37 38  1  1
 37 39  1  0
 38 90  1  0
 38 91  1  0
 38 92  1  0
 39 40  1  0
 39 93  1  0
 39 94  1  0
 40 41  1  0
 40 95  1  0
 40 96  1  0
 41 97  1  1
M  END
>  <i_m_ct_stereo_status>  (337) 
1

>  <s_m_source_file>  (337) 
/var/tmp/pbs.5076255.sched01/tmpux3k924y/120tsqzh4i4.sdf

>  <i_m_source_file_index>  (337) 
28

>  <i_lp_mmshare_version>  (337) 
48012

>  <i_f3d_flags>  (337) 
0

>  <s_epik_input>  (337) 
W0NIMl0xW0NIMl1bQ0BdMihbQ0gzXSlbQ0gyXVtDSDJdW0NASF0oW0NASF0oQyg9W0NIMl0pW0NIM10pW0NIMl1bQ0gyXTMpW0NAQF0zKFtDSDNdKUMyPUMoW0NIMl1DND1PKVtDQEBdMShbQ0gzXSlbQ0BdKFtDSDNdKShbQ0gyXVtDSDJdNSlbQ0BASF00W0NAQF02KFtDSDNdKVtDQEBIXTVDKFtDSDNdKShbQ0gzXSlbQ0BASF0oW0NAXTY3OClPW0NAQEhdN1tDSDJdW0NASF0oTzgpW0NIM10=

>  <s_epik_cmdline>  (337) 
J2VwaWtfcHl0aG9uJywgJy1waHQnLCAnMi4wJywgJy1waCcsICc3LjAnLCAnLXRuJywgJzgnLCAnLW1hJywgJzIwMCcsICctaW1hZScsICc8aW5maWxlLm1hZT4nLCAnLW9tYWUnLCAnPG91dGZpbGUubWFlPic=

>  <r_lp_tautomer_probability>  (337) 
1

>  <r_epik_Ionization_Penalty>  (337) 
7.20992e-12

>  <r_epik_Ionization_Penalty_Charging>  (337) 
0

>  <r_epik_Ionization_Penalty_Neutral>  (337) 
7.20992e-12

>  <r_epik_State_Penalty>  (337) 
-0

>  <r_epik_Charging_Adjusted_Penalty>  (337) 
0

>  <i_epik_Tot_Q>  (337) 
0

>  <i_epik_Tot_abs_Q>  (337) 
0

>  <s_lp_Force_Field>  (337) 
OPLS3e

>  <r_lp_Energy>  (337) 
166.682

>  <b_lp_Chiralities_Consistent>  (337) 
1

>  <s_lp_Variant>  (337) 
110:0-1

>  <s_i_glide_gridfile>  (337) 
pfpi4k_grid

>  <i_i_glide_lignum>  (337) 
28

>  <i_i_glide_rotatable_bonds>  (337) 
1

>  <r_i_docking_score>  (337) 
-1.4297

>  <r_i_glide_ligand_efficiency>  (337) 
-0.0348707

>  <r_i_glide_ligand_efficiency_sa>  (337) 
-0.120242

>  <r_i_glide_ligand_efficiency_ln>  (337) 
-0.303316

>  <r_i_glide_gscore>  (337) 
-1.4297

>  <r_i_glide_lipo>  (337) 
-0.160252

>  <r_i_glide_hbond>  (337) 
0

>  <r_i_glide_metal>  (337) 
-0

>  <r_i_glide_rewards>  (337) 
0

>  <r_i_glide_evdw>  (337) 
-26.4479

>  <r_i_glide_ecoul>  (337) 
-0.0877119

>  <r_i_glide_erotb>  (337) 
0.0661024

>  <r_i_glide_esite>  (337) 
0

>  <r_i_glide_emodel>  (337) 
-26.9507

>  <r_i_glide_energy>  (337) 
-26.5356

>  <r_i_glide_einternal>  (337) 
2.61397

>  <r_i_glide_intrahb_reward>  (337) 
-0

>  <i_i_glide_confnum>  (337) 
2

>  <i_i_glide_posenum>  (337) 
9

>  <r_i_glide_eff_state_penalty>  (337) 
0

>  <ligand_id>  (337) 
110

>  <original_smiles>  (337) 
C=C(C)C1CCC2(C)C3=C4CC(=O)C5C(C)(CCC6C(C)(C)C7OC8CC(C)OC87C65C)C4(C)CCC3(C)CCC12

>  <smiles>  (337) 
[H]C([H])=C(C([H])([H])[H])C1([H])C([H])([H])C([H])([H])C2(C([H])([H])[H])C3=C4C([H])([H])C(=O)C5([H])C6(C([H])([H])[H])C([H])(C([H])([H])C([H])([H])C5(C([H])([H])[H])C4(C([H])([H])[H])C([H])([H])C([H])([H])C3(C([H])([H])[H])C([H])([H])C([H])([H])C12[H])C(C([H])([H])[H])(C([H])([H])[H])C1([H])OC2([H])C([H])([H])C([H])(C([H])([H])[H])OC216

$$$$
110:0:1
     RDKit          3D

 97104  0  0  1  0  0  0  0  0999 V2000
    0.2002   -9.6642    2.4883 C   0  0  0  0  0  0  0  0  0  0  0  0
   -0.2722   -8.6134    3.1783 C   0  0  0  0  0  0  0  0  0  0  0  0
   -1.7681   -8.3677    3.2801 C   0  0  0  0  0  0  0  0  0  0  0  0
    0.6118   -7.5578    3.8564 C   0  0  2  0  0  0  0  0  0  0  0  0
    2.1131   -7.6717    3.6156 C   0  0  0  0  0  0  0  0  0  0  0  0
    2.7367   -6.7008    4.6234 C   0  0  0  0  0  0  0  0  0  0  0  0
    1.7066   -6.4348    5.7665 C   0  0  2  0  0  0  0  0  0  0  0  0
    1.1033   -5.0077    5.6328 C   0  0  0  0  0  0  0  0  0  0  0  0
    2.3887   -6.5768    7.1703 C   0  0  0  0  0  0  0  0  0  0  0  0
    3.4410   -5.7936    7.6003 C   0  0  0  0  0  0  0  0  0  0  0  0
    3.9995   -4.6550    6.7227 C   0  0  0  0  0  0  0  0  0  0  0  0
    5.2381   -3.9671    7.2904 C   0  0  0  0  0  0  0  0  0  0  0  0
    6.2358   -3.7622    6.5899 O   0  0  0  0  0  0  0  0  0  0  0  0
    5.1695   -3.4818    8.7341 C   0  0  2  0  0  0  0  0  0  0  0  0
    4.3957   -4.5103    9.6601 C   0  0  1  0  0  0  0  0  0  0  0  0
    5.2484   -4.7529   10.9374 C   0  0  0  0  0  0  0  0  0  0  0  0
    3.0750   -3.8080   10.0867 C   0  0  0  0  0  0  0  0  0  0  0  0
    3.3070   -2.5204   10.9047 C   0  0  0  0  0  0  0  0  0  0  0  0
    4.1786   -1.4493   10.2127 C   0  0  1  0  0  0  0  0  0  0  0  0
    5.3245   -0.6948   11.0487 C   0  0  0  0  0  0  0  0  0  0  0  0
    5.1019    0.8478   11.0428 C   0  0  0  0  0  0  0  0  0  0  0  0
    5.4428   -1.0798   12.5356 C   0  0  0  0  0  0  0  0  0  0  0  0
    6.5268   -1.1240   10.2096 C   0  0  2  0  0  0  0  0  0  0  0  0
    7.7441   -0.5422    9.8148 O   0  0  0  0  0  0  0  0  0  0  0  0
    7.5113   -1.1517    8.5128 C   0  0  2  0  0  0  0  0  0  0  0  0
    7.8215   -0.1817    7.4038 C   0  0  0  0  0  0  0  0  0  0  0  0
    6.8429    0.9410    7.7243 C   0  0  1  0  0  0  0  0  0  0  0  0
    6.3638    1.7836    6.5434 C   0  0  0  0  0  0  0  0  0  0  0  0
    5.7187    0.2765    8.2983 O   0  0  0  0  0  0  0  0  0  0  0  0
    6.0169   -1.0489    8.7858 C   0  0  2  0  0  0  0  0  0  0  0  0
    4.7852   -1.9242    8.8162 C   0  0  1  0  0  0  0  0  0  0  0  0
    3.8127   -1.4777    7.6848 C   0  0  0  0  0  0  0  0  0  0  0  0
    4.1435   -5.9452    8.9682 C   0  0  2  0  0  0  0  0  0  0  0  0
    5.4892   -6.7103    8.7204 C   0  0  0  0  0  0  0  0  0  0  0  0
    3.3417   -6.8983    9.9084 C   0  0  0  0  0  0  0  0  0  0  0  0
    2.7916   -8.1145    9.1696 C   0  0  0  0  0  0  0  0  0  0  0  0
    1.8235   -7.7102    8.0417 C   0  0  1  0  0  0  0  0  0  0  0  0
    0.4839   -7.2655    8.6871 C   0  0  0  0  0  0  0  0  0  0  0  0
    1.6312   -8.9645    7.1728 C   0  0  0  0  0  0  0  0  0  0  0  0
    0.5306   -8.8011    6.1278 C   0  0  0  0  0  0  0  0  0  0  0  0
    0.5381   -7.4324    5.4014 C   0  0  2  0  0  0  0  0  0  0  0  0
   -0.4733  -10.3682    2.0218 H   0  0  0  0  0  0  0  0  0  0  0  0
    1.2547   -9.8641    2.3736 H   0  0  0  0  0  0  0  0  0  0  0  0
   -2.0858   -8.2951    4.3210 H   0  0  0  0  0  0  0  0  0  0  0  0
   -2.3233   -9.1897    2.8237 H   0  0  0  0  0  0  0  0  0  0  0  0
   -2.0424   -7.4526    2.7621 H   0  0  0  0  0  0  0  0  0  0  0  0
    0.2966   -6.6118    3.4241 H   0  0  0  0  0  0  0  0  0  0  0  0
    2.4670   -8.6778    3.8439 H   0  0  0  0  0  0  0  0  0  0  0  0
    2.3866   -7.4391    2.5865 H   0  0  0  0  0  0  0  0  0  0  0  0
    3.6651   -7.1329    4.9977 H   0  0  0  0  0  0  0  0  0  0  0  0
    2.9981   -5.7802    4.1014 H   0  0  0  0  0  0  0  0  0  0  0  0
    0.3097   -4.9467    4.8925 H   0  0  0  0  0  0  0  0  0  0  0  0
    1.8260   -4.2618    5.3142 H   0  0  0  0  0  0  0  0  0  0  0  0
    0.6757   -4.6806    6.5832 H   0  0  0  0  0  0  0  0  0  0  0  0
    4.2265   -4.9972    5.7230 H   0  0  0  0  0  0  0  0  0  0  0  0
    3.2400   -3.8893    6.6601 H   0  0  0  0  0  0  0  0  0  0  0  0
    6.2030   -3.5747    9.0460 H   0  0  0  0  0  0  0  0  0  0  0  0
    4.6978   -5.3114   11.6981 H   0  0  0  0  0  0  0  0  0  0  0  0
    5.5628   -3.8243   11.4001 H   0  0  0  0  0  0  0  0  0  0  0  0
    6.1791   -5.2835   10.7377 H   0  0  0  0  0  0  0  0  0  0  0  0
    2.4710   -3.5916    9.2038 H   0  0  0  0  0  0  0  0  0  0  0  0
    2.4441   -4.4307   10.7066 H   0  0  0  0  0  0  0  0  0  0  0  0
    2.3269   -2.0780   11.1163 H   0  0  0  0  0  0  0  0  0  0  0  0
    3.6830   -2.7873   11.8895 H   0  0  0  0  0  0  0  0  0  0  0  0
    3.4615   -0.6699    9.9751 H   0  0  0  0  0  0  0  0  0  0  0  0
    6.0482    1.3812   11.1821 H   0  0  0  0  0  0  0  0  0  0  0  0
    4.4331    1.1553   11.8501 H   0  0  0  0  0  0  0  0  0  0  0  0
    4.6443    1.2298   10.1292 H   0  0  0  0  0  0  0  0  0  0  0  0
    6.2090   -0.4863   13.0396 H   0  0  0  0  0  0  0  0  0  0  0  0
    5.6987   -2.1248   12.6999 H   0  0  0  0  0  0  0  0  0  0  0  0
    4.5050   -0.8871   13.0606 H   0  0  0  0  0  0  0  0  0  0  0  0
    6.7460   -2.1638   10.4909 H   0  0  0  0  0  0  0  0  0  0  0  0
    7.9002   -2.1733    8.3911 H   0  0  0  0  0  0  0  0  0  0  0  0
    8.8568    0.1479    7.4037 H   0  0  0  0  0  0  0  0  0  0  0  0
    7.5696   -0.6245    6.4362 H   0  0  0  0  0  0  0  0  0  0  0  0
    7.2925    1.5890    8.4875 H   0  0  0  0  0  0  0  0  0  0  0  0
    7.1908    2.3058    6.0641 H   0  0  0  0  0  0  0  0  0  0  0  0
    5.6478    2.5325    6.8863 H   0  0  0  0  0  0  0  0  0  0  0  0
    5.8615    1.1641    5.7977 H   0  0  0  0  0  0  0  0  0  0  0  0
    3.5114   -0.4361    7.7986 H   0  0  0  0  0  0  0  0  0  0  0  0
    2.8874   -2.0436    7.6742 H   0  0  0  0  0  0  0  0  0  0  0  0
    4.2741   -1.5322    6.6997 H   0  0  0  0  0  0  0  0  0  0  0  0
    5.8622   -7.2061    9.6171 H   0  0  0  0  0  0  0  0  0  0  0  0
    6.3077   -6.0839    8.3722 H   0  0  0  0  0  0  0  0  0  0  0  0
    5.3650   -7.4961    7.9710 H   0  0  0  0  0  0  0  0  0  0  0  0
    3.9599   -7.2427   10.7365 H   0  0  0  0  0  0  0  0  0  0  0  0
    2.5000   -6.4179   10.3890 H   0  0  0  0  0  0  0  0  0  0  0  0
    3.6177   -8.7072    8.7780 H   0  0  0  0  0  0  0  0  0  0  0  0
    2.2844   -8.7647    9.8822 H   0  0  0  0  0  0  0  0  0  0  0  0
    0.0532   -8.0662    9.2872 H   0  0  0  0  0  0  0  0  0  0  0  0
   -0.2586   -6.9738    7.9482 H   0  0  0  0  0  0  0  0  0  0  0  0
    0.6111   -6.3951    9.3310 H   0  0  0  0  0  0  0  0  0  0  0  0
    2.5706   -9.1934    6.6614 H   0  0  0  0  0  0  0  0  0  0  0  0
    1.4103   -9.8373    7.7898 H   0  0  0  0  0  0  0  0  0  0  0  0
    0.5959   -9.6397    5.4356 H   0  0  0  0  0  0  0  0  0  0  0  0
   -0.4351   -8.9309    6.6146 H   0  0  0  0  0  0  0  0  0  0  0  0
   -0.4155   -6.9674    5.6553 H   0  0  0  0  0  0  0  0  0  0  0  0
  1  2  2  0
  1 42  1  0
  1 43  1  0
  2  3  1  0
  2  4  1  0
  3 44  1  0
  3 45  1  0
  3 46  1  0
  4 41  1  0
  4  5  1  0
  4 47  1  6
  5  6  1  0
  5 48  1  0
  5 49  1  0
  6  7  1  0
  6 50  1  0
  6 51  1  0
  7 41  1  0
  7  8  1  6
  7  9  1  0
  8 52  1  0
  8 53  1  0
  8 54  1  0
  9 37  1  0
  9 10  2  0
 10 33  1  0
 10 11  1  0
 11 12  1  0
 11 55  1  0
 11 56  1  0
 12 13  2  0
 12 14  1  0
 14 31  1  0
 14 15  1  0
 14 57  1  1
 15 16  1  1
 15 17  1  0
 15 33  1  0
 16 58  1  0
 16 59  1  0
 16 60  1  0
 17 18  1  0
 17 61  1  0
 17 62  1  0
 18 19  1  0
 18 63  1  0
 18 64  1  0
 19 31  1  0
 19 20  1  0
 19 65  1  6
 20 21  1  0
 20 22  1  0
 20 23  1  0
 21 66  1  0
 21 67  1  0
 21 68  1  0
 22 69  1  0
 22 70  1  0
 22 71  1  0
 23 30  1  0
 23 24  1  0
 23 72  1  1
 24 25  1  0
 25 30  1  0
 25 26  1  0
 25 73  1  6
 26 27  1  0
 26 74  1  0
 26 75  1  0
 27 28  1  0
 27 29  1  0
 27 76  1  1
 28 77  1  0
 28 78  1  0
 28 79  1  0
 30 29  1  1
 30 31  1  0
 31 32  1  6
 32 80  1  0
 32 81  1  0
 32 82  1  0
 33 34  1  6
 33 35  1  0
 34 83  1  0
 34 84  1  0
 34 85  1  0
 35 36  1  0
 35 86  1  0
 35 87  1  0
 36 37  1  0
 36 88  1  0
 36 89  1  0
 37 38  1  1
 37 39  1  0
 38 90  1  0
 38 91  1  0
 38 92  1  0
 39 40  1  0
 39 93  1  0
 39 94  1  0
 40 41  1  0
 40 95  1  0
 40 96  1  0
 41 97  1  6
M  END
>  <i_m_ct_stereo_status>  (338) 
1

>  <s_m_source_file>  (338) 
/var/tmp/pbs.5076255.sched01/tmpux3k924y/120tsqzh4i4.sdf

>  <i_m_source_file_index>  (338) 
28

>  <i_lp_mmshare_version>  (338) 
48012

>  <i_f3d_flags>  (338) 
0

>  <s_epik_input>  (338) 
W0NIMl0xW0NIMl1bQ0BdMihbQ0gzXSlbQ0gyXVtDSDJdW0NASF0oW0NASF0oQyg9W0NIMl0pW0NIM10pW0NIMl1bQ0gyXTMpW0NAQF0zKFtDSDNdKUMyPUMoW0NIMl1DND1PKVtDQEBdMShbQ0gzXSlbQ0BdKFtDSDNdKShbQ0gyXVtDSDJdNSlbQ0BASF00W0NAQF02KFtDSDNdKVtDQEBIXTVDKFtDSDNdKShbQ0gzXSlbQ0BASF0oW0NAXTY3OClPW0NAQEhdN1tDSDJdW0NASF0oTzgpW0NIM10=

>  <s_epik_cmdline>  (338) 
J2VwaWtfcHl0aG9uJywgJy1waHQnLCAnMi4wJywgJy1waCcsICc3LjAnLCAnLXRuJywgJzgnLCAnLW1hJywgJzIwMCcsICctaW1hZScsICc8aW5maWxlLm1hZT4nLCAnLW9tYWUnLCAnPG91dGZpbGUubWFlPic=

>  <r_lp_tautomer_probability>  (338) 
1

>  <r_epik_Ionization_Penalty>  (338) 
7.20992e-12

>  <r_epik_Ionization_Penalty_Charging>  (338) 
0

>  <r_epik_Ionization_Penalty_Neutral>  (338) 
7.20992e-12

>  <r_epik_State_Penalty>  (338) 
-0

>  <r_epik_Charging_Adjusted_Penalty>  (338) 
0

>  <i_epik_Tot_Q>  (338) 
0

>  <i_epik_Tot_abs_Q>  (338) 
0

>  <s_lp_Force_Field>  (338) 
OPLS3e

>  <r_lp_Energy>  (338) 
166.682

>  <b_lp_Chiralities_Consistent>  (338) 
1

>  <s_lp_Variant>  (338) 
110:0-1

>  <s_i_glide_gridfile>  (338) 
pfpi4k_grid

>  <i_i_glide_lignum>  (338) 
28

>  <i_i_glide_rotatable_bonds>  (338) 
1

>  <r_i_docking_score>  (338) 
-1.38056

>  <r_i_glide_ligand_efficiency>  (338) 
-0.0336723

>  <r_i_glide_ligand_efficiency_sa>  (338) 
-0.116109

>  <r_i_glide_ligand_efficiency_ln>  (338) 
-0.292891

>  <r_i_glide_gscore>  (338) 
-1.38056

>  <r_i_glide_lipo>  (338) 
-0.219922

>  <r_i_glide_hbond>  (338) 
0

>  <r_i_glide_metal>  (338) 
-0

>  <r_i_glide_rewards>  (338) 
-0.000214522

>  <r_i_glide_evdw>  (338) 
-23.2778

>  <r_i_glide_ecoul>  (338) 
-0.417588

>  <r_i_glide_erotb>  (338) 
0.0661024

>  <r_i_glide_esite>  (338) 
0

>  <r_i_glide_emodel>  (338) 
-25.3586

>  <r_i_glide_energy>  (338) 
-23.6954

>  <r_i_glide_einternal>  (338) 
0.104018

>  <r_i_glide_intrahb_reward>  (338) 
-0

>  <i_i_glide_confnum>  (338) 
1

>  <i_i_glide_posenum>  (338) 
40

>  <r_i_glide_eff_state_penalty>  (338) 
0

>  <ligand_id>  (338) 
110

>  <original_smiles>  (338) 
C=C(C)C1CCC2(C)C3=C4CC(=O)C5C(C)(CCC6C(C)(C)C7OC8CC(C)OC87C65C)C4(C)CCC3(C)CCC12

>  <smiles>  (338) 
[H]C([H])=C(C([H])([H])[H])C1([H])C([H])([H])C([H])([H])C2(C([H])([H])[H])C3=C4C([H])([H])C(=O)C5([H])C6(C([H])([H])[H])C([H])(C([H])([H])C([H])([H])C5(C([H])([H])[H])C4(C([H])([H])[H])C([H])([H])C([H])([H])C3(C([H])([H])[H])C([H])([H])C([H])([H])C12[H])C(C([H])([H])[H])(C([H])([H])[H])C1([H])OC2([H])C([H])([H])C([H])(C([H])([H])[H])OC216

$$$$
110:0:2
     RDKit          3D

 97104  0  0  1  0  0  0  0  0999 V2000
    0.5549  -10.0344    3.1928 C   0  0  0  0  0  0  0  0  0  0  0  0
    1.5312   -9.1586    2.9002 C   0  0  0  0  0  0  0  0  0  0  0  0
    2.7839   -9.6384    2.1632 C   0  0  0  0  0  0  0  0  0  0  0  0
    1.3651   -7.6627    3.2277 C   0  0  2  0  0  0  0  0  0  0  0  0
    1.9832   -6.6877    2.2380 C   0  0  0  0  0  0  0  0  0  0  0  0
    1.8860   -5.3247    2.9344 C   0  0  0  0  0  0  0  0  0  0  0  0
    1.6896   -5.5484    4.4695 C   0  0  2  0  0  0  0  0  0  0  0  0
    0.2272   -5.2208    4.8810 C   0  0  0  0  0  0  0  0  0  0  0  0
    2.6652   -4.6406    5.2970 C   0  0  0  0  0  0  0  0  0  0  0  0
    2.6710   -3.2644    5.2435 C   0  0  0  0  0  0  0  0  0  0  0  0
    1.6493   -2.4934    4.3905 C   0  0  0  0  0  0  0  0  0  0  0  0
    1.8674   -0.9850    4.3502 C   0  0  0  0  0  0  0  0  0  0  0  0
    1.8606   -0.3694    3.2884 O   0  0  0  0  0  0  0  0  0  0  0  0
    2.0309   -0.2696    5.6897 C   0  0  2  0  0  0  0  0  0  0  0  0
    2.8910   -1.1210    6.7099 C   0  0  1  0  0  0  0  0  0  0  0  0
    3.9761   -0.1966    7.3288 C   0  0  0  0  0  0  0  0  0  0  0  0
    1.9189   -1.5590    7.8432 C   0  0  0  0  0  0  0  0  0  0  0  0
    1.3155   -0.3684    8.6201 C   0  0  0  0  0  0  0  0  0  0  0  0
    0.5595    0.6659    7.7521 C   0  0  1  0  0  0  0  0  0  0  0  0
    0.7915    2.2352    8.0014 C   0  0  0  0  0  0  0  0  0  0  0  0
   -0.5449    2.9548    8.3450 C   0  0  0  0  0  0  0  0  0  0  0  0
    1.7560    2.6016    9.1494 C   0  0  0  0  0  0  0  0  0  0  0  0
    1.3270    2.5899    6.6201 C   0  0  2  0  0  0  0  0  0  0  0  0
    1.2431    3.7122    5.7506 O   0  0  0  0  0  0  0  0  0  0  0  0
    1.0951    2.7351    4.6627 C   0  0  2  0  0  0  0  0  0  0  0  0
    0.0076    3.1547    3.7136 C   0  0  0  0  0  0  0  0  0  0  0  0
   -1.1904    3.1881    4.6543 C   0  0  1  0  0  0  0  0  0  0  0  0
   -2.5596    2.9317    4.0261 C   0  0  0  0  0  0  0  0  0  0  0  0
   -0.9235    2.1609    5.6126 O   0  0  0  0  0  0  0  0  0  0  0  0
    0.4679    1.7875    5.6700 C   0  0  2  0  0  0  0  0  0  0  0  0
    0.6444    0.3678    6.1891 C   0  0  1  0  0  0  0  0  0  0  0  0
   -0.6002   -0.4787    5.7835 C   0  0  0  0  0  0  0  0  0  0  0  0
    3.6574   -2.3642    6.0321 C   0  0  2  0  0  0  0  0  0  0  0  0
    4.7604   -1.8942    5.0240 C   0  0  0  0  0  0  0  0  0  0  0  0
    4.4502   -3.1911    7.0918 C   0  0  0  0  0  0  0  0  0  0  0  0
    4.8879   -4.5494    6.5591 C   0  0  0  0  0  0  0  0  0  0  0  0
    3.6796   -5.4130    6.1595 C   0  0  1  0  0  0  0  0  0  0  0  0
    2.9940   -5.9395    7.4471 C   0  0  0  0  0  0  0  0  0  0  0  0
    4.2478   -6.5686    5.3370 C   0  0  0  0  0  0  0  0  0  0  0  0
    3.2127   -7.6465    5.0734 C   0  0  0  0  0  0  0  0  0  0  0  0
    1.8375   -7.1174    4.6013 C   0  0  2  0  0  0  0  0  0  0  0  0
    0.6569  -11.0798    2.9436 H   0  0  0  0  0  0  0  0  0  0  0  0
   -0.3703   -9.7457    3.6738 H   0  0  0  0  0  0  0  0  0  0  0  0
    2.9168   -9.0924    1.2326 H   0  0  0  0  0  0  0  0  0  0  0  0
    2.6699  -10.6816    1.8875 H   0  0  0  0  0  0  0  0  0  0  0  0
    3.7183   -9.6018    2.7084 H   0  0  0  0  0  0  0  0  0  0  0  0
    0.2899   -7.4891    3.1774 H   0  0  0  0  0  0  0  0  0  0  0  0
    3.0376   -6.9197    2.0925 H   0  0  0  0  0  0  0  0  0  0  0  0
    1.4969   -6.7065    1.2612 H   0  0  0  0  0  0  0  0  0  0  0  0
    2.7928   -4.7574    2.7148 H   0  0  0  0  0  0  0  0  0  0  0  0
    1.0522   -4.7697    2.5029 H   0  0  0  0  0  0  0  0  0  0  0  0
   -0.4732   -6.0225    4.6555 H   0  0  0  0  0  0  0  0  0  0  0  0
   -0.1771   -4.3551    4.3653 H   0  0  0  0  0  0  0  0  0  0  0  0
    0.1581   -5.0338    5.9544 H   0  0  0  0  0  0  0  0  0  0  0  0
    1.6181   -2.8629    3.3721 H   0  0  0  0  0  0  0  0  0  0  0  0
    0.6766   -2.6367    4.8393 H   0  0  0  0  0  0  0  0  0  0  0  0
    2.6835    0.5530    5.4161 H   0  0  0  0  0  0  0  0  0  0  0  0
    4.4899   -0.6706    8.1674 H   0  0  0  0  0  0  0  0  0  0  0  0
    3.5566    0.7284    7.7052 H   0  0  0  0  0  0  0  0  0  0  0  0
    4.7298    0.1217    6.6096 H   0  0  0  0  0  0  0  0  0  0  0  0
    1.1262   -2.1838    7.4308 H   0  0  0  0  0  0  0  0  0  0  0  0
    2.3952   -2.1774    8.5955 H   0  0  0  0  0  0  0  0  0  0  0  0
    0.6224   -0.7679    9.3644 H   0  0  0  0  0  0  0  0  0  0  0  0
    2.0952    0.0894    9.2223 H   0  0  0  0  0  0  0  0  0  0  0  0
   -0.4780    0.5024    8.0341 H   0  0  0  0  0  0  0  0  0  0  0  0
   -0.5006    4.0129    8.0680 H   0  0  0  0  0  0  0  0  0  0  0  0
   -0.7607    2.9110    9.4148 H   0  0  0  0  0  0  0  0  0  0  0  0
   -1.4225    2.5297    7.8576 H   0  0  0  0  0  0  0  0  0  0  0  0
    1.8184    3.6838    9.2813 H   0  0  0  0  0  0  0  0  0  0  0  0
    2.7732    2.2463    9.0009 H   0  0  0  0  0  0  0  0  0  0  0  0
    1.4031    2.1941   10.0994 H   0  0  0  0  0  0  0  0  0  0  0  0
    2.3689    2.2558    6.5877 H   0  0  0  0  0  0  0  0  0  0  0  0
    2.0363    2.3990    4.2144 H   0  0  0  0  0  0  0  0  0  0  0  0
    0.1974    4.1075    3.2256 H   0  0  0  0  0  0  0  0  0  0  0  0
   -0.1406    2.3862    2.9494 H   0  0  0  0  0  0  0  0  0  0  0  0
   -1.2017    4.1529    5.1739 H   0  0  0  0  0  0  0  0  0  0  0  0
   -2.8069    3.6724    3.2652 H   0  0  0  0  0  0  0  0  0  0  0  0
   -3.3373    2.9585    4.7914 H   0  0  0  0  0  0  0  0  0  0  0  0
   -2.5873    1.9427    3.5640 H   0  0  0  0  0  0  0  0  0  0  0  0
   -1.5216   -0.0595    6.1847 H   0  0  0  0  0  0  0  0  0  0  0  0
   -0.5537   -1.4969    6.1543 H   0  0  0  0  0  0  0  0  0  0  0  0
   -0.7477   -0.4998    4.7044 H   0  0  0  0  0  0  0  0  0  0  0  0
    5.6836   -1.6001    5.5235 H   0  0  0  0  0  0  0  0  0  0  0  0
    4.4750   -1.0434    4.4109 H   0  0  0  0  0  0  0  0  0  0  0  0
    5.0340   -2.6931    4.3312 H   0  0  0  0  0  0  0  0  0  0  0  0
    5.3342   -2.6516    7.4345 H   0  0  0  0  0  0  0  0  0  0  0  0
    3.8877   -3.3849    7.9969 H   0  0  0  0  0  0  0  0  0  0  0  0
    5.5683   -4.4114    5.7183 H   0  0  0  0  0  0  0  0  0  0  0  0
    5.4758   -5.0638    7.3215 H   0  0  0  0  0  0  0  0  0  0  0  0
    3.6885   -6.5258    8.0507 H   0  0  0  0  0  0  0  0  0  0  0  0
    2.1380   -6.5786    7.2387 H   0  0  0  0  0  0  0  0  0  0  0  0
    2.6050   -5.1324    8.0672 H   0  0  0  0  0  0  0  0  0  0  0  0
    4.6213   -6.1848    4.3856 H   0  0  0  0  0  0  0  0  0  0  0  0
    5.1077   -7.0165    5.8354 H   0  0  0  0  0  0  0  0  0  0  0  0
    3.6918   -8.2924    4.3703 H   0  0  0  0  0  0  0  0  0  0  0  0
    3.0667   -8.2469    5.9748 H   0  0  0  0  0  0  0  0  0  0  0  0
    1.1254   -7.4715    5.3487 H   0  0  0  0  0  0  0  0  0  0  0  0
  1  2  2  0
  1 42  1  0
  1 43  1  0
  2  3  1  0
  2  4  1  0
  3 44  1  0
  3 45  1  0
  3 46  1  0
  4 41  1  0
  4  5  1  0
  4 47  1  1
  5  6  1  0
  5 48  1  0
  5 49  1  0
  6  7  1  0
  6 50  1  0
  6 51  1  0
  7 41  1  0
  7  8  1  1
  7  9  1  0
  8 52  1  0
  8 53  1  0
  8 54  1  0
  9 37  1  0
  9 10  2  0
 10 33  1  0
 10 11  1  0
 11 12  1  0
 11 55  1  0
 11 56  1  0
 12 13  2  0
 12 14  1  0
 14 31  1  0
 14 15  1  0
 14 57  1  6
 15 16  1  1
 15 17  1  0
 15 33  1  0
 16 58  1  0
 16 59  1  0
 16 60  1  0
 17 18  1  0
 17 61  1  0
 17 62  1  0
 18 19  1  0
 18 63  1  0
 18 64  1  0
 19 31  1  0
 19 20  1  0
 19 65  1  1
 20 21  1  0
 20 22  1  0
 20 23  1  0
 21 66  1  0
 21 67  1  0
 21 68  1  0
 22 69  1  0
 22 70  1  0
 22 71  1  0
 23 30  1  0
 23 24  1  0
 23 72  1  1
 24 25  1  0
 25 30  1  0
 25 26  1  0
 25 73  1  6
 26 27  1  0
 26 74  1  0
 26 75  1  0
 27 28  1  0
 27 29  1  0
 27 76  1  1
 28 77  1  0
 28 78  1  0
 28 79  1  0
 30 29  1  1
 30 31  1  0
 31 32  1  6
 32 80  1  0
 32 81  1  0
 32 82  1  0
 33 34  1  6
 33 35  1  0
 34 83  1  0
 34 84  1  0
 34 85  1  0
 35 36  1  0
 35 86  1  0
 35 87  1  0
 36 37  1  0
 36 88  1  0
 36 89  1  0
 37 38  1  1
 37 39  1  0
 38 90  1  0
 38 91  1  0
 38 92  1  0
 39 40  1  0
 39 93  1  0
 39 94  1  0
 40 41  1  0
 40 95  1  0
 40 96  1  0
 41 97  1  1
M  END
>  <i_m_ct_stereo_status>  (339) 
1

>  <s_m_source_file>  (339) 
/var/tmp/pbs.5076255.sched01/tmpux3k924y/120tsqzh4i4.sdf

>  <i_m_source_file_index>  (339) 
28

>  <i_lp_mmshare_version>  (339) 
48012

>  <i_f3d_flags>  (339) 
0

>  <s_epik_input>  (339) 
W0NIMl0xW0NIMl1bQ0BdMihbQ0gzXSlbQ0gyXVtDSDJdW0NASF0oW0NASF0oQyg9W0NIMl0pW0NIM10pW0NIMl1bQ0gyXTMpW0NAQF0zKFtDSDNdKUMyPUMoW0NIMl1DND1PKVtDQEBdMShbQ0gzXSlbQ0BdKFtDSDNdKShbQ0gyXVtDSDJdNSlbQ0BASF00W0NAQF02KFtDSDNdKVtDQEBIXTVDKFtDSDNdKShbQ0gzXSlbQ0BASF0oW0NAXTY3OClPW0NAQEhdN1tDSDJdW0NASF0oTzgpW0NIM10=

>  <s_epik_cmdline>  (339) 
J2VwaWtfcHl0aG9uJywgJy1waHQnLCAnMi4wJywgJy1waCcsICc3LjAnLCAnLXRuJywgJzgnLCAnLW1hJywgJzIwMCcsICctaW1hZScsICc8aW5maWxlLm1hZT4nLCAnLW9tYWUnLCAnPG91dGZpbGUubWFlPic=

>  <r_lp_tautomer_probability>  (339) 
1

>  <r_epik_Ionization_Penalty>  (339) 
7.20992e-12

>  <r_epik_Ionization_Penalty_Charging>  (339) 
0

>  <r_epik_Ionization_Penalty_Neutral>  (339) 
7.20992e-12

>  <r_epik_State_Penalty>  (339) 
-0

>  <r_epik_Charging_Adjusted_Penalty>  (339) 
0

>  <i_epik_Tot_Q>  (339) 
0

>  <i_epik_Tot_abs_Q>  (339) 
0

>  <s_lp_Force_Field>  (339) 
OPLS3e

>  <r_lp_Energy>  (339) 
166.682

>  <b_lp_Chiralities_Consistent>  (339) 
1

>  <s_lp_Variant>  (339) 
110:0-1

>  <s_i_glide_gridfile>  (339) 
pfpi4k_grid

>  <i_i_glide_lignum>  (339) 
28

>  <i_i_glide_rotatable_bonds>  (339) 
1

>  <r_i_docking_score>  (339) 
-1.29724

>  <r_i_glide_ligand_efficiency>  (339) 
-0.0316399

>  <r_i_glide_ligand_efficiency_sa>  (339) 
-0.109101

>  <r_i_glide_ligand_efficiency_ln>  (339) 
-0.275213

>  <r_i_glide_gscore>  (339) 
-1.29724

>  <r_i_glide_lipo>  (339) 
-0.031425

>  <r_i_glide_hbond>  (339) 
0

>  <r_i_glide_metal>  (339) 
-0

>  <r_i_glide_rewards>  (339) 
0

>  <r_i_glide_evdw>  (339) 
-26.1707

>  <r_i_glide_ecoul>  (339) 
-0.15475

>  <r_i_glide_erotb>  (339) 
0.0661024

>  <r_i_glide_esite>  (339) 
-0.000168394

>  <r_i_glide_emodel>  (339) 
-26.4773

>  <r_i_glide_energy>  (339) 
-26.3254

>  <r_i_glide_einternal>  (339) 
2.61822

>  <r_i_glide_intrahb_reward>  (339) 
-0

>  <i_i_glide_confnum>  (339) 
2

>  <i_i_glide_posenum>  (339) 
16

>  <r_i_glide_eff_state_penalty>  (339) 
0

>  <ligand_id>  (339) 
110

>  <original_smiles>  (339) 
C=C(C)C1CCC2(C)C3=C4CC(=O)C5C(C)(CCC6C(C)(C)C7OC8CC(C)OC87C65C)C4(C)CCC3(C)CCC12

>  <smiles>  (339) 
[H]C([H])=C(C([H])([H])[H])C1([H])C([H])([H])C([H])([H])C2(C([H])([H])[H])C3=C4C([H])([H])C(=O)C5([H])C6(C([H])([H])[H])C([H])(C([H])([H])C([H])([H])C5(C([H])([H])[H])C4(C([H])([H])[H])C([H])([H])C([H])([H])C3(C([H])([H])[H])C([H])([H])C([H])([H])C12[H])C(C([H])([H])[H])(C([H])([H])[H])C1([H])OC2([H])C([H])([H])C([H])(C([H])([H])[H])OC216

$$$$
111:0:0
     RDKit          3D

 47 50  0  0  1  0  0  0  0  0999 V2000
    3.1602   -3.0945   -3.5993 C   0  0  0  0  0  0  0  0  0  0  0  0
    3.8717   -3.1791   -2.4734 C   0  0  0  0  0  0  0  0  0  0  0  0
    5.1904   -3.9392   -2.4396 C   0  0  0  0  0  0  0  0  0  0  0  0
    6.1836   -3.3190   -1.4679 C   0  0  0  0  0  0  0  0  0  0  0  0
    5.6438   -3.1907   -0.0269 C   0  0  2  0  0  0  0  0  0  0  0  0
    6.4844   -2.1865    0.4622 O   0  0  0  0  0  0  0  0  0  0  0  0
    5.5266   -4.4478    0.8922 C   0  0  0  0  0  0  0  0  0  0  0  0
    6.2430   -5.7016    0.4441 C   0  0  0  0  0  0  0  0  0  0  0  0
    5.9335   -4.2697    2.3477 C   0  0  0  0  0  0  0  0  0  0  0  0
    4.0150   -4.4128    0.6025 C   0  0  1  0  0  0  0  0  0  0  0  0
    2.9728   -4.7840    1.6657 C   0  0  0  0  0  0  0  0  0  0  0  0
    2.6644   -3.6532    2.6570 C   0  0  0  0  0  0  0  0  0  0  0  0
    2.4090   -2.3054    1.9470 C   0  0  1  0  0  0  0  0  0  0  0  0
    1.9523   -1.2560    2.9851 C   0  0  0  0  0  0  0  0  0  0  0  0
    3.6477   -1.8657    1.1143 C   0  0  2  0  0  0  0  0  0  0  0  0
    3.4041   -0.6151    0.2548 C   0  0  0  0  0  0  0  0  0  0  0  0
    3.4571   -1.0601   -1.2089 C   0  0  0  0  0  0  0  0  0  0  0  0
    3.3750   -2.5700   -1.1561 C   0  0  2  0  0  0  0  0  0  0  0  0
    4.1176   -2.9604    0.1283 C   0  0  1  0  0  0  0  0  0  0  0  0
    2.2086   -2.5741   -3.6341 H   0  0  0  0  0  0  0  0  0  0  0  0
    3.5082   -3.5643   -4.5111 H   0  0  0  0  0  0  0  0  0  0  0  0
    4.9909   -4.9770   -2.1735 H   0  0  0  0  0  0  0  0  0  0  0  0
    5.6139   -3.9762   -3.4483 H   0  0  0  0  0  0  0  0  0  0  0  0
    7.1291   -3.8599   -1.4807 H   0  0  0  0  0  0  0  0  0  0  0  0
    6.4163   -2.3270   -1.8718 H   0  0  0  0  0  0  0  0  0  0  0  0
    6.1731   -1.9947    1.3444 H   0  0  0  0  0  0  0  0  0  0  0  0
    6.0632   -6.5558    1.0952 H   0  0  0  0  0  0  0  0  0  0  0  0
    7.3214   -5.5488    0.3752 H   0  0  0  0  0  0  0  0  0  0  0  0
    5.8755   -5.9880   -0.5329 H   0  0  0  0  0  0  0  0  0  0  0  0
    5.5381   -5.0702    2.9767 H   0  0  0  0  0  0  0  0  0  0  0  0
    5.6098   -3.3227    2.7674 H   0  0  0  0  0  0  0  0  0  0  0  0
    7.0172   -4.3124    2.4474 H   0  0  0  0  0  0  0  0  0  0  0  0
    3.8312   -5.0433   -0.2721 H   0  0  0  0  0  0  0  0  0  0  0  0
    2.0318   -5.0341    1.1720 H   0  0  0  0  0  0  0  0  0  0  0  0
    3.2607   -5.6803    2.2114 H   0  0  0  0  0  0  0  0  0  0  0  0
    1.8016   -3.9246    3.2695 H   0  0  0  0  0  0  0  0  0  0  0  0
    3.4876   -3.5304    3.3654 H   0  0  0  0  0  0  0  0  0  0  0  0
    1.5750   -2.4411    1.2629 H   0  0  0  0  0  0  0  0  0  0  0  0
    2.7384   -1.0257    3.7073 H   0  0  0  0  0  0  0  0  0  0  0  0
    1.0901   -1.6270    3.5438 H   0  0  0  0  0  0  0  0  0  0  0  0
    1.6374   -0.3200    2.5204 H   0  0  0  0  0  0  0  0  0  0  0  0
    4.4239   -1.6283    1.8380 H   0  0  0  0  0  0  0  0  0  0  0  0
    2.4454   -0.1536    0.4843 H   0  0  0  0  0  0  0  0  0  0  0  0
    4.1696    0.1380    0.4544 H   0  0  0  0  0  0  0  0  0  0  0  0
    2.6556   -0.6721   -1.8370 H   0  0  0  0  0  0  0  0  0  0  0  0
    4.4033   -0.7417   -1.6505 H   0  0  0  0  0  0  0  0  0  0  0  0
    2.3255   -2.8514   -1.0686 H   0  0  0  0  0  0  0  0  0  0  0  0
  1  2  2  0
  1 20  1  0
  1 21  1  0
  2 18  1  0
  2  3  1  0
  3  4  1  0
  3 22  1  0
  3 23  1  0
  4  5  1  0
  4 24  1  0
  4 25  1  0
 19  5  1  6
  5  6  1  1
  5  7  1  0
  6 26  1  0
  7  8  1  0
  7  9  1  0
  7 10  1  0
  8 27  1  0
  8 28  1  0
  8 29  1  0
  9 30  1  0
  9 31  1  0
  9 32  1  0
 10 19  1  0
 10 11  1  0
 10 33  1  6
 11 12  1  0
 11 34  1  0
 11 35  1  0
 12 13  1  0
 12 36  1  0
 12 37  1  0
 13 14  1  0
 13 15  1  0
 13 38  1  6
 14 39  1  0
 14 40  1  0
 14 41  1  0
 15 19  1  0
 15 16  1  0
 15 42  1  1
 16 17  1  0
 16 43  1  0
 16 44  1  0
 17 18  1  0
 17 45  1  0
 17 46  1  0
 18 19  1  0
 18 47  1  1
M  END
>  <i_m_ct_stereo_status>  (340) 
1

>  <s_m_source_file>  (340) 
/var/tmp/pbs.5076255.sched01/tmpux3k924y/120tsqzh4i4.sdf

>  <i_m_source_file_index>  (340) 
29

>  <i_lp_mmshare_version>  (340) 
48012

>  <i_f3d_flags>  (340) 
0

>  <s_epik_input>  (340) 
W09IXVtDQEBdMShbQ0BAXTIzNClbQ0gyXVtDSDJdQyg9W0NIMl0pW0NAQEhdNFtDSDJdW0NIMl1bQ0BIXTNbQ0BIXShbQ0gzXSlbQ0gyXVtDSDJdW0NAQEhdMkMxKFtDSDNdKVtDSDNd

>  <s_epik_cmdline>  (340) 
J2VwaWtfcHl0aG9uJywgJy1waHQnLCAnMi4wJywgJy1waCcsICc3LjAnLCAnLXRuJywgJzgnLCAnLW1hJywgJzIwMCcsICctaW1hZScsICc8aW5maWxlLm1hZT4nLCAnLW9tYWUnLCAnPG91dGZpbGUubWFlPic=

>  <r_lp_tautomer_probability>  (340) 
1

>  <r_epik_Ionization_Penalty>  (340) 
3.06494e-06

>  <r_epik_Ionization_Penalty_Charging>  (340) 
0

>  <r_epik_Ionization_Penalty_Neutral>  (340) 
3.06494e-06

>  <r_epik_State_Penalty>  (340) 
-0

>  <r_epik_Charging_Adjusted_Penalty>  (340) 
0

>  <i_epik_Tot_Q>  (340) 
0

>  <i_epik_Tot_abs_Q>  (340) 
0

>  <s_lp_Force_Field>  (340) 
OPLS3e

>  <r_lp_Energy>  (340) 
51.6953

>  <b_lp_Chiralities_Consistent>  (340) 
1

>  <s_lp_Variant>  (340) 
111:0-1

>  <s_i_glide_gridfile>  (340) 
pfpi4k_grid

>  <i_i_glide_lignum>  (340) 
29

>  <i_i_glide_rotatable_bonds>  (340) 
1

>  <r_i_docking_score>  (340) 
-3.09613

>  <r_i_glide_ligand_efficiency>  (340) 
-0.162954

>  <r_i_glide_ligand_efficiency_sa>  (340) 
-0.434827

>  <r_i_glide_ligand_efficiency_ln>  (340) 
-0.784935

>  <r_i_glide_gscore>  (340) 
-3.09613

>  <r_i_glide_lipo>  (340) 
-0.625745

>  <r_i_glide_hbond>  (340) 
0

>  <r_i_glide_metal>  (340) 
-0

>  <r_i_glide_rewards>  (340) 
-1.63354

>  <r_i_glide_evdw>  (340) 
-15.9739

>  <r_i_glide_ecoul>  (340) 
-0.25433

>  <r_i_glide_erotb>  (340) 
0

>  <r_i_glide_esite>  (340) 
0

>  <r_i_glide_emodel>  (340) 
-18.839

>  <r_i_glide_energy>  (340) 
-16.2282

>  <r_i_glide_einternal>  (340) 
0.00275542

>  <r_i_glide_intrahb_reward>  (340) 
-0

>  <i_i_glide_confnum>  (340) 
2

>  <i_i_glide_posenum>  (340) 
1

>  <r_i_glide_eff_state_penalty>  (340) 
0

>  <ligand_id>  (340) 
111

>  <original_smiles>  (340) 
C=C1CCC2(O)C(C)(C)C3CCC(C)C4CCC1C432

>  <smiles>  (340) 
[H]OC12C([H])([H])C([H])([H])C(=C([H])[H])C3([H])C([H])([H])C([H])([H])C4([H])C([H])(C([H])([H])[H])C([H])([H])C([H])([H])C([H])(C1(C([H])([H])[H])C([H])([H])[H])C342

$$$$
111:0:1
     RDKit          3D

 47 50  0  0  1  0  0  0  0  0999 V2000
    3.0303   -0.8779    3.1831 C   0  0  0  0  0  0  0  0  0  0  0  0
    3.8470   -1.5252    2.3281 C   0  0  0  0  0  0  0  0  0  0  0  0
    5.2826   -1.8120    2.7110 C   0  0  0  0  0  0  0  0  0  0  0  0
    5.7397   -3.1419    2.1119 C   0  0  0  0  0  0  0  0  0  0  0  0
    5.6425   -3.2016    0.5907 C   0  0  2  0  0  0  0  0  0  0  0  0
    5.6862   -4.6026    0.3990 O   0  0  0  0  0  0  0  0  0  0  0  0
    6.6265   -2.4168   -0.3169 C   0  0  0  0  0  0  0  0  0  0  0  0
    7.8871   -1.8567    0.3506 C   0  0  0  0  0  0  0  0  0  0  0  0
    7.1413   -3.1363   -1.5652 C   0  0  0  0  0  0  0  0  0  0  0  0
    5.4610   -1.4320   -0.5396 C   0  0  1  0  0  0  0  0  0  0  0  0
    5.1810   -0.7604   -1.8780 C   0  0  0  0  0  0  0  0  0  0  0  0
    4.4663   -1.6310   -2.9087 C   0  0  0  0  0  0  0  0  0  0  0  0
    3.2279   -2.2895   -2.2980 C   0  0  1  0  0  0  0  0  0  0  0  0
    2.4397   -3.0124   -3.4081 C   0  0  0  0  0  0  0  0  0  0  0  0
    3.5973   -3.2063   -1.0989 C   0  0  2  0  0  0  0  0  0  0  0  0
    2.3827   -3.7749   -0.3410 C   0  0  0  0  0  0  0  0  0  0  0  0
    2.4072   -3.1450    1.0574 C   0  0  0  0  0  0  0  0  0  0  0  0
    3.3697   -1.9798    0.9425 C   0  0  2  0  0  0  0  0  0  0  0  0
    4.4439   -2.4656   -0.0405 C   0  0  1  0  0  0  0  0  0  0  0  0
    1.9996   -0.6728    2.9213 H   0  0  0  0  0  0  0  0  0  0  0  0
    3.3857   -0.5556    4.1584 H   0  0  0  0  0  0  0  0  0  0  0  0
    5.8941   -0.9762    2.3754 H   0  0  0  0  0  0  0  0  0  0  0  0
    5.3864   -1.8320    3.8004 H   0  0  0  0  0  0  0  0  0  0  0  0
    6.7494   -3.3535    2.3811 H   0  0  0  0  0  0  0  0  0  0  0  0
    5.1500   -3.9276    2.5863 H   0  0  0  0  0  0  0  0  0  0  0  0
    5.4351   -4.7510   -0.4876 H   0  0  0  0  0  0  0  0  0  0  0  0
    8.5133   -1.2865   -0.3207 H   0  0  0  0  0  0  0  0  0  0  0  0
    8.5116   -2.6567    0.7363 H   0  0  0  0  0  0  0  0  0  0  0  0
    7.6570   -1.1982    1.1809 H   0  0  0  0  0  0  0  0  0  0  0  0
    7.5291   -2.4441   -2.3099 H   0  0  0  0  0  0  0  0  0  0  0  0
    6.3648   -3.7268   -2.0490 H   0  0  0  0  0  0  0  0  0  0  0  0
    7.9519   -3.8158   -1.3174 H   0  0  0  0  0  0  0  0  0  0  0  0
    5.5581   -0.6596    0.2205 H   0  0  0  0  0  0  0  0  0  0  0  0
    4.5807    0.1365   -1.7313 H   0  0  0  0  0  0  0  0  0  0  0  0
    6.0963   -0.4365   -2.3163 H   0  0  0  0  0  0  0  0  0  0  0  0
    4.1867   -1.0118   -3.7663 H   0  0  0  0  0  0  0  0  0  0  0  0
    5.1340   -2.3954   -3.3016 H   0  0  0  0  0  0  0  0  0  0  0  0
    2.6117   -1.4708   -1.9247 H   0  0  0  0  0  0  0  0  0  0  0  0
    3.0007   -3.8503   -3.8319 H   0  0  0  0  0  0  0  0  0  0  0  0
    2.2087   -2.3216   -4.2243 H   0  0  0  0  0  0  0  0  0  0  0  0
    1.4838   -3.3932   -3.0444 H   0  0  0  0  0  0  0  0  0  0  0  0
    4.1534   -4.0393   -1.5258 H   0  0  0  0  0  0  0  0  0  0  0  0
    1.4580   -3.5506   -0.8634 H   0  0  0  0  0  0  0  0  0  0  0  0
    2.4708   -4.8592   -0.2801 H   0  0  0  0  0  0  0  0  0  0  0  0
    1.4537   -2.7685    1.4160 H   0  0  0  0  0  0  0  0  0  0  0  0
    2.7716   -3.8782    1.7773 H   0  0  0  0  0  0  0  0  0  0  0  0
    2.8362   -1.1323    0.5104 H   0  0  0  0  0  0  0  0  0  0  0  0
  1  2  2  0
  1 20  1  0
  1 21  1  0
  2 18  1  0
  2  3  1  0
  3  4  1  0
  3 22  1  0
  3 23  1  0
  4  5  1  0
  4 24  1  0
  4 25  1  0
 19  5  1  1
  5  6  1  6
  5  7  1  0
  6 26  1  0
  7  8  1  0
  7  9  1  0
  7 10  1  0
  8 27  1  0
  8 28  1  0
  8 29  1  0
  9 30  1  0
  9 31  1  0
  9 32  1  0
 10 19  1  0
 10 11  1  0
 10 33  1  1
 11 12  1  0
 11 34  1  0
 11 35  1  0
 12 13  1  0
 12 36  1  0
 12 37  1  0
 13 14  1  0
 13 15  1  0
 13 38  1  1
 14 39  1  0
 14 40  1  0
 14 41  1  0
 15 19  1  0
 15 16  1  0
 15 42  1  6
 16 17  1  0
 16 43  1  0
 16 44  1  0
 17 18  1  0
 17 45  1  0
 17 46  1  0
 18 19  1  0
 18 47  1  6
M  END
>  <i_m_ct_stereo_status>  (341) 
1

>  <s_m_source_file>  (341) 
/var/tmp/pbs.5076255.sched01/tmpux3k924y/120tsqzh4i4.sdf

>  <i_m_source_file_index>  (341) 
29

>  <i_lp_mmshare_version>  (341) 
48012

>  <i_f3d_flags>  (341) 
0

>  <s_epik_input>  (341) 
W09IXVtDQEBdMShbQ0BAXTIzNClbQ0gyXVtDSDJdQyg9W0NIMl0pW0NAQEhdNFtDSDJdW0NIMl1bQ0BIXTNbQ0BIXShbQ0gzXSlbQ0gyXVtDSDJdW0NAQEhdMkMxKFtDSDNdKVtDSDNd

>  <s_epik_cmdline>  (341) 
J2VwaWtfcHl0aG9uJywgJy1waHQnLCAnMi4wJywgJy1waCcsICc3LjAnLCAnLXRuJywgJzgnLCAnLW1hJywgJzIwMCcsICctaW1hZScsICc8aW5maWxlLm1hZT4nLCAnLW9tYWUnLCAnPG91dGZpbGUubWFlPic=

>  <r_lp_tautomer_probability>  (341) 
1

>  <r_epik_Ionization_Penalty>  (341) 
3.06494e-06

>  <r_epik_Ionization_Penalty_Charging>  (341) 
0

>  <r_epik_Ionization_Penalty_Neutral>  (341) 
3.06494e-06

>  <r_epik_State_Penalty>  (341) 
-0

>  <r_epik_Charging_Adjusted_Penalty>  (341) 
0

>  <i_epik_Tot_Q>  (341) 
0

>  <i_epik_Tot_abs_Q>  (341) 
0

>  <s_lp_Force_Field>  (341) 
OPLS3e

>  <r_lp_Energy>  (341) 
51.6953

>  <b_lp_Chiralities_Consistent>  (341) 
1

>  <s_lp_Variant>  (341) 
111:0-1

>  <s_i_glide_gridfile>  (341) 
pfpi4k_grid

>  <i_i_glide_lignum>  (341) 
29

>  <i_i_glide_rotatable_bonds>  (341) 
1

>  <r_i_docking_score>  (341) 
-3.03246

>  <r_i_glide_ligand_efficiency>  (341) 
-0.159603

>  <r_i_glide_ligand_efficiency_sa>  (341) 
-0.425885

>  <r_i_glide_ligand_efficiency_ln>  (341) 
-0.768794

>  <r_i_glide_gscore>  (341) 
-3.03246

>  <r_i_glide_lipo>  (341) 
-0.447988

>  <r_i_glide_hbond>  (341) 
0

>  <r_i_glide_metal>  (341) 
-0

>  <r_i_glide_rewards>  (341) 
-1.63354

>  <r_i_glide_evdw>  (341) 
-15.0475

>  <r_i_glide_ecoul>  (341) 
-1.32373

>  <r_i_glide_erotb>  (341) 
0

>  <r_i_glide_esite>  (341) 
0

>  <r_i_glide_emodel>  (341) 
-18.7522

>  <r_i_glide_energy>  (341) 
-16.3712

>  <r_i_glide_einternal>  (341) 
0.0446709

>  <r_i_glide_intrahb_reward>  (341) 
-0

>  <i_i_glide_confnum>  (341) 
1

>  <i_i_glide_posenum>  (341) 
22

>  <r_i_glide_eff_state_penalty>  (341) 
0

>  <ligand_id>  (341) 
111

>  <original_smiles>  (341) 
C=C1CCC2(O)C(C)(C)C3CCC(C)C4CCC1C432

>  <smiles>  (341) 
[H]OC12C([H])([H])C([H])([H])C(=C([H])[H])C3([H])C([H])([H])C([H])([H])C4([H])C([H])(C([H])([H])[H])C([H])([H])C([H])([H])C([H])(C1(C([H])([H])[H])C([H])([H])[H])C342

$$$$
111:0:2
     RDKit          3D

 47 50  0  0  1  0  0  0  0  0999 V2000
    3.4159   -3.1256   -3.5301 C   0  0  0  0  0  0  0  0  0  0  0  0
    4.0160   -3.2472   -2.3341 C   0  0  0  0  0  0  0  0  0  0  0  0
    5.2881   -4.0596   -2.1824 C   0  0  0  0  0  0  0  0  0  0  0  0
    6.2141   -3.4686   -1.1156 C   0  0  0  0  0  0  0  0  0  0  0  0
    5.5461   -3.3217    0.2645 C   0  0  2  0  0  0  0  0  0  0  0  0
    6.3574   -2.3404    0.8723 O   0  0  0  0  0  0  0  0  0  0  0  0
    5.2946   -4.5901    1.1464 C   0  0  0  0  0  0  0  0  0  0  0  0
    6.0116   -5.8844    0.7483 C   0  0  0  0  0  0  0  0  0  0  0  0
    5.5597   -4.4468    2.6467 C   0  0  0  0  0  0  0  0  0  0  0  0
    3.8120   -4.4971    0.7179 C   0  0  1  0  0  0  0  0  0  0  0  0
    2.6685   -4.8214    1.6882 C   0  0  0  0  0  0  0  0  0  0  0  0
    2.3161   -3.6742    2.6513 C   0  0  0  0  0  0  0  0  0  0  0  0
    2.1870   -2.3118    1.9358 C   0  0  1  0  0  0  0  0  0  0  0  0
    1.6810   -1.2499    2.9326 C   0  0  0  0  0  0  0  0  0  0  0  0
    3.5125   -1.9260    1.2197 C   0  0  2  0  0  0  0  0  0  0  0  0
    3.4096   -0.6565    0.3519 C   0  0  0  0  0  0  0  0  0  0  0  0
    3.5783   -1.0968   -1.1009 C   0  0  0  0  0  0  0  0  0  0  0  0
    3.4241   -2.6122   -1.0751 C   0  0  2  0  0  0  0  0  0  0  0  0
    4.0223   -3.0425    0.2747 C   0  0  1  0  0  0  0  0  0  0  0  0
    2.4949   -2.5606   -3.6465 H   0  0  0  0  0  0  0  0  0  0  0  0
    3.8290   -3.6149   -4.4015 H   0  0  0  0  0  0  0  0  0  0  0  0
    5.0156   -5.0820   -1.9341 H   0  0  0  0  0  0  0  0  0  0  0  0
    5.8003   -4.1231   -3.1457 H   0  0  0  0  0  0  0  0  0  0  0  0
    7.1424   -4.0308   -1.0382 H   0  0  0  0  0  0  0  0  0  0  0  0
    6.5184   -2.4917   -1.4952 H   0  0  0  0  0  0  0  0  0  0  0  0
    7.1773   -2.7673    1.0589 H   0  0  0  0  0  0  0  0  0  0  0  0
    5.7213   -6.7308    1.3721 H   0  0  0  0  0  0  0  0  0  0  0  0
    7.0936   -5.7804    0.8199 H   0  0  0  0  0  0  0  0  0  0  0  0
    5.7896   -6.1759   -0.2745 H   0  0  0  0  0  0  0  0  0  0  0  0
    5.0581   -5.2232    3.2272 H   0  0  0  0  0  0  0  0  0  0  0  0
    5.2434   -3.4796    3.0303 H   0  0  0  0  0  0  0  0  0  0  0  0
    6.6167   -4.5451    2.8619 H   0  0  0  0  0  0  0  0  0  0  0  0
    3.6864   -5.1221   -0.1685 H   0  0  0  0  0  0  0  0  0  0  0  0
    1.7765   -5.0350    1.1026 H   0  0  0  0  0  0  0  0  0  0  0  0
    2.8663   -5.7302    2.2562 H   0  0  0  0  0  0  0  0  0  0  0  0
    1.3885   -3.9105    3.1756 H   0  0  0  0  0  0  0  0  0  0  0  0
    3.0685   -3.5941    3.4395 H   0  0  0  0  0  0  0  0  0  0  0  0
    1.4172   -2.3975    1.1728 H   0  0  0  0  0  0  0  0  0  0  0  0
    2.4046   -1.0571    3.7267 H   0  0  0  0  0  0  0  0  0  0  0  0
    0.7541   -1.5869    3.4011 H   0  0  0  0  0  0  0  0  0  0  0  0
    1.4536   -0.3022    2.4424 H   0  0  0  0  0  0  0  0  0  0  0  0
    4.2359   -1.7282    2.0143 H   0  0  0  0  0  0  0  0  0  0  0  0
    2.4531   -0.1600    0.4829 H   0  0  0  0  0  0  0  0  0  0  0  0
    4.1813    0.0610    0.6243 H   0  0  0  0  0  0  0  0  0  0  0  0
    2.8673   -0.6535   -1.7834 H   0  0  0  0  0  0  0  0  0  0  0  0
    4.5766   -0.8319   -1.4477 H   0  0  0  0  0  0  0  0  0  0  0  0
    2.3598   -2.8475   -1.0790 H   0  0  0  0  0  0  0  0  0  0  0  0
  1  2  2  0
  1 20  1  0
  1 21  1  0
  2 18  1  0
  2  3  1  0
  3  4  1  0
  3 22  1  0
  3 23  1  0
  4  5  1  0
  4 24  1  0
  4 25  1  0
 19  5  1  6
  5  6  1  1
  5  7  1  0
  6 26  1  0
  7  8  1  0
  7  9  1  0
  7 10  1  0
  8 27  1  0
  8 28  1  0
  8 29  1  0
  9 30  1  0
  9 31  1  0
  9 32  1  0
 10 19  1  0
 10 11  1  0
 10 33  1  6
 11 12  1  0
 11 34  1  0
 11 35  1  0
 12 13  1  0
 12 36  1  0
 12 37  1  0
 13 14  1  0
 13 15  1  0
 13 38  1  6
 14 39  1  0
 14 40  1  0
 14 41  1  0
 15 19  1  0
 15 16  1  0
 15 42  1  1
 16 17  1  0
 16 43  1  0
 16 44  1  0
 17 18  1  0
 17 45  1  0
 17 46  1  0
 18 19  1  0
 18 47  1  1
M  END
>  <i_m_ct_stereo_status>  (342) 
1

>  <s_m_source_file>  (342) 
/var/tmp/pbs.5076255.sched01/tmpux3k924y/120tsqzh4i4.sdf

>  <i_m_source_file_index>  (342) 
29

>  <i_lp_mmshare_version>  (342) 
48012

>  <i_f3d_flags>  (342) 
0

>  <s_epik_input>  (342) 
W09IXVtDQEBdMShbQ0BAXTIzNClbQ0gyXVtDSDJdQyg9W0NIMl0pW0NAQEhdNFtDSDJdW0NIMl1bQ0BIXTNbQ0BIXShbQ0gzXSlbQ0gyXVtDSDJdW0NAQEhdMkMxKFtDSDNdKVtDSDNd

>  <s_epik_cmdline>  (342) 
J2VwaWtfcHl0aG9uJywgJy1waHQnLCAnMi4wJywgJy1waCcsICc3LjAnLCAnLXRuJywgJzgnLCAnLW1hJywgJzIwMCcsICctaW1hZScsICc8aW5maWxlLm1hZT4nLCAnLW9tYWUnLCAnPG91dGZpbGUubWFlPic=

>  <r_lp_tautomer_probability>  (342) 
1

>  <r_epik_Ionization_Penalty>  (342) 
3.06494e-06

>  <r_epik_Ionization_Penalty_Charging>  (342) 
0

>  <r_epik_Ionization_Penalty_Neutral>  (342) 
3.06494e-06

>  <r_epik_State_Penalty>  (342) 
-0

>  <r_epik_Charging_Adjusted_Penalty>  (342) 
0

>  <i_epik_Tot_Q>  (342) 
0

>  <i_epik_Tot_abs_Q>  (342) 
0

>  <s_lp_Force_Field>  (342) 
OPLS3e

>  <r_lp_Energy>  (342) 
51.6953

>  <b_lp_Chiralities_Consistent>  (342) 
1

>  <s_lp_Variant>  (342) 
111:0-1

>  <s_i_glide_gridfile>  (342) 
pfpi4k_grid

>  <i_i_glide_lignum>  (342) 
29

>  <i_i_glide_rotatable_bonds>  (342) 
1

>  <r_i_docking_score>  (342) 
-2.8764

>  <r_i_glide_ligand_efficiency>  (342) 
-0.15139

>  <r_i_glide_ligand_efficiency_sa>  (342) 
-0.403968

>  <r_i_glide_ligand_efficiency_ln>  (342) 
-0.729229

>  <r_i_glide_gscore>  (342) 
-2.8764

>  <r_i_glide_lipo>  (342) 
-0.527919

>  <r_i_glide_hbond>  (342) 
0

>  <r_i_glide_metal>  (342) 
-0

>  <r_i_glide_rewards>  (342) 
-1.63354

>  <r_i_glide_evdw>  (342) 
-16.2661

>  <r_i_glide_ecoul>  (342) 
0.655743

>  <r_i_glide_erotb>  (342) 
0

>  <r_i_glide_esite>  (342) 
0

>  <r_i_glide_emodel>  (342) 
-17.6067

>  <r_i_glide_energy>  (342) 
-15.6103

>  <r_i_glide_einternal>  (342) 
0.810652

>  <r_i_glide_intrahb_reward>  (342) 
-0

>  <i_i_glide_confnum>  (342) 
2

>  <i_i_glide_posenum>  (342) 
28

>  <r_i_glide_eff_state_penalty>  (342) 
0

>  <ligand_id>  (342) 
111

>  <original_smiles>  (342) 
C=C1CCC2(O)C(C)(C)C3CCC(C)C4CCC1C432

>  <smiles>  (342) 
[H]OC12C([H])([H])C([H])([H])C(=C([H])[H])C3([H])C([H])([H])C([H])([H])C4([H])C([H])(C([H])([H])[H])C([H])([H])C([H])([H])C([H])(C1(C([H])([H])[H])C([H])([H])[H])C342

$$$$
112:0:0
     RDKit          3D

 21 23  0  0  1  0  0  0  0  0999 V2000
    3.0169   -0.9634   -4.2844 C   0  0  0  0  0  0  0  0  0  0  0  0
    3.8204    0.0869   -3.7886 C   0  0  0  0  0  0  0  0  0  0  0  0
    4.5102   -0.2800   -2.7199 N   0  0  0  0  0  0  0  0  0  0  0  0
    4.1410   -1.5548   -2.4697 N   0  0  0  0  0  0  0  0  0  0  0  0
    4.6733   -2.2528   -1.3543 C   0  0  0  0  0  0  0  0  0  0  0  0
    5.3091   -1.5474   -0.2921 C   0  0  0  0  0  0  0  0  0  0  0  0
    5.8414   -2.2183    0.7878 C   0  0  0  0  0  0  0  0  0  0  0  0
    5.7444   -3.6328    0.8489 C   0  0  0  0  0  0  0  0  0  0  0  0
    6.1437   -4.5572    1.7251 N   0  0  0  0  0  0  0  0  0  0  0  0
    5.7600   -5.7966    1.2325 N   0  0  0  0  0  0  0  0  0  0  0  0
    5.1234   -5.6054    0.0807 C   0  0  0  0  0  0  0  0  0  0  0  0
    5.0961   -4.2800   -0.2176 N   0  0  0  0  0  0  0  0  0  0  0  0
    4.5805   -3.6289   -1.2949 C   0  0  0  0  0  0  0  0  0  0  0  0
    3.2256   -1.9916   -3.4113 C   0  0  0  0  0  0  0  0  0  0  0  0
    2.3397   -0.9368   -5.1193 H   0  0  0  0  0  0  0  0  0  0  0  0
    3.9329    1.0928   -4.1630 H   0  0  0  0  0  0  0  0  0  0  0  0
    5.3735   -0.4623   -0.3121 H   0  0  0  0  0  0  0  0  0  0  0  0
    6.3210   -1.6844    1.6017 H   0  0  0  0  0  0  0  0  0  0  0  0
    4.7314   -6.3944   -0.5419 H   0  0  0  0  0  0  0  0  0  0  0  0
    4.1208   -4.2567   -2.0514 H   0  0  0  0  0  0  0  0  0  0  0  0
    2.7768   -2.9719   -3.3777 H   0  0  0  0  0  0  0  0  0  0  0  0
  1 14  2  0
  1  2  1  0
  1 15  1  0
  2  3  2  0
  2 16  1  0
  3  4  1  0
  4  5  1  0
  4 14  1  0
  5 13  2  0
  5  6  1  0
  6  7  2  0
  6 17  1  0
  7  8  1  0
  7 18  1  0
  8 12  1  0
  8  9  2  0
  9 10  1  0
 10 11  2  0
 11 12  1  0
 11 19  1  0
 12 13  1  0
 13 20  1  0
 14 21  1  0
M  END
>  <i_m_ct_stereo_status>  (343) 
1

>  <s_m_source_file>  (343) 
/var/tmp/pbs.5076255.sched01/tmpux3k924y/120tsqzh4i4.sdf

>  <i_m_source_file_index>  (343) 
30

>  <i_lp_mmshare_version>  (343) 
48012

>  <i_f3d_flags>  (343) 
0

>  <s_epik_input>  (343) 
W2NIXTFbY0hdW2NIXW5uMS1jKFtjSF1bY0hdMilbY0hdbihjMjMpW2NIXW5uMw==

>  <s_epik_cmdline>  (343) 
J2VwaWtfcHl0aG9uJywgJy1waHQnLCAnMi4wJywgJy1waCcsICc3LjAnLCAnLXRuJywgJzgnLCAnLW1hJywgJzIwMCcsICctaW1hZScsICc8aW5maWxlLm1hZT4nLCAnLW9tYWUnLCAnPG91dGZpbGUubWFlPic=

>  <r_lp_tautomer_probability>  (343) 
1

>  <r_epik_Ionization_Penalty>  (343) 
2.89022e-06

>  <r_epik_Ionization_Penalty_Charging>  (343) 
0

>  <r_epik_Ionization_Penalty_Neutral>  (343) 
2.89022e-06

>  <r_epik_State_Penalty>  (343) 
-0

>  <r_epik_Charging_Adjusted_Penalty>  (343) 
0

>  <i_epik_Tot_Q>  (343) 
0

>  <i_epik_Tot_abs_Q>  (343) 
0

>  <s_lp_Force_Field>  (343) 
OPLS3e

>  <r_lp_Energy>  (343) 
17.1439

>  <b_lp_Chiralities_Consistent>  (343) 
1

>  <s_lp_Variant>  (343) 
112:0-1

>  <s_i_glide_gridfile>  (343) 
pfpi4k_grid

>  <i_i_glide_lignum>  (343) 
30

>  <i_i_glide_rotatable_bonds>  (343) 
1

>  <r_i_docking_score>  (343) 
-3.9368

>  <r_i_glide_ligand_efficiency>  (343) 
-0.2812

>  <r_i_glide_ligand_efficiency_sa>  (343) 
-0.677733

>  <r_i_glide_ligand_efficiency_ln>  (343) 
-1.08182

>  <r_i_glide_gscore>  (343) 
-3.9368

>  <r_i_glide_lipo>  (343) 
-0.406847

>  <r_i_glide_hbond>  (343) 
0

>  <r_i_glide_metal>  (343) 
-0

>  <r_i_glide_rewards>  (343) 
-2.40339

>  <r_i_glide_evdw>  (343) 
-19.2585

>  <r_i_glide_ecoul>  (343) 
-3.98913

>  <r_i_glide_erotb>  (343) 
0.463908

>  <r_i_glide_esite>  (343) 
-0.0291783

>  <r_i_glide_emodel>  (343) 
-28.8006

>  <r_i_glide_energy>  (343) 
-23.2476

>  <r_i_glide_einternal>  (343) 
0.0572485

>  <r_i_glide_intrahb_reward>  (343) 
-0

>  <i_i_glide_confnum>  (343) 
1

>  <i_i_glide_posenum>  (343) 
12

>  <r_i_glide_eff_state_penalty>  (343) 
0

>  <ligand_id>  (343) 
112

>  <original_smiles>  (343) 
c1cnn(-c2ccc3nncn3c2)c1

>  <smiles>  (343) 
[H]c1nn(-c2c([H])c([H])c3nnc([H])n3c2[H])c([H])c1[H]

$$$$
112:0:1
     RDKit          3D

 21 23  0  0  1  0  0  0  0  0999 V2000
    3.0169   -0.7722   -4.4251 C   0  0  0  0  0  0  0  0  0  0  0  0
    3.8454    0.1605   -3.7716 C   0  0  0  0  0  0  0  0  0  0  0  0
    4.2993   -0.2910   -2.6242 N   0  0  0  0  0  0  0  0  0  0  0  0
    3.7083   -1.4965   -2.4478 N   0  0  0  0  0  0  0  0  0  0  0  0
    3.9179   -2.2409   -1.2583 C   0  0  0  0  0  0  0  0  0  0  0  0
    4.7855   -1.7530   -0.2336 C   0  0  0  0  0  0  0  0  0  0  0  0
    5.0166   -2.4802    0.9113 C   0  0  0  0  0  0  0  0  0  0  0  0
    4.3689   -3.7318    1.0904 C   0  0  0  0  0  0  0  0  0  0  0  0
    4.3742   -4.6531    2.0556 N   0  0  0  0  0  0  0  0  0  0  0  0
    3.5295   -5.6825    1.6606 N   0  0  0  0  0  0  0  0  0  0  0  0
    3.0270   -5.3660    0.4679 C   0  0  0  0  0  0  0  0  0  0  0  0
    3.5132   -4.1651    0.0645 N   0  0  0  0  0  0  0  0  0  0  0  0
    3.2847   -3.4534   -1.0771 C   0  0  0  0  0  0  0  0  0  0  0  0
    2.9344   -1.8156   -3.5501 C   0  0  0  0  0  0  0  0  0  0  0  0
    2.5266   -0.6525   -5.3808 H   0  0  0  0  0  0  0  0  0  0  0  0
    4.1601    1.1343   -4.1088 H   0  0  0  0  0  0  0  0  0  0  0  0
    5.2825   -0.7944   -0.3453 H   0  0  0  0  0  0  0  0  0  0  0  0
    5.6795   -2.1122    1.6877 H   0  0  0  0  0  0  0  0  0  0  0  0
    2.3521   -5.9857   -0.1014 H   0  0  0  0  0  0  0  0  0  0  0  0
    2.6081   -3.9072   -1.7923 H   0  0  0  0  0  0  0  0  0  0  0  0
    2.3680   -2.7320   -3.6290 H   0  0  0  0  0  0  0  0  0  0  0  0
  1 14  2  0
  1  2  1  0
  1 15  1  0
  2  3  2  0
  2 16  1  0
  3  4  1  0
  4  5  1  0
  4 14  1  0
  5 13  2  0
  5  6  1  0
  6  7  2  0
  6 17  1  0
  7  8  1  0
  7 18  1  0
  8 12  1  0
  8  9  2  0
  9 10  1  0
 10 11  2  0
 11 12  1  0
 11 19  1  0
 12 13  1  0
 13 20  1  0
 14 21  1  0
M  END
>  <i_m_ct_stereo_status>  (344) 
1

>  <s_m_source_file>  (344) 
/var/tmp/pbs.5076255.sched01/tmpux3k924y/120tsqzh4i4.sdf

>  <i_m_source_file_index>  (344) 
30

>  <i_lp_mmshare_version>  (344) 
48012

>  <i_f3d_flags>  (344) 
0

>  <s_epik_input>  (344) 
W2NIXTFbY0hdW2NIXW5uMS1jKFtjSF1bY0hdMilbY0hdbihjMjMpW2NIXW5uMw==

>  <s_epik_cmdline>  (344) 
J2VwaWtfcHl0aG9uJywgJy1waHQnLCAnMi4wJywgJy1waCcsICc3LjAnLCAnLXRuJywgJzgnLCAnLW1hJywgJzIwMCcsICctaW1hZScsICc8aW5maWxlLm1hZT4nLCAnLW9tYWUnLCAnPG91dGZpbGUubWFlPic=

>  <r_lp_tautomer_probability>  (344) 
1

>  <r_epik_Ionization_Penalty>  (344) 
2.89022e-06

>  <r_epik_Ionization_Penalty_Charging>  (344) 
0

>  <r_epik_Ionization_Penalty_Neutral>  (344) 
2.89022e-06

>  <r_epik_State_Penalty>  (344) 
-0

>  <r_epik_Charging_Adjusted_Penalty>  (344) 
0

>  <i_epik_Tot_Q>  (344) 
0

>  <i_epik_Tot_abs_Q>  (344) 
0

>  <s_lp_Force_Field>  (344) 
OPLS3e

>  <r_lp_Energy>  (344) 
17.1439

>  <b_lp_Chiralities_Consistent>  (344) 
1

>  <s_lp_Variant>  (344) 
112:0-1

>  <s_i_glide_gridfile>  (344) 
pfpi4k_grid

>  <i_i_glide_lignum>  (344) 
30

>  <i_i_glide_rotatable_bonds>  (344) 
1

>  <r_i_docking_score>  (344) 
-3.61682

>  <r_i_glide_ligand_efficiency>  (344) 
-0.258344

>  <r_i_glide_ligand_efficiency_sa>  (344) 
-0.622646

>  <r_i_glide_ligand_efficiency_ln>  (344) 
-0.993889

>  <r_i_glide_gscore>  (344) 
-3.61682

>  <r_i_glide_lipo>  (344) 
-0.474379

>  <r_i_glide_hbond>  (344) 
0

>  <r_i_glide_metal>  (344) 
-0

>  <r_i_glide_rewards>  (344) 
-2.17464

>  <r_i_glide_evdw>  (344) 
-18.0835

>  <r_i_glide_ecoul>  (344) 
-2.89803

>  <r_i_glide_erotb>  (344) 
0.463908

>  <r_i_glide_esite>  (344) 
-0.0928348

>  <r_i_glide_emodel>  (344) 
-26.1041

>  <r_i_glide_energy>  (344) 
-20.9815

>  <r_i_glide_einternal>  (344) 
0.000949001

>  <r_i_glide_intrahb_reward>  (344) 
-0

>  <i_i_glide_confnum>  (344) 
1

>  <i_i_glide_posenum>  (344) 
2

>  <r_i_glide_eff_state_penalty>  (344) 
0

>  <ligand_id>  (344) 
112

>  <original_smiles>  (344) 
c1cnn(-c2ccc3nncn3c2)c1

>  <smiles>  (344) 
[H]c1nn(-c2c([H])c([H])c3nnc([H])n3c2[H])c([H])c1[H]

$$$$
112:0:2
     RDKit          3D

 21 23  0  0  1  0  0  0  0  0999 V2000
    3.6571   -1.0438   -4.7205 C   0  0  0  0  0  0  0  0  0  0  0  0
    3.8203    0.0843   -3.8857 C   0  0  0  0  0  0  0  0  0  0  0  0
    4.2377   -0.2572   -2.6817 N   0  0  0  0  0  0  0  0  0  0  0  0
    4.2202   -1.6081   -2.6518 N   0  0  0  0  0  0  0  0  0  0  0  0
    4.5307   -2.3087   -1.4584 C   0  0  0  0  0  0  0  0  0  0  0  0
    4.7132   -3.7200   -1.4865 C   0  0  0  0  0  0  0  0  0  0  0  0
    5.0154   -4.4278   -0.3483 C   0  0  0  0  0  0  0  0  0  0  0  0
    5.1404   -3.7382    0.8818 C   0  0  0  0  0  0  0  0  0  0  0  0
    5.4142   -4.1164    2.1310 N   0  0  0  0  0  0  0  0  0  0  0  0
    5.3859   -2.9797    2.9231 N   0  0  0  0  0  0  0  0  0  0  0  0
    5.1105   -1.9351    2.1476 C   0  0  0  0  0  0  0  0  0  0  0  0
    4.9464   -2.3461    0.8642 N   0  0  0  0  0  0  0  0  0  0  0  0
    4.6530   -1.6340   -0.2549 C   0  0  0  0  0  0  0  0  0  0  0  0
    3.8823   -2.1075   -3.8969 C   0  0  0  0  0  0  0  0  0  0  0  0
    3.4144   -1.0502   -5.7674 H   0  0  0  0  0  0  0  0  0  0  0  0
    3.7412    1.1323   -4.1415 H   0  0  0  0  0  0  0  0  0  0  0  0
    4.6251   -4.2803   -2.4092 H   0  0  0  0  0  0  0  0  0  0  0  0
    5.1555   -5.5022   -0.3894 H   0  0  0  0  0  0  0  0  0  0  0  0
    5.0357   -0.9184    2.5041 H   0  0  0  0  0  0  0  0  0  0  0  0
    4.5049   -0.5646   -0.1363 H   0  0  0  0  0  0  0  0  0  0  0  0
    3.8458   -3.1643   -4.1155 H   0  0  0  0  0  0  0  0  0  0  0  0
  1 14  2  0
  1  2  1  0
  1 15  1  0
  2  3  2  0
  2 16  1  0
  3  4  1  0
  4  5  1  0
  4 14  1  0
  5 13  2  0
  5  6  1  0
  6  7  2  0
  6 17  1  0
  7  8  1  0
  7 18  1  0
  8 12  1  0
  8  9  2  0
  9 10  1  0
 10 11  2  0
 11 12  1  0
 11 19  1  0
 12 13  1  0
 13 20  1  0
 14 21  1  0
M  END
>  <i_m_ct_stereo_status>  (345) 
1

>  <s_m_source_file>  (345) 
/var/tmp/pbs.5076255.sched01/tmpux3k924y/120tsqzh4i4.sdf

>  <i_m_source_file_index>  (345) 
30

>  <i_lp_mmshare_version>  (345) 
48012

>  <i_f3d_flags>  (345) 
0

>  <s_epik_input>  (345) 
W2NIXTFbY0hdW2NIXW5uMS1jKFtjSF1bY0hdMilbY0hdbihjMjMpW2NIXW5uMw==

>  <s_epik_cmdline>  (345) 
J2VwaWtfcHl0aG9uJywgJy1waHQnLCAnMi4wJywgJy1waCcsICc3LjAnLCAnLXRuJywgJzgnLCAnLW1hJywgJzIwMCcsICctaW1hZScsICc8aW5maWxlLm1hZT4nLCAnLW9tYWUnLCAnPG91dGZpbGUubWFlPic=

>  <r_lp_tautomer_probability>  (345) 
1

>  <r_epik_Ionization_Penalty>  (345) 
2.89022e-06

>  <r_epik_Ionization_Penalty_Charging>  (345) 
0

>  <r_epik_Ionization_Penalty_Neutral>  (345) 
2.89022e-06

>  <r_epik_State_Penalty>  (345) 
-0

>  <r_epik_Charging_Adjusted_Penalty>  (345) 
0

>  <i_epik_Tot_Q>  (345) 
0

>  <i_epik_Tot_abs_Q>  (345) 
0

>  <s_lp_Force_Field>  (345) 
OPLS3e

>  <r_lp_Energy>  (345) 
17.1439

>  <b_lp_Chiralities_Consistent>  (345) 
1

>  <s_lp_Variant>  (345) 
112:0-1

>  <s_i_glide_gridfile>  (345) 
pfpi4k_grid

>  <i_i_glide_lignum>  (345) 
30

>  <i_i_glide_rotatable_bonds>  (345) 
1

>  <r_i_docking_score>  (345) 
-3.2277

>  <r_i_glide_ligand_efficiency>  (345) 
-0.23055

>  <r_i_glide_ligand_efficiency_sa>  (345) 
-0.555659

>  <r_i_glide_ligand_efficiency_ln>  (345) 
-0.886961

>  <r_i_glide_gscore>  (345) 
-3.2277

>  <r_i_glide_lipo>  (345) 
-0.208921

>  <r_i_glide_hbond>  (345) 
0

>  <r_i_glide_metal>  (345) 
-0

>  <r_i_glide_rewards>  (345) 
-2.3356

>  <r_i_glide_evdw>  (345) 
-19.0247

>  <r_i_glide_ecoul>  (345) 
-1.17645

>  <r_i_glide_erotb>  (345) 
0.463908

>  <r_i_glide_esite>  (345) 
-0.0193882

>  <r_i_glide_emodel>  (345) 
-24.7327

>  <r_i_glide_energy>  (345) 
-20.2012

>  <r_i_glide_einternal>  (345) 
0.0819816

>  <r_i_glide_intrahb_reward>  (345) 
-0

>  <i_i_glide_confnum>  (345) 
6

>  <i_i_glide_posenum>  (345) 
5

>  <r_i_glide_eff_state_penalty>  (345) 
0

>  <ligand_id>  (345) 
112

>  <original_smiles>  (345) 
c1cnn(-c2ccc3nncn3c2)c1

>  <smiles>  (345) 
[H]c1nn(-c2c([H])c([H])c3nnc([H])n3c2[H])c([H])c1[H]

$$$$
113:0:0
     RDKit          3D

 56 59  0  0  1  0  0  0  0  0999 V2000
    3.6371   -4.3364   -0.0903 C   0  0  0  0  0  0  0  0  0  0  0  0
    4.2335   -5.5223    0.6619 C   0  0  0  0  0  0  0  0  0  0  0  0
    5.4199   -5.8259    0.5482 O   0  0  0  0  0  0  0  0  0  0  0  0
    3.3303   -6.1413    1.4400 O   0  0  0  0  0  0  0  0  0  0  0  0
    3.7175   -7.1762    2.3456 C   0  0  2  0  0  0  0  0  0  0  0  0
    3.8178   -8.5536    1.6828 C   0  0  0  0  0  0  0  0  0  0  0  0
    3.2151   -9.5542    2.6870 C   0  0  1  0  0  0  0  0  0  0  0  0
    4.2478  -10.1614    3.7267 C   0  0  0  0  0  0  0  0  0  0  0  0
    4.2491  -11.7097    3.7322 C   0  0  0  0  0  0  0  0  0  0  0  0
    5.7166   -9.7201    3.5367 C   0  0  0  0  0  0  0  0  0  0  0  0
    3.9912   -9.6713    5.0419 O   0  0  0  0  0  0  0  0  0  0  0  0
    2.7124   -9.9279    5.6024 C   0  0  1  0  0  0  0  0  0  0  0  0
    2.4403   -9.0769    6.8156 C   0  0  0  0  0  0  0  0  0  0  0  0
    1.2493   -8.4723    6.7735 C   0  0  0  0  0  0  0  0  0  0  0  0
    0.6680   -7.5910    7.8626 C   0  0  0  0  0  0  0  0  0  0  0  0
    0.4959   -8.8366    5.5099 C   0  0  1  0  0  0  0  0  0  0  0  0
   -0.2215   -7.7285    4.7263 C   0  0  0  0  0  0  0  0  0  0  0  0
   -0.5777   -6.6603    5.2209 O   0  0  0  0  0  0  0  0  0  0  0  0
   -0.4975   -8.0469    3.2529 C   0  0  0  0  0  0  0  0  0  0  0  0
    0.7337   -8.6231    2.4856 C   0  0  1  0  0  0  0  0  0  0  0  0
    0.8552   -7.8526    1.2993 O   0  0  0  0  0  0  0  0  0  0  0  0
    2.0446   -8.7644    3.3650 C   0  0  2  0  0  0  0  0  0  0  0  0
    2.6662   -7.2990    3.4734 C   0  0  1  0  0  0  0  0  0  0  0  0
    3.2781   -6.7521    4.7802 C   0  0  0  0  0  0  0  0  0  0  0  0
    1.5441   -9.5942    4.6360 C   0  0  1  0  0  0  0  0  0  0  0  0
    0.8491  -10.9292    4.2307 C   0  0  0  0  0  0  0  0  0  0  0  0
    3.1952   -3.6292    0.6123 H   0  0  0  0  0  0  0  0  0  0  0  0
    2.8538   -4.6650   -0.7740 H   0  0  0  0  0  0  0  0  0  0  0  0
    4.4004   -3.8158   -0.6704 H   0  0  0  0  0  0  0  0  0  0  0  0
    4.6828   -6.9224    2.7844 H   0  0  0  0  0  0  0  0  0  0  0  0
    3.2131   -8.5765    0.7824 H   0  0  0  0  0  0  0  0  0  0  0  0
    4.8241   -8.7839    1.3380 H   0  0  0  0  0  0  0  0  0  0  0  0
    2.8143  -10.3820    2.1043 H   0  0  0  0  0  0  0  0  0  0  0  0
    4.5170  -12.1022    2.7517 H   0  0  0  0  0  0  0  0  0  0  0  0
    3.2937  -12.1494    4.0010 H   0  0  0  0  0  0  0  0  0  0  0  0
    4.9761  -12.0968    4.4483 H   0  0  0  0  0  0  0  0  0  0  0  0
    6.1366  -10.0699    2.5928 H   0  0  0  0  0  0  0  0  0  0  0  0
    6.3405  -10.1323    4.3324 H   0  0  0  0  0  0  0  0  0  0  0  0
    5.8294   -8.6366    3.5931 H   0  0  0  0  0  0  0  0  0  0  0  0
    2.6849  -10.9629    5.9426 H   0  0  0  0  0  0  0  0  0  0  0  0
    3.1442   -9.0085    7.6315 H   0  0  0  0  0  0  0  0  0  0  0  0
   -0.3306   -7.9331    8.1293 H   0  0  0  0  0  0  0  0  0  0  0  0
    0.6122   -6.5543    7.5296 H   0  0  0  0  0  0  0  0  0  0  0  0
    1.2911   -7.6231    8.7586 H   0  0  0  0  0  0  0  0  0  0  0  0
   -0.2794   -9.5208    5.8480 H   0  0  0  0  0  0  0  0  0  0  0  0
   -1.3086   -8.7735    3.2249 H   0  0  0  0  0  0  0  0  0  0  0  0
   -0.8814   -7.1493    2.7660 H   0  0  0  0  0  0  0  0  0  0  0  0
    0.4553   -9.6049    2.0994 H   0  0  0  0  0  0  0  0  0  0  0  0
    0.5901   -8.4358    0.5858 H   0  0  0  0  0  0  0  0  0  0  0  0
    1.8775   -6.5741    3.2596 H   0  0  0  0  0  0  0  0  0  0  0  0
    4.1026   -7.3444    5.1683 H   0  0  0  0  0  0  0  0  0  0  0  0
    2.5332   -6.6221    5.5590 H   0  0  0  0  0  0  0  0  0  0  0  0
    3.6913   -5.7566    4.6077 H   0  0  0  0  0  0  0  0  0  0  0  0
   -0.1742  -10.7690    3.8887 H   0  0  0  0  0  0  0  0  0  0  0  0
    0.7548  -11.6002    5.0830 H   0  0  0  0  0  0  0  0  0  0  0  0
    1.3550  -11.4726    3.4379 H   0  0  0  0  0  0  0  0  0  0  0  0
  1  2  1  0
  1 27  1  0
  1 28  1  0
  1 29  1  0
  2  3  2  0
  2  4  1  0
  4  5  1  0
  5 23  1  0
  5  6  1  0
  5 30  1  1
  6  7  1  0
  6 31  1  0
  6 32  1  0
  7 22  1  0
  7  8  1  0
  7 33  1  6
  8  9  1  0
  8 10  1  0
  8 11  1  0
  9 34  1  0
  9 35  1  0
  9 36  1  0
 10 37  1  0
 10 38  1  0
 10 39  1  0
 11 12  1  0
 12 25  1  0
 12 13  1  0
 12 40  1  1
 13 14  2  0
 13 41  1  0
 14 15  1  0
 14 16  1  0
 15 42  1  0
 15 43  1  0
 15 44  1  0
 16 25  1  0
 16 17  1  0
 16 45  1  1
 17 18  2  0
 17 19  1  0
 19 20  1  0
 19 46  1  0
 19 47  1  0
 20 21  1  0
 20 22  1  0
 20 48  1  6
 21 49  1  0
 22 23  1  0
 22 25  1  1
 23 24  1  0
 23 50  1  6
 24 51  1  0
 24 52  1  0
 24 53  1  0
 25 26  1  6
 26 54  1  0
 26 55  1  0
 26 56  1  0
M  END
>  <i_m_ct_stereo_status>  (346) 
1

>  <s_m_source_file>  (346) 
/var/tmp/pbs.5076255.sched01/tmpux3k924y/120tsqzh4i4.sdf

>  <i_m_source_file_index>  (346) 
31

>  <i_lp_mmshare_version>  (346) 
48012

>  <i_f3d_flags>  (346) 
0

>  <s_epik_input>  (346) 
W0NIM11DKD1PKU9bQ0BASF0oW0NAQEhdMVtDSDNdKVtDSDJdW0NASF0oW0NAQF0xMjMpQyhbQ0gzXSkoW0NIM10pT1tDQEBIXTRbQ0BAXTMoW0NIM10pW0NAQEhdKEMoPVtDSF00KVtDSDNdKUMoPU8pW0NIMl1bQ0BIXTJbT0hd

>  <s_epik_cmdline>  (346) 
J2VwaWtfcHl0aG9uJywgJy1waHQnLCAnMi4wJywgJy1waCcsICc3LjAnLCAnLXRuJywgJzgnLCAnLW1hJywgJzIwMCcsICctaW1hZScsICc8aW5maWxlLm1hZT4nLCAnLW9tYWUnLCAnPG91dGZpbGUubWFlPic=

>  <r_lp_tautomer_probability>  (346) 
1

>  <r_epik_Ionization_Penalty>  (346) 
8.32926e-08

>  <r_epik_Ionization_Penalty_Charging>  (346) 
0

>  <r_epik_Ionization_Penalty_Neutral>  (346) 
8.32926e-08

>  <r_epik_State_Penalty>  (346) 
-0

>  <r_epik_Charging_Adjusted_Penalty>  (346) 
0

>  <i_epik_Tot_Q>  (346) 
0

>  <i_epik_Tot_abs_Q>  (346) 
0

>  <s_epik_Chemistry_Notes>  (346) 
This compound has an ester and may undergo hydrolysis at high or low pH.

>  <s_lp_Force_Field>  (346) 
OPLS3e

>  <r_lp_Energy>  (346) 
53.8982

>  <b_lp_Chiralities_Consistent>  (346) 
1

>  <s_lp_Variant>  (346) 
113:0-1

>  <s_i_glide_gridfile>  (346) 
pfpi4k_grid

>  <i_i_glide_lignum>  (346) 
31

>  <i_i_glide_rotatable_bonds>  (346) 
3

>  <r_i_docking_score>  (346) 
-3.22421

>  <r_i_glide_ligand_efficiency>  (346) 
-0.124008

>  <r_i_glide_ligand_efficiency_sa>  (346) 
-0.367374

>  <r_i_glide_ligand_efficiency_ln>  (346) 
-0.757195

>  <r_i_glide_gscore>  (346) 
-3.22421

>  <r_i_glide_lipo>  (346) 
-0.00265084

>  <r_i_glide_hbond>  (346) 
0

>  <r_i_glide_metal>  (346) 
-0

>  <r_i_glide_rewards>  (346) 
-1.01784

>  <r_i_glide_evdw>  (346) 
-26.3967

>  <r_i_glide_ecoul>  (346) 
-6.6192

>  <r_i_glide_erotb>  (346) 
0.146161

>  <r_i_glide_esite>  (346) 
-0.0371637

>  <r_i_glide_emodel>  (346) 
-39.3167

>  <r_i_glide_energy>  (346) 
-33.0159

>  <r_i_glide_einternal>  (346) 
1.7029

>  <r_i_glide_intrahb_reward>  (346) 
-0

>  <i_i_glide_confnum>  (346) 
2

>  <i_i_glide_posenum>  (346) 
9

>  <r_i_glide_eff_state_penalty>  (346) 
0

>  <ligand_id>  (346) 
113

>  <original_smiles>  (346) 
CC(=O)OC1CC2C(C)(C)OC3C=C(C)C4C(=O)CC(O)C2(C1C)C34C

>  <smiles>  (346) 
[H]OC1([H])C([H])([H])C(=O)C2([H])C(C([H])([H])[H])=C([H])C3([H])OC(C([H])([H])[H])(C([H])([H])[H])C4([H])C([H])([H])C([H])(OC(=O)C([H])([H])[H])C([H])(C([H])([H])[H])C14C32C([H])([H])[H]

$$$$
113:0:1
     RDKit          3D

 56 59  0  0  1  0  0  0  0  0999 V2000
    2.4759   -2.6776   -2.9077 C   0  0  0  0  0  0  0  0  0  0  0  0
    3.6019   -2.6668   -1.8818 C   0  0  0  0  0  0  0  0  0  0  0  0
    4.6774   -2.1088   -2.1090 O   0  0  0  0  0  0  0  0  0  0  0  0
    3.2839   -3.3661   -0.7754 O   0  0  0  0  0  0  0  0  0  0  0  0
    4.2769   -3.7286    0.1751 C   0  0  2  0  0  0  0  0  0  0  0  0
    4.9223   -5.0316   -0.2885 C   0  0  0  0  0  0  0  0  0  0  0  0
    5.0803   -5.9201    0.9509 C   0  0  1  0  0  0  0  0  0  0  0  0
    6.4561   -5.7313    1.7113 C   0  0  0  0  0  0  0  0  0  0  0  0
    7.2214   -7.0642    1.9081 C   0  0  0  0  0  0  0  0  0  0  0  0
    7.4550   -4.7529    1.0500 C   0  0  0  0  0  0  0  0  0  0  0  0
    6.2428   -5.0917    2.9654 O   0  0  0  0  0  0  0  0  0  0  0  0
    5.4001   -5.7388    3.8986 C   0  0  1  0  0  0  0  0  0  0  0  0
    4.9880   -4.8204    5.0258 C   0  0  0  0  0  0  0  0  0  0  0  0
    3.6759   -4.8377    5.2525 C   0  0  0  0  0  0  0  0  0  0  0  0
    2.9573   -4.0578    6.3404 C   0  0  0  0  0  0  0  0  0  0  0  0
    2.9673   -5.7982    4.3238 C   0  0  1  0  0  0  0  0  0  0  0  0
    1.6616   -5.3630    3.6512 C   0  0  0  0  0  0  0  0  0  0  0  0
    0.9146   -4.5031    4.1133 O   0  0  0  0  0  0  0  0  0  0  0  0
    1.3029   -6.1317    2.3739 C   0  0  0  0  0  0  0  0  0  0  0  0
    2.4694   -6.2643    1.3448 C   0  0  1  0  0  0  0  0  0  0  0  0
    1.9337   -5.8081    0.1090 O   0  0  0  0  0  0  0  0  0  0  0  0
    3.8213   -5.5889    1.8249 C   0  0  2  0  0  0  0  0  0  0  0  0
    3.6533   -4.0205    1.5622 C   0  0  1  0  0  0  0  0  0  0  0  0
    4.1610   -2.9552    2.5566 C   0  0  0  0  0  0  0  0  0  0  0  0
    4.0529   -6.2084    3.2798 C   0  0  1  0  0  0  0  0  0  0  0  0
    4.0377   -7.7675    3.2719 C   0  0  0  0  0  0  0  0  0  0  0  0
    1.5651   -2.2568   -2.4834 H   0  0  0  0  0  0  0  0  0  0  0  0
    2.2560   -3.7079   -3.1878 H   0  0  0  0  0  0  0  0  0  0  0  0
    2.7367   -2.1179   -3.8063 H   0  0  0  0  0  0  0  0  0  0  0  0
    5.0332   -2.9480    0.2666 H   0  0  0  0  0  0  0  0  0  0  0  0
    4.2537   -5.5366   -0.9748 H   0  0  0  0  0  0  0  0  0  0  0  0
    5.8151   -4.8577   -0.8773 H   0  0  0  0  0  0  0  0  0  0  0  0
    5.0300   -6.9526    0.6095 H   0  0  0  0  0  0  0  0  0  0  0  0
    7.4550   -7.5271    0.9496 H   0  0  0  0  0  0  0  0  0  0  0  0
    6.6742   -7.7969    2.4955 H   0  0  0  0  0  0  0  0  0  0  0  0
    8.1687   -6.8982    2.4242 H   0  0  0  0  0  0  0  0  0  0  0  0
    7.8025   -5.1092    0.0800 H   0  0  0  0  0  0  0  0  0  0  0  0
    8.3397   -4.6343    1.6788 H   0  0  0  0  0  0  0  0  0  0  0  0
    7.0303   -3.7557    0.9282 H   0  0  0  0  0  0  0  0  0  0  0  0
    5.9556   -6.5575    4.3594 H   0  0  0  0  0  0  0  0  0  0  0  0
    5.7134   -4.2440    5.5838 H   0  0  0  0  0  0  0  0  0  0  0  0
    2.3193   -4.7260    6.9208 H   0  0  0  0  0  0  0  0  0  0  0  0
    2.3399   -3.2708    5.9048 H   0  0  0  0  0  0  0  0  0  0  0  0
    3.6746   -3.5900    7.0156 H   0  0  0  0  0  0  0  0  0  0  0  0
    2.7111   -6.6460    4.9560 H   0  0  0  0  0  0  0  0  0  0  0  0
    0.9654   -7.1234    2.6708 H   0  0  0  0  0  0  0  0  0  0  0  0
    0.4427   -5.6512    1.9158 H   0  0  0  0  0  0  0  0  0  0  0  0
    2.6445   -7.3268    1.1774 H   0  0  0  0  0  0  0  0  0  0  0  0
    2.5950   -5.8677   -0.5682 H   0  0  0  0  0  0  0  0  0  0  0  0
    2.5910   -3.7875    1.4933 H   0  0  0  0  0  0  0  0  0  0  0  0
    5.2284   -3.0029    2.7580 H   0  0  0  0  0  0  0  0  0  0  0  0
    3.6166   -2.9764    3.4963 H   0  0  0  0  0  0  0  0  0  0  0  0
    3.9878   -1.9581    2.1491 H   0  0  0  0  0  0  0  0  0  0  0  0
    3.0274   -8.1710    3.2239 H   0  0  0  0  0  0  0  0  0  0  0  0
    4.4587   -8.1791    4.1911 H   0  0  0  0  0  0  0  0  0  0  0  0
    4.5791   -8.2085    2.4396 H   0  0  0  0  0  0  0  0  0  0  0  0
  1  2  1  0
  1 27  1  0
  1 28  1  0
  1 29  1  0
  2  3  2  0
  2  4  1  0
  4  5  1  0
  5 23  1  0
  5  6  1  0
  5 30  1  1
  6  7  1  0
  6 31  1  0
  6 32  1  0
  7 22  1  0
  7  8  1  0
  7 33  1  6
  8  9  1  0
  8 10  1  0
  8 11  1  0
  9 34  1  0
  9 35  1  0
  9 36  1  0
 10 37  1  0
 10 38  1  0
 10 39  1  0
 11 12  1  0
 12 25  1  0
 12 13  1  0
 12 40  1  1
 13 14  2  0
 13 41  1  0
 14 15  1  0
 14 16  1  0
 15 42  1  0
 15 43  1  0
 15 44  1  0
 16 25  1  0
 16 17  1  0
 16 45  1  1
 17 18  2  0
 17 19  1  0
 19 20  1  0
 19 46  1  0
 19 47  1  0
 20 21  1  0
 20 22  1  0
 20 48  1  6
 21 49  1  0
 22 23  1  0
 22 25  1  1
 23 24  1  0
 23 50  1  6
 24 51  1  0
 24 52  1  0
 24 53  1  0
 25 26  1  6
 26 54  1  0
 26 55  1  0
 26 56  1  0
M  END
>  <i_m_ct_stereo_status>  (347) 
1

>  <s_m_source_file>  (347) 
/var/tmp/pbs.5076255.sched01/tmpux3k924y/120tsqzh4i4.sdf

>  <i_m_source_file_index>  (347) 
31

>  <i_lp_mmshare_version>  (347) 
48012

>  <i_f3d_flags>  (347) 
0

>  <s_epik_input>  (347) 
W0NIM11DKD1PKU9bQ0BASF0oW0NAQEhdMVtDSDNdKVtDSDJdW0NASF0oW0NAQF0xMjMpQyhbQ0gzXSkoW0NIM10pT1tDQEBIXTRbQ0BAXTMoW0NIM10pW0NAQEhdKEMoPVtDSF00KVtDSDNdKUMoPU8pW0NIMl1bQ0BIXTJbT0hd

>  <s_epik_cmdline>  (347) 
J2VwaWtfcHl0aG9uJywgJy1waHQnLCAnMi4wJywgJy1waCcsICc3LjAnLCAnLXRuJywgJzgnLCAnLW1hJywgJzIwMCcsICctaW1hZScsICc8aW5maWxlLm1hZT4nLCAnLW9tYWUnLCAnPG91dGZpbGUubWFlPic=

>  <r_lp_tautomer_probability>  (347) 
1

>  <r_epik_Ionization_Penalty>  (347) 
8.32926e-08

>  <r_epik_Ionization_Penalty_Charging>  (347) 
0

>  <r_epik_Ionization_Penalty_Neutral>  (347) 
8.32926e-08

>  <r_epik_State_Penalty>  (347) 
-0

>  <r_epik_Charging_Adjusted_Penalty>  (347) 
0

>  <i_epik_Tot_Q>  (347) 
0

>  <i_epik_Tot_abs_Q>  (347) 
0

>  <s_epik_Chemistry_Notes>  (347) 
This compound has an ester and may undergo hydrolysis at high or low pH.

>  <s_lp_Force_Field>  (347) 
OPLS3e

>  <r_lp_Energy>  (347) 
53.8982

>  <b_lp_Chiralities_Consistent>  (347) 
1

>  <s_lp_Variant>  (347) 
113:0-1

>  <s_i_glide_gridfile>  (347) 
pfpi4k_grid

>  <i_i_glide_lignum>  (347) 
31

>  <i_i_glide_rotatable_bonds>  (347) 
3

>  <r_i_docking_score>  (347) 
-2.92364

>  <r_i_glide_ligand_efficiency>  (347) 
-0.112448

>  <r_i_glide_ligand_efficiency_sa>  (347) 
-0.333126

>  <r_i_glide_ligand_efficiency_ln>  (347) 
-0.686608

>  <r_i_glide_gscore>  (347) 
-2.92364

>  <r_i_glide_lipo>  (347) 
-0.383081

>  <r_i_glide_hbond>  (347) 
0

>  <r_i_glide_metal>  (347) 
-0

>  <r_i_glide_rewards>  (347) 
-0.937773

>  <r_i_glide_evdw>  (347) 
-23.8737

>  <r_i_glide_ecoul>  (347) 
-3.47329

>  <r_i_glide_erotb>  (347) 
0.146161

>  <r_i_glide_esite>  (347) 
-0.0342703

>  <r_i_glide_emodel>  (347) 
-32.8161

>  <r_i_glide_energy>  (347) 
-27.347

>  <r_i_glide_einternal>  (347) 
1.95919

>  <r_i_glide_intrahb_reward>  (347) 
-0

>  <i_i_glide_confnum>  (347) 
1

>  <i_i_glide_posenum>  (347) 
11

>  <r_i_glide_eff_state_penalty>  (347) 
0

>  <ligand_id>  (347) 
113

>  <original_smiles>  (347) 
CC(=O)OC1CC2C(C)(C)OC3C=C(C)C4C(=O)CC(O)C2(C1C)C34C

>  <smiles>  (347) 
[H]OC1([H])C([H])([H])C(=O)C2([H])C(C([H])([H])[H])=C([H])C3([H])OC(C([H])([H])[H])(C([H])([H])[H])C4([H])C([H])([H])C([H])(OC(=O)C([H])([H])[H])C([H])(C([H])([H])[H])C14C32C([H])([H])[H]

$$$$
113:0:2
     RDKit          3D

 56 59  0  0  1  0  0  0  0  0999 V2000
   -0.6520   -9.4110    2.8939 C   0  0  0  0  0  0  0  0  0  0  0  0
   -1.0434   -7.9671    3.2254 C   0  0  0  0  0  0  0  0  0  0  0  0
   -2.1629   -7.6871    3.6563 O   0  0  0  0  0  0  0  0  0  0  0  0
   -0.0922   -7.0151    3.0231 O   0  0  0  0  0  0  0  0  0  0  0  0
    1.2026   -7.2640    2.4709 C   0  0  2  0  0  0  0  0  0  0  0  0
    2.1197   -8.0497    3.4195 C   0  0  0  0  0  0  0  0  0  0  0  0
    3.5187   -7.4490    3.2441 C   0  0  1  0  0  0  0  0  0  0  0  0
    4.3739   -8.1228    2.0947 C   0  0  0  0  0  0  0  0  0  0  0  0
    5.7367   -8.6373    2.6028 C   0  0  0  0  0  0  0  0  0  0  0  0
    3.7058   -9.3071    1.3593 C   0  0  0  0  0  0  0  0  0  0  0  0
    4.5693   -7.2123    1.0107 O   0  0  0  0  0  0  0  0  0  0  0  0
    5.1944   -5.9799    1.2990 C   0  0  1  0  0  0  0  0  0  0  0  0
    5.0188   -4.9825    0.1878 C   0  0  0  0  0  0  0  0  0  0  0  0
    4.6136   -3.7812    0.6159 C   0  0  0  0  0  0  0  0  0  0  0  0
    4.3949   -2.5663   -0.2417 C   0  0  0  0  0  0  0  0  0  0  0  0
    4.4682   -3.7704    2.1284 C   0  0  1  0  0  0  0  0  0  0  0  0
    3.2249   -3.1030    2.7497 C   0  0  0  0  0  0  0  0  0  0  0  0
    2.5642   -2.2452    2.1780 O   0  0  0  0  0  0  0  0  0  0  0  0
    2.8646   -3.5798    4.1624 C   0  0  0  0  0  0  0  0  0  0  0  0
    2.8886   -5.1253    4.3580 C   0  0  1  0  0  0  0  0  0  0  0  0
    1.6476   -5.4477    4.9500 O   0  0  0  0  0  0  0  0  0  0  0  0
    3.2516   -5.9232    3.0398 C   0  0  2  0  0  0  0  0  0  0  0  0
    1.9222   -5.9263    2.1514 C   0  0  1  0  0  0  0  0  0  0  0  0
    1.9498   -5.7569    0.6158 C   0  0  0  0  0  0  0  0  0  0  0  0
    4.6129   -5.2567    2.5484 C   0  0  1  0  0  0  0  0  0  0  0  0
    5.6929   -5.2699    3.6725 C   0  0  0  0  0  0  0  0  0  0  0  0
    0.1973   -9.7353    3.5071 H   0  0  0  0  0  0  0  0  0  0  0  0
   -0.3565   -9.4910    1.8488 H   0  0  0  0  0  0  0  0  0  0  0  0
   -1.5013  -10.0963    3.0230 H   0  0  0  0  0  0  0  0  0  0  0  0
    1.0777   -7.8013    1.5360 H   0  0  0  0  0  0  0  0  0  0  0  0
    1.8079   -7.9278    4.4518 H   0  0  0  0  0  0  0  0  0  0  0  0
    2.0634   -9.1239    3.2612 H   0  0  0  0  0  0  0  0  0  0  0  0
    4.0485   -7.6010    4.1928 H   0  0  0  0  0  0  0  0  0  0  0  0
    5.5909   -9.3907    3.3798 H   0  0  0  0  0  0  0  0  0  0  0  0
    6.3670   -7.8592    3.0266 H   0  0  0  0  0  0  0  0  0  0  0  0
    6.3023   -9.1015    1.7994 H   0  0  0  0  0  0  0  0  0  0  0  0
    3.5507  -10.1701    2.0089 H   0  0  0  0  0  0  0  0  0  0  0  0
    4.3468   -9.6580    0.5516 H   0  0  0  0  0  0  0  0  0  0  0  0
    2.7546   -9.0423    0.9000 H   0  0  0  0  0  0  0  0  0  0  0  0
    6.2657   -6.1569    1.3854 H   0  0  0  0  0  0  0  0  0  0  0  0
    5.2195   -5.2320   -0.8452 H   0  0  0  0  0  0  0  0  0  0  0  0
    4.9375   -1.7115    0.1652 H   0  0  0  0  0  0  0  0  0  0  0  0
    3.3345   -2.3163   -0.2949 H   0  0  0  0  0  0  0  0  0  0  0  0
    4.7498   -2.7493   -1.2563 H   0  0  0  0  0  0  0  0  0  0  0  0
    5.3227   -3.1920    2.4804 H   0  0  0  0  0  0  0  0  0  0  0  0
    3.5878   -3.1337    4.8380 H   0  0  0  0  0  0  0  0  0  0  0  0
    1.8921   -3.1660    4.4428 H   0  0  0  0  0  0  0  0  0  0  0  0
    3.6164   -5.3633    5.1375 H   0  0  0  0  0  0  0  0  0  0  0  0
    1.6666   -6.3710    5.2031 H   0  0  0  0  0  0  0  0  0  0  0  0
    1.2774   -5.1079    2.4856 H   0  0  0  0  0  0  0  0  0  0  0  0
    2.5637   -6.4777    0.0806 H   0  0  0  0  0  0  0  0  0  0  0  0
    2.2654   -4.7605    0.3197 H   0  0  0  0  0  0  0  0  0  0  0  0
    0.9487   -5.8855    0.2040 H   0  0  0  0  0  0  0  0  0  0  0  0
    5.5261   -4.4846    4.4109 H   0  0  0  0  0  0  0  0  0  0  0  0
    6.6822   -5.0729    3.2613 H   0  0  0  0  0  0  0  0  0  0  0  0
    5.7496   -6.2009    4.2288 H   0  0  0  0  0  0  0  0  0  0  0  0
  1  2  1  0
  1 27  1  0
  1 28  1  0
  1 29  1  0
  2  3  2  0
  2  4  1  0
  4  5  1  0
  5 23  1  0
  5  6  1  0
  5 30  1  6
  6  7  1  0
  6 31  1  0
  6 32  1  0
  7 22  1  0
  7  8  1  0
  7 33  1  1
  8  9  1  0
  8 10  1  0
  8 11  1  0
  9 34  1  0
  9 35  1  0
  9 36  1  0
 10 37  1  0
 10 38  1  0
 10 39  1  0
 11 12  1  0
 12 25  1  0
 12 13  1  0
 12 40  1  1
 13 14  2  0
 13 41  1  0
 14 15  1  0
 14 16  1  0
 15 42  1  0
 15 43  1  0
 15 44  1  0
 16 25  1  0
 16 17  1  0
 16 45  1  1
 17 18  2  0
 17 19  1  0
 19 20  1  0
 19 46  1  0
 19 47  1  0
 20 21  1  0
 20 22  1  0
 20 48  1  1
 21 49  1  0
 22 23  1  0
 22 25  1  6
 23 24  1  0
 23 50  1  1
 24 51  1  0
 24 52  1  0
 24 53  1  0
 25 26  1  1
 26 54  1  0
 26 55  1  0
 26 56  1  0
M  END
>  <i_m_ct_stereo_status>  (348) 
1

>  <s_m_source_file>  (348) 
/var/tmp/pbs.5076255.sched01/tmpux3k924y/120tsqzh4i4.sdf

>  <i_m_source_file_index>  (348) 
31

>  <i_lp_mmshare_version>  (348) 
48012

>  <i_f3d_flags>  (348) 
0

>  <s_epik_input>  (348) 
W0NIM11DKD1PKU9bQ0BASF0oW0NAQEhdMVtDSDNdKVtDSDJdW0NASF0oW0NAQF0xMjMpQyhbQ0gzXSkoW0NIM10pT1tDQEBIXTRbQ0BAXTMoW0NIM10pW0NAQEhdKEMoPVtDSF00KVtDSDNdKUMoPU8pW0NIMl1bQ0BIXTJbT0hd

>  <s_epik_cmdline>  (348) 
J2VwaWtfcHl0aG9uJywgJy1waHQnLCAnMi4wJywgJy1waCcsICc3LjAnLCAnLXRuJywgJzgnLCAnLW1hJywgJzIwMCcsICctaW1hZScsICc8aW5maWxlLm1hZT4nLCAnLW9tYWUnLCAnPG91dGZpbGUubWFlPic=

>  <r_lp_tautomer_probability>  (348) 
1

>  <r_epik_Ionization_Penalty>  (348) 
8.32926e-08

>  <r_epik_Ionization_Penalty_Charging>  (348) 
0

>  <r_epik_Ionization_Penalty_Neutral>  (348) 
8.32926e-08

>  <r_epik_State_Penalty>  (348) 
-0

>  <r_epik_Charging_Adjusted_Penalty>  (348) 
0

>  <i_epik_Tot_Q>  (348) 
0

>  <i_epik_Tot_abs_Q>  (348) 
0

>  <s_epik_Chemistry_Notes>  (348) 
This compound has an ester and may undergo hydrolysis at high or low pH.

>  <s_lp_Force_Field>  (348) 
OPLS3e

>  <r_lp_Energy>  (348) 
53.8982

>  <b_lp_Chiralities_Consistent>  (348) 
1

>  <s_lp_Variant>  (348) 
113:0-1

>  <s_i_glide_gridfile>  (348) 
pfpi4k_grid

>  <i_i_glide_lignum>  (348) 
31

>  <i_i_glide_rotatable_bonds>  (348) 
3

>  <r_i_docking_score>  (348) 
-2.5415

>  <r_i_glide_ligand_efficiency>  (348) 
-0.0977502

>  <r_i_glide_ligand_efficiency_sa>  (348) 
-0.289585

>  <r_i_glide_ligand_efficiency_ln>  (348) 
-0.596864

>  <r_i_glide_gscore>  (348) 
-2.5415

>  <r_i_glide_lipo>  (348) 
-0.18206

>  <r_i_glide_hbond>  (348) 
-0.0254653

>  <r_i_glide_metal>  (348) 
-0

>  <r_i_glide_rewards>  (348) 
-0.937972

>  <r_i_glide_evdw>  (348) 
-26.5875

>  <r_i_glide_ecoul>  (348) 
-0.997409

>  <r_i_glide_erotb>  (348) 
0.146161

>  <r_i_glide_esite>  (348) 
-0.0631806

>  <r_i_glide_emodel>  (348) 
-30.3162

>  <r_i_glide_energy>  (348) 
-27.585

>  <r_i_glide_einternal>  (348) 
5.64593

>  <r_i_glide_intrahb_reward>  (348) 
-0

>  <i_i_glide_confnum>  (348) 
2

>  <i_i_glide_posenum>  (348) 
16

>  <r_i_glide_eff_state_penalty>  (348) 
0

>  <ligand_id>  (348) 
113

>  <original_smiles>  (348) 
CC(=O)OC1CC2C(C)(C)OC3C=C(C)C4C(=O)CC(O)C2(C1C)C34C

>  <smiles>  (348) 
[H]OC1([H])C([H])([H])C(=O)C2([H])C(C([H])([H])[H])=C([H])C3([H])OC(C([H])([H])[H])(C([H])([H])[H])C4([H])C([H])([H])C([H])(OC(=O)C([H])([H])[H])C([H])(C([H])([H])[H])C14C32C([H])([H])[H]

$$$$
114:0:0
     RDKit          3D

 58 62  0  0  1  0  0  0  0  0999 V2000
    3.0914    0.1131   -4.9666 C   0  0  0  0  0  0  0  0  0  0  0  0
    3.4233   -0.7629   -3.7772 C   0  0  0  0  0  0  0  0  0  0  0  0
    4.2193   -0.2633   -2.7342 C   0  0  0  0  0  0  0  0  0  0  0  0
    4.5366   -1.0669   -1.6188 C   0  0  0  0  0  0  0  0  0  0  0  0
    4.0451   -2.3846   -1.5225 C   0  0  0  0  0  0  0  0  0  0  0  0
    4.3738   -3.1746   -0.3242 C   0  0  0  0  0  0  0  0  0  0  0  0
    3.9196   -4.4051   -0.0322 C   0  0  0  0  0  0  0  0  0  0  0  0
    4.2411   -5.1873    1.2319 C   0  0  1  0  0  0  0  0  0  0  0  0
    4.9895   -6.4872    0.8923 C   0  0  0  0  0  0  0  0  0  0  0  0
    5.0325   -4.4491    2.1169 O   0  0  0  0  0  0  0  0  0  0  0  0
    4.2846   -4.3371    3.3101 C   0  0  1  0  0  0  0  0  0  0  0  0
    4.4186   -3.0933    3.9667 O   0  0  0  0  0  0  0  0  0  0  0  0
    3.8602   -2.0286    3.0811 O   0  0  0  0  0  0  0  0  0  0  0  0
    2.4703   -2.2588    2.9420 C   0  0  2  0  0  0  0  0  0  0  0  0
    2.0391   -1.2167    1.9038 C   0  0  0  0  0  0  0  0  0  0  0  0
    1.6438   -2.0842    4.2413 C   0  0  0  0  0  0  0  0  0  0  0  0
    1.8838   -3.0952    5.3791 C   0  0  0  0  0  0  0  0  0  0  0  0
    1.3563   -4.5207    5.1196 C   0  0  2  0  0  0  0  0  0  0  0  0
    1.5712   -5.4735    6.3181 C   0  0  1  0  0  0  0  0  0  0  0  0
    0.5403   -5.3145    7.4481 C   0  0  0  0  0  0  0  0  0  0  0  0
    1.5893   -6.8814    5.7150 C   0  0  0  0  0  0  0  0  0  0  0  0
    2.3008   -6.7038    4.3740 C   0  0  0  0  0  0  0  0  0  0  0  0
    1.8431   -5.3209    3.8826 C   0  0  2  0  0  0  0  0  0  0  0  0
    2.8271   -4.6381    2.8854 C   0  0  2  0  0  0  0  0  0  0  0  0
    3.0577   -5.5462    1.8676 O   0  0  0  0  0  0  0  0  0  0  0  0
    2.2060   -3.5123    2.3375 O   0  0  0  0  0  0  0  0  0  0  0  0
    3.2224   -2.8759   -2.5667 C   0  0  0  0  0  0  0  0  0  0  0  0
    2.9227   -2.0773   -3.6843 C   0  0  0  0  0  0  0  0  0  0  0  0
    3.7888    0.9448   -5.0498 H   0  0  0  0  0  0  0  0  0  0  0  0
    2.0881    0.5229   -4.8647 H   0  0  0  0  0  0  0  0  0  0  0  0
    3.1430   -0.4602   -5.8881 H   0  0  0  0  0  0  0  0  0  0  0  0
    4.5960    0.7451   -2.7845 H   0  0  0  0  0  0  0  0  0  0  0  0
    5.1441   -0.6557   -0.8236 H   0  0  0  0  0  0  0  0  0  0  0  0
    5.0405   -2.7052    0.3841 H   0  0  0  0  0  0  0  0  0  0  0  0
    3.2539   -4.9101   -0.7151 H   0  0  0  0  0  0  0  0  0  0  0  0
    5.2016   -7.0445    1.8067 H   0  0  0  0  0  0  0  0  0  0  0  0
    5.9300   -6.2538    0.3938 H   0  0  0  0  0  0  0  0  0  0  0  0
    4.3836   -7.1140    0.2332 H   0  0  0  0  0  0  0  0  0  0  0  0
    4.6490   -5.1247    3.9686 H   0  0  0  0  0  0  0  0  0  0  0  0
    2.6191   -1.3287    0.9871 H   0  0  0  0  0  0  0  0  0  0  0  0
    2.1877   -0.1992    2.2647 H   0  0  0  0  0  0  0  0  0  0  0  0
    0.9886   -1.3376    1.6466 H   0  0  0  0  0  0  0  0  0  0  0  0
    1.8145   -1.0817    4.6320 H   0  0  0  0  0  0  0  0  0  0  0  0
    0.5863   -2.1135    3.9822 H   0  0  0  0  0  0  0  0  0  0  0  0
    2.9157   -3.1018    5.7129 H   0  0  0  0  0  0  0  0  0  0  0  0
    1.3421   -2.7174    6.2446 H   0  0  0  0  0  0  0  0  0  0  0  0
    0.2763   -4.4233    4.9922 H   0  0  0  0  0  0  0  0  0  0  0  0
    2.5650   -5.2904    6.7303 H   0  0  0  0  0  0  0  0  0  0  0  0
   -0.4760   -5.4787    7.0884 H   0  0  0  0  0  0  0  0  0  0  0  0
    0.5841   -4.3163    7.8833 H   0  0  0  0  0  0  0  0  0  0  0  0
    0.7264   -6.0277    8.2517 H   0  0  0  0  0  0  0  0  0  0  0  0
    2.0925   -7.6063    6.3570 H   0  0  0  0  0  0  0  0  0  0  0  0
    0.5704   -7.2371    5.5548 H   0  0  0  0  0  0  0  0  0  0  0  0
    3.3769   -6.7614    4.5264 H   0  0  0  0  0  0  0  0  0  0  0  0
    2.0305   -7.4931    3.6704 H   0  0  0  0  0  0  0  0  0  0  0  0
    0.9483   -5.4991    3.2867 H   0  0  0  0  0  0  0  0  0  0  0  0
    2.7903   -3.8580   -2.5273 H   0  0  0  0  0  0  0  0  0  0  0  0
    2.2755   -2.4726   -4.4510 H   0  0  0  0  0  0  0  0  0  0  0  0
  1  2  1  0
  1 29  1  0
  1 30  1  0
  1 31  1  0
  2 28  2  0
  2  3  1  0
  3  4  2  0
  3 32  1  0
  4  5  1  0
  4 33  1  0
  5  6  1  0
  5 27  2  0
  6  7  2  3
  6 34  1  0
  7  8  1  0
  7 35  1  0
  8 25  1  0
  8  9  1  6
  8 10  1  0
  9 36  1  0
  9 37  1  0
  9 38  1  0
 10 11  1  0
 11 24  1  0
 11 12  1  0
 11 39  1  1
 12 13  1  0
 13 14  1  0
 14 26  1  0
 14 15  1  6
 14 16  1  0
 15 40  1  0
 15 41  1  0
 15 42  1  0
 16 17  1  0
 16 43  1  0
 16 44  1  0
 17 18  1  0
 17 45  1  0
 17 46  1  0
 18 23  1  0
 18 19  1  0
 18 47  1  6
 19 20  1  0
 19 21  1  0
 19 48  1  1
 20 49  1  0
 20 50  1  0
 20 51  1  0
 21 22  1  0
 21 52  1  0
 21 53  1  0
 22 23  1  0
 22 54  1  0
 22 55  1  0
 23 24  1  0
 23 56  1  6
 24 25  1  6
 24 26  1  0
 27 28  1  0
 27 57  1  0
 28 58  1  0
M  END
>  <i_m_ct_stereo_status>  (349) 
1

>  <s_m_source_file>  (349) 
/var/tmp/pbs.5076255.sched01/tmpux3k924y/120tsqzh4i4.sdf

>  <i_m_source_file_index>  (349) 
32

>  <i_lp_mmshare_version>  (349) 
48012

>  <i_f3d_flags>  (349) 
0

>  <s_epik_input>  (349) 
W0NIM11jMVtjSF1bY0hdYyhbY0hdW2NIXTEpL1tDSF09W0NIXS9bQ0BAXShPMikoW0NIM10pT1tDQEhdKFtDQEBdMjM0KU9PW0NAXShPNCkoW0NIM10pW0NIMl1bQ0gyXVtDQEhdNVtDQEBIXTNbQ0gyXVtDSDJdW0NAQEhdNVtDSDNd

>  <s_epik_cmdline>  (349) 
J2VwaWtfcHl0aG9uJywgJy1waHQnLCAnMi4wJywgJy1waCcsICc3LjAnLCAnLXRuJywgJzgnLCAnLW1hJywgJzIwMCcsICctaW1hZScsICc8aW5maWxlLm1hZT4nLCAnLW9tYWUnLCAnPG91dGZpbGUubWFlPic=

>  <r_lp_tautomer_probability>  (349) 
1

>  <r_epik_Ionization_Penalty>  (349) 
0

>  <r_epik_Ionization_Penalty_Charging>  (349) 
0

>  <r_epik_Ionization_Penalty_Neutral>  (349) 
0

>  <r_epik_State_Penalty>  (349) 
-0

>  <r_epik_Charging_Adjusted_Penalty>  (349) 
0

>  <i_epik_Tot_Q>  (349) 
0

>  <i_epik_Tot_abs_Q>  (349) 
0

>  <s_epik_Chemistry_Notes>  (349) 
This compound contains an acetal/aminal-like group ( X-CH(R)-Y where X, Y are N, S, or O) that may be acid/base labile, releasing an aldehyde.

>  <s_lp_Force_Field>  (349) 
OPLS3e

>  <r_lp_Energy>  (349) 
29.5192

>  <b_lp_Chiralities_Consistent>  (349) 
1

>  <s_lp_Variant>  (349) 
114:0-1

>  <s_i_glide_gridfile>  (349) 
pfpi4k_grid

>  <i_i_glide_lignum>  (349) 
32

>  <i_i_glide_rotatable_bonds>  (349) 
2

>  <r_i_docking_score>  (349) 
-2.85299

>  <r_i_glide_ligand_efficiency>  (349) 
-0.101893

>  <r_i_glide_ligand_efficiency_sa>  (349) 
-0.309406

>  <r_i_glide_ligand_efficiency_ln>  (349) 
-0.658555

>  <r_i_glide_gscore>  (349) 
-2.85299

>  <r_i_glide_lipo>  (349) 
-0.871851

>  <r_i_glide_hbond>  (349) 
0

>  <r_i_glide_metal>  (349) 
-0

>  <r_i_glide_rewards>  (349) 
-0.818013

>  <r_i_glide_evdw>  (349) 
-23.9116

>  <r_i_glide_ecoul>  (349) 
-1.48509

>  <r_i_glide_erotb>  (349) 
0.260616

>  <r_i_glide_esite>  (349) 
-0.00540272

>  <r_i_glide_emodel>  (349) 
-29.6539

>  <r_i_glide_energy>  (349) 
-25.3967

>  <r_i_glide_einternal>  (349) 
0.0536066

>  <r_i_glide_intrahb_reward>  (349) 
-0

>  <i_i_glide_confnum>  (349) 
3

>  <i_i_glide_posenum>  (349) 
21

>  <r_i_glide_eff_state_penalty>  (349) 
0

>  <ligand_id>  (349) 
114

>  <original_smiles>  (349) 
Cc1ccc(C=CC2(C)OC3OOC4(C)CCC5C(C)CCC5C3(O2)O4)cc1

>  <smiles>  (349) 
[H]C(=C([H])C1(C([H])([H])[H])OC2([H])OOC3(C([H])([H])[H])OC2(O1)C1([H])C([H])([H])C([H])([H])C([H])(C([H])([H])[H])C1([H])C([H])([H])C3([H])[H])c1c([H])c([H])c(C([H])([H])[H])c([H])c1[H]

$$$$
114:0:1
     RDKit          3D

 58 62  0  0  1  0  0  0  0  0999 V2000
    3.1726    0.0901   -4.7612 C   0  0  0  0  0  0  0  0  0  0  0  0
    3.4125   -0.9165   -3.6590 C   0  0  0  0  0  0  0  0  0  0  0  0
    2.6566   -2.0999   -3.5870 C   0  0  0  0  0  0  0  0  0  0  0  0
    2.8718   -3.0118   -2.5373 C   0  0  0  0  0  0  0  0  0  0  0  0
    3.8533   -2.7673   -1.5521 C   0  0  0  0  0  0  0  0  0  0  0  0
    4.0567   -3.7641   -0.4895 C   0  0  0  0  0  0  0  0  0  0  0  0
    5.0161   -3.7517    0.4564 C   0  0  0  0  0  0  0  0  0  0  0  0
    5.1709   -4.8077    1.5385 C   0  0  1  0  0  0  0  0  0  0  0  0
    6.3195   -5.7657    1.1816 C   0  0  0  0  0  0  0  0  0  0  0  0
    5.4597   -4.2152    2.7692 O   0  0  0  0  0  0  0  0  0  0  0  0
    4.4448   -4.6397    3.6548 C   0  0  1  0  0  0  0  0  0  0  0  0
    4.0535   -3.6624    4.5957 O   0  0  0  0  0  0  0  0  0  0  0  0
    3.4777   -2.5018    3.8543 O   0  0  0  0  0  0  0  0  0  0  0  0
    2.2907   -2.9346    3.2133 C   0  0  2  0  0  0  0  0  0  0  0  0
    1.8879   -1.7191    2.3659 C   0  0  0  0  0  0  0  0  0  0  0  0
    1.1428   -3.3235    4.1790 C   0  0  0  0  0  0  0  0  0  0  0  0
    1.3435   -4.5729    5.0593 C   0  0  0  0  0  0  0  0  0  0  0  0
    1.3133   -5.9232    4.3140 C   0  0  2  0  0  0  0  0  0  0  0  0
    1.4630   -7.1396    5.2561 C   0  0  1  0  0  0  0  0  0  0  0  0
    0.1713   -7.5334    5.9874 C   0  0  0  0  0  0  0  0  0  0  0  0
    2.0192   -8.2647    4.3780 C   0  0  0  0  0  0  0  0  0  0  0  0
    2.9791   -7.5532    3.4264 C   0  0  0  0  0  0  0  0  0  0  0  0
    2.3051   -6.1992    3.1543 C   0  0  2  0  0  0  0  0  0  0  0  0
    3.2867   -5.0723    2.7236 C   0  0  2  0  0  0  0  0  0  0  0  0
    4.0153   -5.5729    1.6604 O   0  0  0  0  0  0  0  0  0  0  0  0
    2.5402   -3.9735    2.2805 O   0  0  0  0  0  0  0  0  0  0  0  0
    4.6159   -1.5783   -1.6336 C   0  0  0  0  0  0  0  0  0  0  0  0
    4.3900   -0.6588   -2.6772 C   0  0  0  0  0  0  0  0  0  0  0  0
    2.1975   -0.0544   -5.2240 H   0  0  0  0  0  0  0  0  0  0  0  0
    3.9323   -0.0137   -5.5288 H   0  0  0  0  0  0  0  0  0  0  0  0
    3.2218    1.1058   -4.3733 H   0  0  0  0  0  0  0  0  0  0  0  0
    1.8880   -2.3055   -4.3191 H   0  0  0  0  0  0  0  0  0  0  0  0
    2.2568   -3.8973   -2.4957 H   0  0  0  0  0  0  0  0  0  0  0  0
    3.3524   -4.5841   -0.4889 H   0  0  0  0  0  0  0  0  0  0  0  0
    5.7409   -2.9559    0.4883 H   0  0  0  0  0  0  0  0  0  0  0  0
    6.4282   -6.5321    1.9515 H   0  0  0  0  0  0  0  0  0  0  0  0
    7.2586   -5.2194    1.0871 H   0  0  0  0  0  0  0  0  0  0  0  0
    6.1032   -6.2505    0.2274 H   0  0  0  0  0  0  0  0  0  0  0  0
    4.8365   -5.5063    4.1875 H   0  0  0  0  0  0  0  0  0  0  0  0
    2.7046   -1.4394    1.6983 H   0  0  0  0  0  0  0  0  0  0  0  0
    1.6561   -0.8556    2.9893 H   0  0  0  0  0  0  0  0  0  0  0  0
    1.0171   -1.9256    1.7464 H   0  0  0  0  0  0  0  0  0  0  0  0
    0.9288   -2.4764    4.8296 H   0  0  0  0  0  0  0  0  0  0  0  0
    0.2361   -3.4659    3.5950 H   0  0  0  0  0  0  0  0  0  0  0  0
    2.2137   -4.4886    5.7017 H   0  0  0  0  0  0  0  0  0  0  0  0
    0.5121   -4.5899    5.7624 H   0  0  0  0  0  0  0  0  0  0  0  0
    0.3198   -5.9984    3.8675 H   0  0  0  0  0  0  0  0  0  0  0  0
    2.2256   -6.9089    6.0019 H   0  0  0  0  0  0  0  0  0  0  0  0
   -0.6270   -7.7685    5.2820 H   0  0  0  0  0  0  0  0  0  0  0  0
   -0.1779   -6.7279    6.6333 H   0  0  0  0  0  0  0  0  0  0  0  0
    0.3254   -8.4130    6.6136 H   0  0  0  0  0  0  0  0  0  0  0  0
    2.5149   -9.0440    4.9591 H   0  0  0  0  0  0  0  0  0  0  0  0
    1.2144   -8.7383    3.8133 H   0  0  0  0  0  0  0  0  0  0  0  0
    3.9511   -7.4495    3.9042 H   0  0  0  0  0  0  0  0  0  0  0  0
    3.1279   -8.1221    2.5070 H   0  0  0  0  0  0  0  0  0  0  0  0
    1.6820   -6.3507    2.2727 H   0  0  0  0  0  0  0  0  0  0  0  0
    5.3642   -1.3431   -0.8932 H   0  0  0  0  0  0  0  0  0  0  0  0
    4.9642    0.2533   -2.7187 H   0  0  0  0  0  0  0  0  0  0  0  0
  1  2  1  0
  1 29  1  0
  1 30  1  0
  1 31  1  0
  2 28  2  0
  2  3  1  0
  3  4  2  0
  3 32  1  0
  4  5  1  0
  4 33  1  0
  5  6  1  0
  5 27  2  0
  6  7  2  3
  6 34  1  0
  7  8  1  0
  7 35  1  0
  8 25  1  0
  8  9  1  6
  8 10  1  0
  9 36  1  0
  9 37  1  0
  9 38  1  0
 10 11  1  0
 11 24  1  0
 11 12  1  0
 11 39  1  1
 12 13  1  0
 13 14  1  0
 14 26  1  0
 14 15  1  6
 14 16  1  0
 15 40  1  0
 15 41  1  0
 15 42  1  0
 16 17  1  0
 16 43  1  0
 16 44  1  0
 17 18  1  0
 17 45  1  0
 17 46  1  0
 18 23  1  0
 18 19  1  0
 18 47  1  6
 19 20  1  0
 19 21  1  0
 19 48  1  1
 20 49  1  0
 20 50  1  0
 20 51  1  0
 21 22  1  0
 21 52  1  0
 21 53  1  0
 22 23  1  0
 22 54  1  0
 22 55  1  0
 23 24  1  0
 23 56  1  6
 24 25  1  6
 24 26  1  0
 27 28  1  0
 27 57  1  0
 28 58  1  0
M  END
>  <i_m_ct_stereo_status>  (350) 
1

>  <s_m_source_file>  (350) 
/var/tmp/pbs.5076255.sched01/tmpux3k924y/120tsqzh4i4.sdf

>  <i_m_source_file_index>  (350) 
32

>  <i_lp_mmshare_version>  (350) 
48012

>  <i_f3d_flags>  (350) 
0

>  <s_epik_input>  (350) 
W0NIM11jMVtjSF1bY0hdYyhbY0hdW2NIXTEpL1tDSF09W0NIXS9bQ0BAXShPMikoW0NIM10pT1tDQEhdKFtDQEBdMjM0KU9PW0NAXShPNCkoW0NIM10pW0NIMl1bQ0gyXVtDQEhdNVtDQEBIXTNbQ0gyXVtDSDJdW0NAQEhdNVtDSDNd

>  <s_epik_cmdline>  (350) 
J2VwaWtfcHl0aG9uJywgJy1waHQnLCAnMi4wJywgJy1waCcsICc3LjAnLCAnLXRuJywgJzgnLCAnLW1hJywgJzIwMCcsICctaW1hZScsICc8aW5maWxlLm1hZT4nLCAnLW9tYWUnLCAnPG91dGZpbGUubWFlPic=

>  <r_lp_tautomer_probability>  (350) 
1

>  <r_epik_Ionization_Penalty>  (350) 
0

>  <r_epik_Ionization_Penalty_Charging>  (350) 
0

>  <r_epik_Ionization_Penalty_Neutral>  (350) 
0

>  <r_epik_State_Penalty>  (350) 
-0

>  <r_epik_Charging_Adjusted_Penalty>  (350) 
0

>  <i_epik_Tot_Q>  (350) 
0

>  <i_epik_Tot_abs_Q>  (350) 
0

>  <s_epik_Chemistry_Notes>  (350) 
This compound contains an acetal/aminal-like group ( X-CH(R)-Y where X, Y are N, S, or O) that may be acid/base labile, releasing an aldehyde.

>  <s_lp_Force_Field>  (350) 
OPLS3e

>  <r_lp_Energy>  (350) 
29.5192

>  <b_lp_Chiralities_Consistent>  (350) 
1

>  <s_lp_Variant>  (350) 
114:0-1

>  <s_i_glide_gridfile>  (350) 
pfpi4k_grid

>  <i_i_glide_lignum>  (350) 
32

>  <i_i_glide_rotatable_bonds>  (350) 
2

>  <r_i_docking_score>  (350) 
-2.82019

>  <r_i_glide_ligand_efficiency>  (350) 
-0.100721

>  <r_i_glide_ligand_efficiency_sa>  (350) 
-0.305849

>  <r_i_glide_ligand_efficiency_ln>  (350) 
-0.650983

>  <r_i_glide_gscore>  (350) 
-2.82019

>  <r_i_glide_lipo>  (350) 
-0.798376

>  <r_i_glide_hbond>  (350) 
0

>  <r_i_glide_metal>  (350) 
-0

>  <r_i_glide_rewards>  (350) 
-0.828591

>  <r_i_glide_evdw>  (350) 
-24.5271

>  <r_i_glide_ecoul>  (350) 
-1.51313

>  <r_i_glide_erotb>  (350) 
0.260616

>  <r_i_glide_esite>  (350) 
-0.000514917

>  <r_i_glide_emodel>  (350) 
-29.8177

>  <r_i_glide_energy>  (350) 
-26.0403

>  <r_i_glide_einternal>  (350) 
0.942661

>  <r_i_glide_intrahb_reward>  (350) 
-0

>  <i_i_glide_confnum>  (350) 
3

>  <i_i_glide_posenum>  (350) 
15

>  <r_i_glide_eff_state_penalty>  (350) 
0

>  <ligand_id>  (350) 
114

>  <original_smiles>  (350) 
Cc1ccc(C=CC2(C)OC3OOC4(C)CCC5C(C)CCC5C3(O2)O4)cc1

>  <smiles>  (350) 
[H]C(=C([H])C1(C([H])([H])[H])OC2([H])OOC3(C([H])([H])[H])OC2(O1)C1([H])C([H])([H])C([H])([H])C([H])(C([H])([H])[H])C1([H])C([H])([H])C3([H])[H])c1c([H])c([H])c(C([H])([H])[H])c([H])c1[H]

$$$$
114:0:2
     RDKit          3D

 58 62  0  0  1  0  0  0  0  0999 V2000
    3.8734   -0.2711   -3.2660 C   0  0  0  0  0  0  0  0  0  0  0  0
    4.0488   -1.5053   -2.4108 C   0  0  0  0  0  0  0  0  0  0  0  0
    4.7064   -2.6402   -2.9197 C   0  0  0  0  0  0  0  0  0  0  0  0
    4.8482   -3.7877   -2.1194 C   0  0  0  0  0  0  0  0  0  0  0  0
    4.3317   -3.8285   -0.8027 C   0  0  0  0  0  0  0  0  0  0  0  0
    4.4988   -5.0614   -0.0225 C   0  0  0  0  0  0  0  0  0  0  0  0
    3.9887   -5.3105    1.1991 C   0  0  0  0  0  0  0  0  0  0  0  0
    4.1700   -6.5879    2.0129 C   0  0  1  0  0  0  0  0  0  0  0  0
    5.0536   -7.6364    1.3006 C   0  0  0  0  0  0  0  0  0  0  0  0
    4.7649   -6.2835    3.2387 O   0  0  0  0  0  0  0  0  0  0  0  0
    3.8703   -6.7337    4.2337 C   0  0  1  0  0  0  0  0  0  0  0  0
    3.8222   -5.9124    5.3821 O   0  0  0  0  0  0  0  0  0  0  0  0
    3.3147   -4.5718    4.9719 O   0  0  0  0  0  0  0  0  0  0  0  0
    1.9727   -4.7234    4.5459 C   0  0  2  0  0  0  0  0  0  0  0  0
    1.6140   -3.3311    4.0149 C   0  0  0  0  0  0  0  0  0  0  0  0
    0.9836   -5.1423    5.6600 C   0  0  0  0  0  0  0  0  0  0  0  0
    1.1428   -6.5495    6.2613 C   0  0  0  0  0  0  0  0  0  0  0  0
    0.7543   -7.7177    5.3311 C   0  0  2  0  0  0  0  0  0  0  0  0
    0.8785   -9.0973    6.0132 C   0  0  1  0  0  0  0  0  0  0  0  0
   -0.2978   -9.4592    6.9362 C   0  0  0  0  0  0  0  0  0  0  0  0
    1.0772  -10.0959    4.8684 C   0  0  0  0  0  0  0  0  0  0  0  0
    1.9492   -9.3433    3.8632 C   0  0  0  0  0  0  0  0  0  0  0  0
    1.4537   -7.8896    3.9560 C   0  0  2  0  0  0  0  0  0  0  0  0
    2.5024   -6.8259    3.5061 C   0  0  2  0  0  0  0  0  0  0  0  0
    2.9285   -7.1821    2.2382 O   0  0  0  0  0  0  0  0  0  0  0  0
    1.8670   -5.5805    3.4231 O   0  0  0  0  0  0  0  0  0  0  0  0
    3.6691   -2.6873   -0.3018 C   0  0  0  0  0  0  0  0  0  0  0  0
    3.5416   -1.5322   -1.0941 C   0  0  0  0  0  0  0  0  0  0  0  0
    4.0158   -0.4888   -4.3232 H   0  0  0  0  0  0  0  0  0  0  0  0
    4.5950    0.4878   -2.9749 H   0  0  0  0  0  0  0  0  0  0  0  0
    2.8734    0.1366   -3.1349 H   0  0  0  0  0  0  0  0  0  0  0  0
    5.0980   -2.6459   -3.9203 H   0  0  0  0  0  0  0  0  0  0  0  0
    5.3408   -4.6538   -2.5390 H   0  0  0  0  0  0  0  0  0  0  0  0
    5.0967   -5.8137   -0.5119 H   0  0  0  0  0  0  0  0  0  0  0  0
    3.3785   -4.5630    1.6755 H   0  0  0  0  0  0  0  0  0  0  0  0
    5.1724   -8.5315    1.9092 H   0  0  0  0  0  0  0  0  0  0  0  0
    6.0419   -7.2178    1.1032 H   0  0  0  0  0  0  0  0  0  0  0  0
    4.5977   -7.9271    0.3525 H   0  0  0  0  0  0  0  0  0  0  0  0
    4.2066   -7.7317    4.5228 H   0  0  0  0  0  0  0  0  0  0  0  0
    2.3306   -3.0294    3.2496 H   0  0  0  0  0  0  0  0  0  0  0  0
    1.6416   -2.5840    4.8096 H   0  0  0  0  0  0  0  0  0  0  0  0
    0.6197   -3.3303    3.5690 H   0  0  0  0  0  0  0  0  0  0  0  0
    1.0305   -4.4117    6.4679 H   0  0  0  0  0  0  0  0  0  0  0  0
   -0.0245   -5.0612    5.2578 H   0  0  0  0  0  0  0  0  0  0  0  0
    2.1174   -6.7010    6.7117 H   0  0  0  0  0  0  0  0  0  0  0  0
    0.4662   -6.5968    7.1122 H   0  0  0  0  0  0  0  0  0  0  0  0
   -0.3041   -7.5823    5.1013 H   0  0  0  0  0  0  0  0  0  0  0  0
    1.7949   -9.1108    6.6062 H   0  0  0  0  0  0  0  0  0  0  0  0
   -1.2446   -9.4522    6.3992 H   0  0  0  0  0  0  0  0  0  0  0  0
   -0.3810   -8.7608    7.7691 H   0  0  0  0  0  0  0  0  0  0  0  0
   -0.1794  -10.4591    7.3512 H   0  0  0  0  0  0  0  0  0  0  0  0
    1.5322  -11.0306    5.2041 H   0  0  0  0  0  0  0  0  0  0  0  0
    0.1164  -10.3448    4.4144 H   0  0  0  0  0  0  0  0  0  0  0  0
    2.9963   -9.4530    4.1371 H   0  0  0  0  0  0  0  0  0  0  0  0
    1.8334   -9.7424    2.8541 H   0  0  0  0  0  0  0  0  0  0  0  0
    0.6576   -7.8018    3.2170 H   0  0  0  0  0  0  0  0  0  0  0  0
    3.2381   -2.6749    0.6889 H   0  0  0  0  0  0  0  0  0  0  0  0
    3.0165   -0.6754   -0.6973 H   0  0  0  0  0  0  0  0  0  0  0  0
  1  2  1  0
  1 29  1  0
  1 30  1  0
  1 31  1  0
  2 28  2  0
  2  3  1  0
  3  4  2  0
  3 32  1  0
  4  5  1  0
  4 33  1  0
  5  6  1  0
  5 27  2  0
  6  7  2  3
  6 34  1  0
  7  8  1  0
  7 35  1  0
  8 25  1  0
  8  9  1  6
  8 10  1  0
  9 36  1  0
  9 37  1  0
  9 38  1  0
 10 11  1  0
 11 24  1  0
 11 12  1  0
 11 39  1  1
 12 13  1  0
 13 14  1  0
 14 26  1  0
 14 15  1  6
 14 16  1  0
 15 40  1  0
 15 41  1  0
 15 42  1  0
 16 17  1  0
 16 43  1  0
 16 44  1  0
 17 18  1  0
 17 45  1  0
 17 46  1  0
 18 23  1  0
 18 19  1  0
 18 47  1  6
 19 20  1  0
 19 21  1  0
 19 48  1  1
 20 49  1  0
 20 50  1  0
 20 51  1  0
 21 22  1  0
 21 52  1  0
 21 53  1  0
 22 23  1  0
 22 54  1  0
 22 55  1  0
 23 24  1  0
 23 56  1  6
 24 25  1  6
 24 26  1  0
 27 28  1  0
 27 57  1  0
 28 58  1  0
M  END
>  <i_m_ct_stereo_status>  (351) 
1

>  <s_m_source_file>  (351) 
/var/tmp/pbs.5076255.sched01/tmpux3k924y/120tsqzh4i4.sdf

>  <i_m_source_file_index>  (351) 
32

>  <i_lp_mmshare_version>  (351) 
48012

>  <i_f3d_flags>  (351) 
0

>  <s_epik_input>  (351) 
W0NIM11jMVtjSF1bY0hdYyhbY0hdW2NIXTEpL1tDSF09W0NIXS9bQ0BAXShPMikoW0NIM10pT1tDQEhdKFtDQEBdMjM0KU9PW0NAXShPNCkoW0NIM10pW0NIMl1bQ0gyXVtDQEhdNVtDQEBIXTNbQ0gyXVtDSDJdW0NAQEhdNVtDSDNd

>  <s_epik_cmdline>  (351) 
J2VwaWtfcHl0aG9uJywgJy1waHQnLCAnMi4wJywgJy1waCcsICc3LjAnLCAnLXRuJywgJzgnLCAnLW1hJywgJzIwMCcsICctaW1hZScsICc8aW5maWxlLm1hZT4nLCAnLW9tYWUnLCAnPG91dGZpbGUubWFlPic=

>  <r_lp_tautomer_probability>  (351) 
1

>  <r_epik_Ionization_Penalty>  (351) 
0

>  <r_epik_Ionization_Penalty_Charging>  (351) 
0

>  <r_epik_Ionization_Penalty_Neutral>  (351) 
0

>  <r_epik_State_Penalty>  (351) 
-0

>  <r_epik_Charging_Adjusted_Penalty>  (351) 
0

>  <i_epik_Tot_Q>  (351) 
0

>  <i_epik_Tot_abs_Q>  (351) 
0

>  <s_epik_Chemistry_Notes>  (351) 
This compound contains an acetal/aminal-like group ( X-CH(R)-Y where X, Y are N, S, or O) that may be acid/base labile, releasing an aldehyde.

>  <s_lp_Force_Field>  (351) 
OPLS3e

>  <r_lp_Energy>  (351) 
29.5192

>  <b_lp_Chiralities_Consistent>  (351) 
1

>  <s_lp_Variant>  (351) 
114:0-1

>  <s_i_glide_gridfile>  (351) 
pfpi4k_grid

>  <i_i_glide_lignum>  (351) 
32

>  <i_i_glide_rotatable_bonds>  (351) 
2

>  <r_i_docking_score>  (351) 
-2.18033

>  <r_i_glide_ligand_efficiency>  (351) 
-0.0778688

>  <r_i_glide_ligand_efficiency_sa>  (351) 
-0.236456

>  <r_i_glide_ligand_efficiency_ln>  (351) 
-0.503284

>  <r_i_glide_gscore>  (351) 
-2.18033

>  <r_i_glide_lipo>  (351) 
-0.423647

>  <r_i_glide_hbond>  (351) 
0

>  <r_i_glide_metal>  (351) 
-0

>  <r_i_glide_rewards>  (351) 
-0.809836

>  <r_i_glide_evdw>  (351) 
-23.1356

>  <r_i_glide_ecoul>  (351) 
-0.328767

>  <r_i_glide_erotb>  (351) 
0.260616

>  <r_i_glide_esite>  (351) 
-0.00136466

>  <r_i_glide_emodel>  (351) 
-26.6454

>  <r_i_glide_energy>  (351) 
-23.4644

>  <r_i_glide_einternal>  (351) 
0.106034

>  <r_i_glide_intrahb_reward>  (351) 
-0

>  <i_i_glide_confnum>  (351) 
3

>  <i_i_glide_posenum>  (351) 
1

>  <r_i_glide_eff_state_penalty>  (351) 
0

>  <ligand_id>  (351) 
114

>  <original_smiles>  (351) 
Cc1ccc(C=CC2(C)OC3OOC4(C)CCC5C(C)CCC5C3(O2)O4)cc1

>  <smiles>  (351) 
[H]C(=C([H])C1(C([H])([H])[H])OC2([H])OOC3(C([H])([H])[H])OC2(O1)C1([H])C([H])([H])C([H])([H])C([H])(C([H])([H])[H])C1([H])C([H])([H])C3([H])[H])c1c([H])c([H])c(C([H])([H])[H])c([H])c1[H]

$$$$
114:1:0
     RDKit          3D

 58 62  0  0  1  0  0  0  0  0999 V2000
    4.2495   -3.7035   -4.2188 C   0  0  0  0  0  0  0  0  0  0  0  0
    4.7941   -2.9760   -3.0065 C   0  0  0  0  0  0  0  0  0  0  0  0
    3.9719   -2.0564   -2.3250 C   0  0  0  0  0  0  0  0  0  0  0  0
    4.5001   -1.3082   -1.2795 C   0  0  0  0  0  0  0  0  0  0  0  0
    5.7743   -1.5709   -0.7646 C   0  0  0  0  0  0  0  0  0  0  0  0
    6.2180   -1.0025    0.5225 C   0  0  0  0  0  0  0  0  0  0  0  0
    5.5184   -0.7404    1.6568 C   0  0  0  0  0  0  0  0  0  0  0  0
    4.0404   -0.9730    1.9886 C   0  0  1  0  0  0  0  0  0  0  0  0
    3.3667    0.3315    2.3913 C   0  0  0  0  0  0  0  0  0  0  0  0
    3.2901   -1.5070    0.9769 O   0  0  0  0  0  0  0  0  0  0  0  0
    2.8234   -2.7417    1.3860 C   0  0  1  0  0  0  0  0  0  0  0  0
    2.8490   -3.7820    0.4486 O   0  0  0  0  0  0  0  0  0  0  0  0
    4.2669   -4.1426    0.1302 O   0  0  0  0  0  0  0  0  0  0  0  0
    4.8796   -4.6771    1.2923 C   0  0  2  0  0  0  0  0  0  0  0  0
    6.3583   -4.8353    0.9284 C   0  0  0  0  0  0  0  0  0  0  0  0
    4.3005   -6.0307    1.7555 C   0  0  0  0  0  0  0  0  0  0  0  0
    2.8192   -6.0594    2.1815 C   0  0  0  0  0  0  0  0  0  0  0  0
    2.4804   -5.3514    3.5162 C   0  0  2  0  0  0  0  0  0  0  0  0
    0.9711   -5.3489    3.8331 C   0  0  1  0  0  0  0  0  0  0  0  0
    0.4229   -6.7012    4.3111 C   0  0  0  0  0  0  0  0  0  0  0  0
    0.7911   -4.2309    4.8609 C   0  0  0  0  0  0  0  0  0  0  0  0
    1.7653   -3.1437    4.4193 C   0  0  0  0  0  0  0  0  0  0  0  0
    2.9721   -3.8926    3.8055 C   0  0  2  0  0  0  0  0  0  0  0  0
    3.6615   -3.1100    2.6471 C   0  0  2  0  0  0  0  0  0  0  0  0
    3.9306   -1.8427    3.0986 O   0  0  0  0  0  0  0  0  0  0  0  0
    4.8766   -3.7519    2.3612 O   0  0  0  0  0  0  0  0  0  0  0  0
    6.6188   -2.4779   -1.4673 C   0  0  0  0  0  0  0  0  0  0  0  0
    6.1300   -3.1592   -2.5934 C   0  0  0  0  0  0  0  0  0  0  0  0
    3.7963   -4.6568   -3.9348 H   0  0  0  0  0  0  0  0  0  0  0  0
    5.0560   -3.9067   -4.9320 H   0  0  0  0  0  0  0  0  0  0  0  0
    3.4858   -3.0795   -4.7041 H   0  0  0  0  0  0  0  0  0  0  0  0
    2.9328   -1.9579   -2.6023 H   0  0  0  0  0  0  0  0  0  0  0  0
    3.8535   -0.5581   -0.8078 H   0  0  0  0  0  0  0  0  0  0  0  0
    7.2698   -0.7538    0.5793 H   0  0  0  0  0  0  0  0  0  0  0  0
    6.0925   -0.3009    2.4629 H   0  0  0  0  0  0  0  0  0  0  0  0
    2.3052    0.1630    2.5755 H   0  0  0  0  0  0  0  0  0  0  0  0
    3.4312    0.9719    1.5069 H   0  0  0  0  0  0  0  0  0  0  0  0
    3.8259    0.8470    3.2403 H   0  0  0  0  0  0  0  0  0  0  0  0
    1.7754   -2.6237    1.6972 H   0  0  0  0  0  0  0  0  0  0  0  0
    6.7638   -3.8664    0.6574 H   0  0  0  0  0  0  0  0  0  0  0  0
    6.5039   -5.5190    0.0854 H   0  0  0  0  0  0  0  0  0  0  0  0
    6.9445   -5.1720    1.7843 H   0  0  0  0  0  0  0  0  0  0  0  0
    4.4450   -6.7701    0.9649 H   0  0  0  0  0  0  0  0  0  0  0  0
    4.9023   -6.3823    2.5931 H   0  0  0  0  0  0  0  0  0  0  0  0
    2.1679   -5.7474    1.3683 H   0  0  0  0  0  0  0  0  0  0  0  0
    2.5631   -7.1109    2.3130 H   0  0  0  0  0  0  0  0  0  0  0  0
    2.9607   -5.9545    4.2900 H   0  0  0  0  0  0  0  0  0  0  0  0
    0.4385   -5.0560    2.9294 H   0  0  0  0  0  0  0  0  0  0  0  0
    0.9523   -7.0514    5.1980 H   0  0  0  0  0  0  0  0  0  0  0  0
    0.5275   -7.4661    3.5410 H   0  0  0  0  0  0  0  0  0  0  0  0
   -0.6358   -6.6314    4.5625 H   0  0  0  0  0  0  0  0  0  0  0  0
   -0.2323   -3.8621    4.9083 H   0  0  0  0  0  0  0  0  0  0  0  0
    1.0672   -4.5839    5.8537 H   0  0  0  0  0  0  0  0  0  0  0  0
    1.2741   -2.4806    3.7108 H   0  0  0  0  0  0  0  0  0  0  0  0
    2.0886   -2.5222    5.2522 H   0  0  0  0  0  0  0  0  0  0  0  0
    3.7354   -3.9890    4.5979 H   0  0  0  0  0  0  0  0  0  0  0  0
    7.6272   -2.6746   -1.1239 H   0  0  0  0  0  0  0  0  0  0  0  0
    6.7816   -3.8470   -3.1294 H   0  0  0  0  0  0  0  0  0  0  0  0
  1  2  1  0
  1 29  1  0
  1 30  1  0
  1 31  1  0
  2 28  2  0
  2  3  1  0
  3  4  2  0
  3 32  1  0
  4  5  1  0
  4 33  1  0
  5  6  1  0
  5 27  2  0
  6  7  2  3
  6 34  1  0
  7  8  1  0
  7 35  1  0
  8 25  1  0
  8  9  1  1
  8 10  1  0
  9 36  1  0
  9 37  1  0
  9 38  1  0
 10 11  1  0
 11 24  1  0
 11 12  1  0
 11 39  1  1
 12 13  1  0
 13 14  1  0
 14 26  1  0
 14 15  1  6
 14 16  1  0
 15 40  1  0
 15 41  1  0
 15 42  1  0
 16 17  1  0
 16 43  1  0
 16 44  1  0
 17 18  1  0
 17 45  1  0
 17 46  1  0
 18 23  1  0
 18 19  1  0
 18 47  1  1
 19 20  1  0
 19 21  1  0
 19 48  1  6
 20 49  1  0
 20 50  1  0
 20 51  1  0
 21 22  1  0
 21 52  1  0
 21 53  1  0
 22 23  1  0
 22 54  1  0
 22 55  1  0
 23 24  1  0
 23 56  1  1
 24 25  1  1
 24 26  1  0
 27 28  1  0
 27 57  1  0
 28 58  1  0
M  END
>  <i_m_ct_stereo_status>  (352) 
1

>  <s_m_source_file>  (352) 
/var/tmp/pbs.5076255.sched01/tmpux3k924y/120tsqzh4i4.sdf

>  <i_m_source_file_index>  (352) 
33

>  <i_lp_mmshare_version>  (352) 
48012

>  <i_f3d_flags>  (352) 
0

>  <s_epik_input>  (352) 
W0NIM11jMVtjSF1bY0hdYyhbY0hdW2NIXTEpL1tDSF09W0NIXS9bQ0BAXShPMikoW0NIM10pT1tDQEhdKFtDQEBdMjM0KU9PW0NAXShPNCkoW0NIM10pW0NIMl1bQ0gyXVtDQEhdNVtDQEBIXTNbQ0gyXVtDSDJdW0NAQEhdNVtDSDNd

>  <s_epik_cmdline>  (352) 
J2VwaWtfcHl0aG9uJywgJy1waHQnLCAnMi4wJywgJy1waCcsICc3LjAnLCAnLXRuJywgJzgnLCAnLW1hJywgJzIwMCcsICctaW1hZScsICc8aW5maWxlLm1hZT4nLCAnLW9tYWUnLCAnPG91dGZpbGUubWFlPic=

>  <r_lp_tautomer_probability>  (352) 
1

>  <r_epik_Ionization_Penalty>  (352) 
0

>  <r_epik_Ionization_Penalty_Charging>  (352) 
0

>  <r_epik_Ionization_Penalty_Neutral>  (352) 
0

>  <r_epik_State_Penalty>  (352) 
-0

>  <r_epik_Charging_Adjusted_Penalty>  (352) 
0

>  <i_epik_Tot_Q>  (352) 
0

>  <i_epik_Tot_abs_Q>  (352) 
0

>  <s_epik_Chemistry_Notes>  (352) 
This compound contains an acetal/aminal-like group ( X-CH(R)-Y where X, Y are N, S, or O) that may be acid/base labile, releasing an aldehyde.

>  <s_lp_Force_Field>  (352) 
OPLS3e

>  <r_lp_Energy>  (352) 
32.268

>  <b_lp_Chiralities_Consistent>  (352) 
1

>  <s_lp_Variant>  (352) 
114:0-2

>  <s_i_glide_gridfile>  (352) 
pfpi4k_grid

>  <i_i_glide_lignum>  (352) 
33

>  <i_i_glide_rotatable_bonds>  (352) 
2

>  <r_i_docking_score>  (352) 
-2.67331

>  <r_i_glide_ligand_efficiency>  (352) 
-0.0954755

>  <r_i_glide_ligand_efficiency_sa>  (352) 
-0.28992

>  <r_i_glide_ligand_efficiency_ln>  (352) 
-0.61708

>  <r_i_glide_gscore>  (352) 
-2.67331

>  <r_i_glide_lipo>  (352) 
-0.780765

>  <r_i_glide_hbond>  (352) 
0

>  <r_i_glide_metal>  (352) 
-0

>  <r_i_glide_rewards>  (352) 
-0.850908

>  <r_i_glide_evdw>  (352) 
-25.4609

>  <r_i_glide_ecoul>  (352) 
-0.0774469

>  <r_i_glide_erotb>  (352) 
0.260616

>  <r_i_glide_esite>  (352) 
-0.017596

>  <r_i_glide_emodel>  (352) 
-27.4298

>  <r_i_glide_energy>  (352) 
-25.5383

>  <r_i_glide_einternal>  (352) 
1.61927

>  <r_i_glide_intrahb_reward>  (352) 
-0

>  <i_i_glide_confnum>  (352) 
6

>  <i_i_glide_posenum>  (352) 
17

>  <r_i_glide_eff_state_penalty>  (352) 
0

>  <ligand_id>  (352) 
114

>  <original_smiles>  (352) 
Cc1ccc(C=CC2(C)OC3OOC4(C)CCC5C(C)CCC5C3(O2)O4)cc1

>  <smiles>  (352) 
[H]C(=C([H])C1(C([H])([H])[H])OC2([H])OOC3(C([H])([H])[H])OC2(O1)C1([H])C([H])([H])C([H])([H])C([H])(C([H])([H])[H])C1([H])C([H])([H])C3([H])[H])c1c([H])c([H])c(C([H])([H])[H])c([H])c1[H]

$$$$
114:1:1
     RDKit          3D

 58 62  0  0  1  0  0  0  0  0999 V2000
    2.2559   -2.8218   -4.1477 C   0  0  0  0  0  0  0  0  0  0  0  0
    3.4495   -2.6908   -3.2527 C   0  0  0  0  0  0  0  0  0  0  0  0
    3.4816   -1.6514   -2.3091 C   0  0  0  0  0  0  0  0  0  0  0  0
    4.6258   -1.4581   -1.5375 C   0  0  0  0  0  0  0  0  0  0  0  0
    5.6736   -2.3908   -1.5662 C   0  0  0  0  0  0  0  0  0  0  0  0
    6.7522   -2.3636   -0.5696 C   0  0  0  0  0  0  0  0  0  0  0  0
    6.7099   -2.0241    0.7420 C   0  0  0  0  0  0  0  0  0  0  0  0
    5.5263   -1.6293    1.6382 C   0  0  1  0  0  0  0  0  0  0  0  0
    5.7159   -0.2141    2.1641 C   0  0  0  0  0  0  0  0  0  0  0  0
    4.3057   -1.6419    1.0199 O   0  0  0  0  0  0  0  0  0  0  0  0
    3.4911   -2.5568    1.6610 C   0  0  1  0  0  0  0  0  0  0  0  0
    2.6936   -3.3532    0.8250 O   0  0  0  0  0  0  0  0  0  0  0  0
    3.5650   -4.2706    0.0287 O   0  0  0  0  0  0  0  0  0  0  0  0
    4.2306   -5.1571    0.9074 C   0  0  2  0  0  0  0  0  0  0  0  0
    5.2177   -5.9058    0.0078 C   0  0  0  0  0  0  0  0  0  0  0  0
    3.3086   -6.1568    1.6413 C   0  0  0  0  0  0  0  0  0  0  0  0
    2.2542   -5.5684    2.6041 C   0  0  0  0  0  0  0  0  0  0  0  0
    2.7952   -4.9507    3.9159 C   0  0  2  0  0  0  0  0  0  0  0  0
    1.6901   -4.3035    4.7824 C   0  0  1  0  0  0  0  0  0  0  0  0
    0.7988   -5.3134    5.5205 C   0  0  0  0  0  0  0  0  0  0  0  0
    2.4422   -3.3651    5.7274 C   0  0  0  0  0  0  0  0  0  0  0  0
    3.5751   -2.7926    4.8757 C   0  0  0  0  0  0  0  0  0  0  0  0
    3.9685   -3.9252    3.9036 C   0  0  2  0  0  0  0  0  0  0  0  0
    4.4557   -3.4057    2.5190 C   0  0  2  0  0  0  0  0  0  0  0  0
    5.4320   -2.4612    2.7493 O   0  0  0  0  0  0  0  0  0  0  0  0
    5.0433   -4.4737    1.8330 O   0  0  0  0  0  0  0  0  0  0  0  0
    5.6505   -3.4105   -2.5519 C   0  0  0  0  0  0  0  0  0  0  0  0
    4.5487   -3.5512   -3.4070 C   0  0  0  0  0  0  0  0  0  0  0  0
    1.4846   -3.4462   -3.6977 H   0  0  0  0  0  0  0  0  0  0  0  0
    2.6052   -3.2534   -5.0889 H   0  0  0  0  0  0  0  0  0  0  0  0
    1.8140   -1.8419   -4.3188 H   0  0  0  0  0  0  0  0  0  0  0  0
    2.6228   -1.0250   -2.1651 H   0  0  0  0  0  0  0  0  0  0  0  0
    4.6401   -0.6001   -0.8748 H   0  0  0  0  0  0  0  0  0  0  0  0
    7.7262   -2.6485   -0.9418 H   0  0  0  0  0  0  0  0  0  0  0  0
    7.6558   -2.0539    1.2609 H   0  0  0  0  0  0  0  0  0  0  0  0
    4.8492    0.0941    2.7476 H   0  0  0  0  0  0  0  0  0  0  0  0
    5.7716    0.4215    1.2874 H   0  0  0  0  0  0  0  0  0  0  0  0
    6.6149   -0.1190    2.7789 H   0  0  0  0  0  0  0  0  0  0  0  0
    2.8147   -1.9899    2.3154 H   0  0  0  0  0  0  0  0  0  0  0  0
    5.8570   -5.1842   -0.4943 H   0  0  0  0  0  0  0  0  0  0  0  0
    4.6994   -6.4893   -0.7538 H   0  0  0  0  0  0  0  0  0  0  0  0
    5.8582   -6.5634    0.5930 H   0  0  0  0  0  0  0  0  0  0  0  0
    2.7941   -6.7792    0.9087 H   0  0  0  0  0  0  0  0  0  0  0  0
    3.9349   -6.8407    2.2089 H   0  0  0  0  0  0  0  0  0  0  0  0
    1.5758   -4.8970    2.0883 H   0  0  0  0  0  0  0  0  0  0  0  0
    1.6084   -6.3986    2.8927 H   0  0  0  0  0  0  0  0  0  0  0  0
    3.1846   -5.7962    4.4899 H   0  0  0  0  0  0  0  0  0  0  0  0
    1.0607   -3.6856    4.1387 H   0  0  0  0  0  0  0  0  0  0  0  0
    1.3890   -5.9703    6.1611 H   0  0  0  0  0  0  0  0  0  0  0  0
    0.2472   -5.9416    4.8212 H   0  0  0  0  0  0  0  0  0  0  0  0
    0.0695   -4.8042    6.1498 H   0  0  0  0  0  0  0  0  0  0  0  0
    1.8035   -2.5829    6.1373 H   0  0  0  0  0  0  0  0  0  0  0  0
    2.8636   -3.9246    6.5614 H   0  0  0  0  0  0  0  0  0  0  0  0
    3.2269   -1.8970    4.3681 H   0  0  0  0  0  0  0  0  0  0  0  0
    4.4271   -2.4913    5.4842 H   0  0  0  0  0  0  0  0  0  0  0  0
    4.8321   -4.4443    4.3415 H   0  0  0  0  0  0  0  0  0  0  0  0
    6.4637   -4.1062   -2.6337 H   0  0  0  0  0  0  0  0  0  0  0  0
    4.5379   -4.3349   -4.1542 H   0  0  0  0  0  0  0  0  0  0  0  0
  1  2  1  0
  1 29  1  0
  1 30  1  0
  1 31  1  0
  2 28  2  0
  2  3  1  0
  3  4  2  0
  3 32  1  0
  4  5  1  0
  4 33  1  0
  5  6  1  0
  5 27  2  0
  6  7  2  3
  6 34  1  0
  7  8  1  0
  7 35  1  0
  8 25  1  0
  8  9  1  1
  8 10  1  0
  9 36  1  0
  9 37  1  0
  9 38  1  0
 10 11  1  0
 11 24  1  0
 11 12  1  0
 11 39  1  1
 12 13  1  0
 13 14  1  0
 14 26  1  0
 14 15  1  6
 14 16  1  0
 15 40  1  0
 15 41  1  0
 15 42  1  0
 16 17  1  0
 16 43  1  0
 16 44  1  0
 17 18  1  0
 17 45  1  0
 17 46  1  0
 18 23  1  0
 18 19  1  0
 18 47  1  1
 19 20  1  0
 19 21  1  0
 19 48  1  6
 20 49  1  0
 20 50  1  0
 20 51  1  0
 21 22  1  0
 21 52  1  0
 21 53  1  0
 22 23  1  0
 22 54  1  0
 22 55  1  0
 23 24  1  0
 23 56  1  1
 24 25  1  1
 24 26  1  0
 27 28  1  0
 27 57  1  0
 28 58  1  0
M  END
>  <i_m_ct_stereo_status>  (353) 
1

>  <s_m_source_file>  (353) 
/var/tmp/pbs.5076255.sched01/tmpux3k924y/120tsqzh4i4.sdf

>  <i_m_source_file_index>  (353) 
33

>  <i_lp_mmshare_version>  (353) 
48012

>  <i_f3d_flags>  (353) 
0

>  <s_epik_input>  (353) 
W0NIM11jMVtjSF1bY0hdYyhbY0hdW2NIXTEpL1tDSF09W0NIXS9bQ0BAXShPMikoW0NIM10pT1tDQEhdKFtDQEBdMjM0KU9PW0NAXShPNCkoW0NIM10pW0NIMl1bQ0gyXVtDQEhdNVtDQEBIXTNbQ0gyXVtDSDJdW0NAQEhdNVtDSDNd

>  <s_epik_cmdline>  (353) 
J2VwaWtfcHl0aG9uJywgJy1waHQnLCAnMi4wJywgJy1waCcsICc3LjAnLCAnLXRuJywgJzgnLCAnLW1hJywgJzIwMCcsICctaW1hZScsICc8aW5maWxlLm1hZT4nLCAnLW9tYWUnLCAnPG91dGZpbGUubWFlPic=

>  <r_lp_tautomer_probability>  (353) 
1

>  <r_epik_Ionization_Penalty>  (353) 
0

>  <r_epik_Ionization_Penalty_Charging>  (353) 
0

>  <r_epik_Ionization_Penalty_Neutral>  (353) 
0

>  <r_epik_State_Penalty>  (353) 
-0

>  <r_epik_Charging_Adjusted_Penalty>  (353) 
0

>  <i_epik_Tot_Q>  (353) 
0

>  <i_epik_Tot_abs_Q>  (353) 
0

>  <s_epik_Chemistry_Notes>  (353) 
This compound contains an acetal/aminal-like group ( X-CH(R)-Y where X, Y are N, S, or O) that may be acid/base labile, releasing an aldehyde.

>  <s_lp_Force_Field>  (353) 
OPLS3e

>  <r_lp_Energy>  (353) 
32.268

>  <b_lp_Chiralities_Consistent>  (353) 
1

>  <s_lp_Variant>  (353) 
114:0-2

>  <s_i_glide_gridfile>  (353) 
pfpi4k_grid

>  <i_i_glide_lignum>  (353) 
33

>  <i_i_glide_rotatable_bonds>  (353) 
2

>  <r_i_docking_score>  (353) 
-2.66538

>  <r_i_glide_ligand_efficiency>  (353) 
-0.0951923

>  <r_i_glide_ligand_efficiency_sa>  (353) 
-0.28906

>  <r_i_glide_ligand_efficiency_ln>  (353) 
-0.615249

>  <r_i_glide_gscore>  (353) 
-2.66538

>  <r_i_glide_lipo>  (353) 
-0.776596

>  <r_i_glide_hbond>  (353) 
0

>  <r_i_glide_metal>  (353) 
-0

>  <r_i_glide_rewards>  (353) 
-1.00851

>  <r_i_glide_evdw>  (353) 
-21.7478

>  <r_i_glide_ecoul>  (353) 
-0.32219

>  <r_i_glide_erotb>  (353) 
0.260616

>  <r_i_glide_esite>  (353) 
-0.00517048

>  <r_i_glide_emodel>  (353) 
-24.1379

>  <r_i_glide_energy>  (353) 
-22.07

>  <r_i_glide_einternal>  (353) 
1.64858

>  <r_i_glide_intrahb_reward>  (353) 
-0

>  <i_i_glide_confnum>  (353) 
6

>  <i_i_glide_posenum>  (353) 
38

>  <r_i_glide_eff_state_penalty>  (353) 
0

>  <ligand_id>  (353) 
114

>  <original_smiles>  (353) 
Cc1ccc(C=CC2(C)OC3OOC4(C)CCC5C(C)CCC5C3(O2)O4)cc1

>  <smiles>  (353) 
[H]C(=C([H])C1(C([H])([H])[H])OC2([H])OOC3(C([H])([H])[H])OC2(O1)C1([H])C([H])([H])C([H])([H])C([H])(C([H])([H])[H])C1([H])C([H])([H])C3([H])[H])c1c([H])c([H])c(C([H])([H])[H])c([H])c1[H]

$$$$
114:1:2
     RDKit          3D

 58 62  0  0  1  0  0  0  0  0999 V2000
    4.1634   -2.3435   -3.7746 C   0  0  0  0  0  0  0  0  0  0  0  0
    4.5203   -2.4467   -2.3129 C   0  0  0  0  0  0  0  0  0  0  0  0
    3.4816   -2.3266   -1.3654 C   0  0  0  0  0  0  0  0  0  0  0  0
    3.7788   -2.3293   -0.0156 C   0  0  0  0  0  0  0  0  0  0  0  0
    5.0685   -2.6084    0.4635 C   0  0  0  0  0  0  0  0  0  0  0  0
    5.3505   -2.8292    1.8968 C   0  0  0  0  0  0  0  0  0  0  0  0
    4.5192   -3.2872    2.8854 C   0  0  0  0  0  0  0  0  0  0  0  0
    3.0750   -3.7298    2.8044 C   0  0  1  0  0  0  0  0  0  0  0  0
    2.1081   -2.6149    3.1916 C   0  0  0  0  0  0  0  0  0  0  0  0
    2.7059   -4.1702    1.5326 O   0  0  0  0  0  0  0  0  0  0  0  0
    2.2892   -5.4990    1.6509 C   0  0  1  0  0  0  0  0  0  0  0  0
    2.6855   -6.2997    0.5710 O   0  0  0  0  0  0  0  0  0  0  0  0
    4.1446   -6.4471    0.5776 O   0  0  0  0  0  0  0  0  0  0  0  0
    4.5566   -7.1360    1.7463 C   0  0  2  0  0  0  0  0  0  0  0  0
    6.0825   -7.0391    1.7283 C   0  0  0  0  0  0  0  0  0  0  0  0
    4.0851   -8.6097    1.8521 C   0  0  0  0  0  0  0  0  0  0  0  0
    2.5692   -8.8744    1.9066 C   0  0  0  0  0  0  0  0  0  0  0  0
    1.8471   -8.4542    3.2105 C   0  0  2  0  0  0  0  0  0  0  0  0
    0.3181   -8.6689    3.1488 C   0  0  1  0  0  0  0  0  0  0  0  0
   -0.1146  -10.1383    3.2741 C   0  0  0  0  0  0  0  0  0  0  0  0
   -0.2454   -7.7813    4.2608 C   0  0  0  0  0  0  0  0  0  0  0  0
    0.6415   -6.5353    4.2344 C   0  0  0  0  0  0  0  0  0  0  0  0
    2.0427   -7.0341    3.8200 C   0  0  2  0  0  0  0  0  0  0  0  0
    2.8486   -5.9991    3.0040 C   0  0  2  0  0  0  0  0  0  0  0  0
    2.8467   -4.8024    3.6942 O   0  0  0  0  0  0  0  0  0  0  0  0
    4.1813   -6.4299    2.9129 O   0  0  0  0  0  0  0  0  0  0  0  0
    6.1226   -2.7188   -0.4907 C   0  0  0  0  0  0  0  0  0  0  0  0
    5.8418   -2.6205   -1.8679 C   0  0  0  0  0  0  0  0  0  0  0  0
    3.9335   -3.3287   -4.1821 H   0  0  0  0  0  0  0  0  0  0  0  0
    4.9867   -1.8850   -4.3180 H   0  0  0  0  0  0  0  0  0  0  0  0
    3.2829   -1.7080   -3.9022 H   0  0  0  0  0  0  0  0  0  0  0  0
    2.4516   -2.2336   -1.6932 H   0  0  0  0  0  0  0  0  0  0  0  0
    2.9315   -2.1963    0.6613 H   0  0  0  0  0  0  0  0  0  0  0  0
    6.3529   -2.6063    2.2177 H   0  0  0  0  0  0  0  0  0  0  0  0
    4.9406   -3.3295    3.8787 H   0  0  0  0  0  0  0  0  0  0  0  0
    1.0731   -2.9490    3.0912 H   0  0  0  0  0  0  0  0  0  0  0  0
    2.2522   -1.7704    2.5270 H   0  0  0  0  0  0  0  0  0  0  0  0
    2.2982   -2.2744    4.2047 H   0  0  0  0  0  0  0  0  0  0  0  0
    1.1959   -5.5046    1.6938 H   0  0  0  0  0  0  0  0  0  0  0  0
    6.3837   -5.9978    1.6494 H   0  0  0  0  0  0  0  0  0  0  0  0
    6.5030   -7.5801    0.8851 H   0  0  0  0  0  0  0  0  0  0  0  0
    6.5045   -7.4503    2.6427 H   0  0  0  0  0  0  0  0  0  0  0  0
    4.5064   -9.1799    1.0256 H   0  0  0  0  0  0  0  0  0  0  0  0
    4.5312   -9.0370    2.7507 H   0  0  0  0  0  0  0  0  0  0  0  0
    2.0608   -8.4978    1.0240 H   0  0  0  0  0  0  0  0  0  0  0  0
    2.4459   -9.9508    1.8143 H   0  0  0  0  0  0  0  0  0  0  0  0
    2.2193   -9.1398    3.9797 H   0  0  0  0  0  0  0  0  0  0  0  0
   -0.0506   -8.2825    2.1972 H   0  0  0  0  0  0  0  0  0  0  0  0
    0.2403  -10.5861    4.2031 H   0  0  0  0  0  0  0  0  0  0  0  0
    0.2624  -10.7366    2.4450 H   0  0  0  0  0  0  0  0  0  0  0  0
   -1.2001  -10.2158    3.2653 H   0  0  0  0  0  0  0  0  0  0  0  0
   -1.3040   -7.5508    4.1188 H   0  0  0  0  0  0  0  0  0  0  0  0
   -0.1456   -8.2813    5.2249 H   0  0  0  0  0  0  0  0  0  0  0  0
    0.2246   -5.8087    3.5359 H   0  0  0  0  0  0  0  0  0  0  0  0
    0.6695   -6.0443    5.2069 H   0  0  0  0  0  0  0  0  0  0  0  0
    2.6055   -7.1829    4.7430 H   0  0  0  0  0  0  0  0  0  0  0  0
    7.1329   -2.8939   -0.1520 H   0  0  0  0  0  0  0  0  0  0  0  0
    6.6505   -2.6881   -2.5889 H   0  0  0  0  0  0  0  0  0  0  0  0
  1  2  1  0
  1 29  1  0
  1 30  1  0
  1 31  1  0
  2 28  2  0
  2  3  1  0
  3  4  2  0
  3 32  1  0
  4  5  1  0
  4 33  1  0
  5  6  1  0
  5 27  2  0
  6  7  2  3
  6 34  1  0
  7  8  1  0
  7 35  1  0
  8 25  1  0
  8  9  1  1
  8 10  1  0
  9 36  1  0
  9 37  1  0
  9 38  1  0
 10 11  1  0
 11 24  1  0
 11 12  1  0
 11 39  1  1
 12 13  1  0
 13 14  1  0
 14 26  1  0
 14 15  1  6
 14 16  1  0
 15 40  1  0
 15 41  1  0
 15 42  1  0
 16 17  1  0
 16 43  1  0
 16 44  1  0
 17 18  1  0
 17 45  1  0
 17 46  1  0
 18 23  1  0
 18 19  1  0
 18 47  1  1
 19 20  1  0
 19 21  1  0
 19 48  1  6
 20 49  1  0
 20 50  1  0
 20 51  1  0
 21 22  1  0
 21 52  1  0
 21 53  1  0
 22 23  1  0
 22 54  1  0
 22 55  1  0
 23 24  1  0
 23 56  1  1
 24 25  1  1
 24 26  1  0
 27 28  1  0
 27 57  1  0
 28 58  1  0
M  END
>  <i_m_ct_stereo_status>  (354) 
1

>  <s_m_source_file>  (354) 
/var/tmp/pbs.5076255.sched01/tmpux3k924y/120tsqzh4i4.sdf

>  <i_m_source_file_index>  (354) 
33

>  <i_lp_mmshare_version>  (354) 
48012

>  <i_f3d_flags>  (354) 
0

>  <s_epik_input>  (354) 
W0NIM11jMVtjSF1bY0hdYyhbY0hdW2NIXTEpL1tDSF09W0NIXS9bQ0BAXShPMikoW0NIM10pT1tDQEhdKFtDQEBdMjM0KU9PW0NAXShPNCkoW0NIM10pW0NIMl1bQ0gyXVtDQEhdNVtDQEBIXTNbQ0gyXVtDSDJdW0NAQEhdNVtDSDNd

>  <s_epik_cmdline>  (354) 
J2VwaWtfcHl0aG9uJywgJy1waHQnLCAnMi4wJywgJy1waCcsICc3LjAnLCAnLXRuJywgJzgnLCAnLW1hJywgJzIwMCcsICctaW1hZScsICc8aW5maWxlLm1hZT4nLCAnLW9tYWUnLCAnPG91dGZpbGUubWFlPic=

>  <r_lp_tautomer_probability>  (354) 
1

>  <r_epik_Ionization_Penalty>  (354) 
0

>  <r_epik_Ionization_Penalty_Charging>  (354) 
0

>  <r_epik_Ionization_Penalty_Neutral>  (354) 
0

>  <r_epik_State_Penalty>  (354) 
-0

>  <r_epik_Charging_Adjusted_Penalty>  (354) 
0

>  <i_epik_Tot_Q>  (354) 
0

>  <i_epik_Tot_abs_Q>  (354) 
0

>  <s_epik_Chemistry_Notes>  (354) 
This compound contains an acetal/aminal-like group ( X-CH(R)-Y where X, Y are N, S, or O) that may be acid/base labile, releasing an aldehyde.

>  <s_lp_Force_Field>  (354) 
OPLS3e

>  <r_lp_Energy>  (354) 
32.268

>  <b_lp_Chiralities_Consistent>  (354) 
1

>  <s_lp_Variant>  (354) 
114:0-2

>  <s_i_glide_gridfile>  (354) 
pfpi4k_grid

>  <i_i_glide_lignum>  (354) 
33

>  <i_i_glide_rotatable_bonds>  (354) 
2

>  <r_i_docking_score>  (354) 
-2.07985

>  <r_i_glide_ligand_efficiency>  (354) 
-0.0742803

>  <r_i_glide_ligand_efficiency_sa>  (354) 
-0.225559

>  <r_i_glide_ligand_efficiency_ln>  (354) 
-0.48009

>  <r_i_glide_gscore>  (354) 
-2.07985

>  <r_i_glide_lipo>  (354) 
-0.348895

>  <r_i_glide_hbond>  (354) 
0

>  <r_i_glide_metal>  (354) 
-0

>  <r_i_glide_rewards>  (354) 
-0.848634

>  <r_i_glide_evdw>  (354) 
-25.095

>  <r_i_glide_ecoul>  (354) 
0.934245

>  <r_i_glide_erotb>  (354) 
0.260616

>  <r_i_glide_esite>  (354) 
-0.0283232

>  <r_i_glide_emodel>  (354) 
-24.7314

>  <r_i_glide_energy>  (354) 
-24.1607

>  <r_i_glide_einternal>  (354) 
2.14435

>  <r_i_glide_intrahb_reward>  (354) 
-0

>  <i_i_glide_confnum>  (354) 
6

>  <i_i_glide_posenum>  (354) 
25

>  <r_i_glide_eff_state_penalty>  (354) 
0

>  <ligand_id>  (354) 
114

>  <original_smiles>  (354) 
Cc1ccc(C=CC2(C)OC3OOC4(C)CCC5C(C)CCC5C3(O2)O4)cc1

>  <smiles>  (354) 
[H]C(=C([H])C1(C([H])([H])[H])OC2([H])OOC3(C([H])([H])[H])OC2(O1)C1([H])C([H])([H])C([H])([H])C([H])(C([H])([H])[H])C1([H])C([H])([H])C3([H])[H])c1c([H])c([H])c(C([H])([H])[H])c([H])c1[H]

$$$$
115:0:0
     RDKit          3D

 70 76  0  0  1  0  0  0  0  0999 V2000
    3.7862    4.1238    5.2157 C   0  0  0  0  0  0  0  0  0  0  0  0
    3.7459    2.7341    4.9390 O   0  0  0  0  0  0  0  0  0  0  0  0
    2.6365    2.3024    4.2301 C   0  0  2  0  0  0  0  0  0  0  0  0
    1.4711    2.4435    4.9720 O   0  0  0  0  0  0  0  0  0  0  0  0
    1.0885    1.4508    5.8932 C   0  0  1  0  0  0  0  0  0  0  0  0
   -0.2835    1.3162    5.7745 O   0  0  0  0  0  0  0  0  0  0  0  0
   -0.4932    0.5148    4.6688 C   0  0  2  0  0  0  0  0  0  0  0  0
   -1.8374   -0.1669    4.8642 C   0  0  0  0  0  0  0  0  0  0  0  0
    0.4535   -0.4816    4.7583 O   0  0  0  0  0  0  0  0  0  0  0  0
    1.5254   -0.0188    5.5740 C   0  0  2  0  0  0  0  0  0  0  0  0
    1.5266   -0.8957    6.8429 C   0  0  1  0  0  0  0  0  0  0  0  0
    1.6126   -2.3907    6.4322 C   0  0  0  0  0  0  0  0  0  0  0  0
    2.7827   -2.7263    5.4732 C   0  0  0  0  0  0  0  0  0  0  0  0
    2.9044   -1.7165    4.3029 C   0  0  2  0  0  0  0  0  0  0  0  0
    4.0862   -1.9862    3.3838 C   0  0  0  0  0  0  0  0  0  0  0  0
    4.1483   -1.7078    2.0628 C   0  0  0  0  0  0  0  0  0  0  0  0
    3.0208   -1.3095    1.1290 C   0  0  1  0  0  0  0  0  0  0  0  0
    2.5521    0.1664    1.2428 C   0  0  0  0  0  0  0  0  0  0  0  0
    1.8413    0.4935    2.5524 C   0  0  2  0  0  0  0  0  0  0  0  0
    0.5792    1.3390    2.4551 C   0  0  0  0  0  0  0  0  0  0  0  0
   -0.4406    1.3482    3.3504 C   0  0  0  0  0  0  0  0  0  0  0  0
   -1.5963    2.3154    3.1379 C   0  0  0  0  0  0  0  0  0  0  0  0
    2.8593    0.8523    3.6788 C   0  0  2  0  0  0  0  0  0  0  0  0
    2.8864   -0.1980    4.8312 C   0  0  1  0  0  0  0  0  0  0  0  0
    4.1392   -0.0531    5.8202 C   0  0  1  0  0  0  0  0  0  0  0  0
    5.1978    0.7830    5.3486 O   0  0  0  0  0  0  0  0  0  0  0  0
    6.3900    0.1003    5.0020 C   0  0  0  0  0  0  0  0  0  0  0  0
    3.7793    0.3878    7.2294 C   0  0  0  0  0  0  0  0  0  0  0  0
    2.6557   -0.4838    7.8283 C   0  0  0  0  0  0  0  0  0  0  0  0
    3.5348   -1.5368   -0.1821 O   0  0  0  0  0  0  0  0  0  0  0  0
    4.8354   -1.8339   -0.1982 C   0  0  0  0  0  0  0  0  0  0  0  0
    5.5427   -1.9966   -1.1984 O   0  0  0  0  0  0  0  0  0  0  0  0
    5.4064   -1.8636    1.2297 C   0  0  1  0  0  0  0  0  0  0  0  0
    6.3479   -0.6830    1.3693 C   0  0  0  0  0  0  0  0  0  0  0  0
    4.7192    4.3379    5.7392 H   0  0  0  0  0  0  0  0  0  0  0  0
    2.9582    4.4215    5.8596 H   0  0  0  0  0  0  0  0  0  0  0  0
    3.7721    4.7162    4.2992 H   0  0  0  0  0  0  0  0  0  0  0  0
    2.5523    2.9663    3.3740 H   0  0  0  0  0  0  0  0  0  0  0  0
    1.3342    1.7769    6.8930 H   0  0  0  0  0  0  0  0  0  0  0  0
   -1.8196   -0.7872    5.7618 H   0  0  0  0  0  0  0  0  0  0  0  0
   -2.0769   -0.7889    4.0054 H   0  0  0  0  0  0  0  0  0  0  0  0
   -2.5584    0.6321    4.9866 H   0  0  0  0  0  0  0  0  0  0  0  0
    0.5753   -0.7717    7.3566 H   0  0  0  0  0  0  0  0  0  0  0  0
    1.6576   -3.0278    7.3157 H   0  0  0  0  0  0  0  0  0  0  0  0
    0.6908   -2.6696    5.9292 H   0  0  0  0  0  0  0  0  0  0  0  0
    3.6982   -2.8319    6.0610 H   0  0  0  0  0  0  0  0  0  0  0  0
    2.6350   -3.7203    5.0569 H   0  0  0  0  0  0  0  0  0  0  0  0
    2.0269   -1.9549    3.7164 H   0  0  0  0  0  0  0  0  0  0  0  0
    4.9583   -2.3960    3.8513 H   0  0  0  0  0  0  0  0  0  0  0  0
    2.1929   -1.9932    1.3082 H   0  0  0  0  0  0  0  0  0  0  0  0
    3.3574    0.8621    1.0224 H   0  0  0  0  0  0  0  0  0  0  0  0
    1.8069    0.3397    0.4821 H   0  0  0  0  0  0  0  0  0  0  0  0
    1.3236   -0.4410    2.6965 H   0  0  0  0  0  0  0  0  0  0  0  0
    0.5105    1.9866    1.5837 H   0  0  0  0  0  0  0  0  0  0  0  0
   -1.7441    2.9321    4.0251 H   0  0  0  0  0  0  0  0  0  0  0  0
   -2.5253    1.7890    2.9254 H   0  0  0  0  0  0  0  0  0  0  0  0
   -1.4056    2.9899    2.3001 H   0  0  0  0  0  0  0  0  0  0  0  0
    3.8438    0.8667    3.2309 H   0  0  0  0  0  0  0  0  0  0  0  0
    4.5889   -1.0291    5.9751 H   0  0  0  0  0  0  0  0  0  0  0  0
    7.0874    0.7235    4.4329 H   0  0  0  0  0  0  0  0  0  0  0  0
    6.1165   -0.7486    4.3796 H   0  0  0  0  0  0  0  0  0  0  0  0
    6.8963   -0.2712    5.8950 H   0  0  0  0  0  0  0  0  0  0  0  0
    4.6665    0.3209    7.8437 H   0  0  0  0  0  0  0  0  0  0  0  0
    3.4981    1.4276    7.2126 H   0  0  0  0  0  0  0  0  0  0  0  0
    2.2122    0.0636    8.6692 H   0  0  0  0  0  0  0  0  0  0  0  0
    3.0895   -1.3866    8.2663 H   0  0  0  0  0  0  0  0  0  0  0  0
    5.8998   -2.7993    1.4320 H   0  0  0  0  0  0  0  0  0  0  0  0
    5.8228    0.2596    1.1596 H   0  0  0  0  0  0  0  0  0  0  0  0
    7.2099   -0.7397    0.6881 H   0  0  0  0  0  0  0  0  0  0  0  0
    6.7569   -0.6511    2.3785 H   0  0  0  0  0  0  0  0  0  0  0  0
  1  2  1  0
  1 35  1  0
  1 36  1  0
  1 37  1  0
  2  3  1  0
  3 23  1  0
  3  4  1  0
  3 38  1  6
  4  5  1  0
  5 10  1  0
  5  6  1  0
  5 39  1  1
  6  7  1  0
  7 21  1  0
  7  8  1  1
  7  9  1  0
  8 40  1  0
  8 41  1  0
  8 42  1  0
 10  9  1  6
 24 10  1  1
 10 11  1  0
 11 29  1  0
 11 12  1  0
 11 43  1  1
 12 13  1  0
 12 44  1  0
 12 45  1  0
 13 14  1  0
 13 46  1  0
 13 47  1  0
 14 24  1  0
 14 15  1  0
 14 48  1  6
 15 16  2  3
 15 49  1  0
 16 33  1  0
 16 17  1  0
 17 18  1  0
 17 30  1  0
 17 50  1  1
 18 19  1  0
 18 51  1  0
 18 52  1  0
 19 20  1  0
 19 23  1  0
 19 53  1  1
 20 21  2  3
 20 54  1  0
 21 22  1  0
 22 55  1  0
 22 56  1  0
 22 57  1  0
 23 24  1  0
 23 58  1  6
 24 25  1  0
 25 26  1  0
 25 28  1  0
 25 59  1  1
 26 27  1  0
 27 60  1  0
 27 61  1  0
 27 62  1  0
 28 29  1  0
 28 63  1  0
 28 64  1  0
 29 65  1  0
 29 66  1  0
 30 31  1  0
 31 32  2  0
 31 33  1  0
 33 34  1  0
 33 67  1  1
 34 68  1  0
 34 69  1  0
 34 70  1  0
M  END
>  <i_m_ct_stereo_status>  (355) 
1

>  <s_m_source_file>  (355) 
/var/tmp/pbs.5076255.sched01/tmpux3k924y/120tsqzh4i4.sdf

>  <i_m_source_file_index>  (355) 
34

>  <i_lp_mmshare_version>  (355) 
48012

>  <i_f3d_flags>  (355) 
0

>  <s_epik_input>  (355) 
W0NIXVwxPUMoW0NIM10pXFtDQF0oTzIpKFtDSDNdKU9bQ0BASF0zT1tDQEBIXShPW0NIM10pW0NAQEhdNFtDQEBIXTFbQ0gyXVtDQEBIXShPQyg9TylbQ0BIXTVbQ0gzXSkvQzU9W0NIXVxbQ0BIXShbQ0BdNDZbQ0BdMjM3KVtDSDJdW0NIMl1bQ0BIXTdbQ0gyXVtDSDJdW0NAQEhdNk9bQ0gzXQ==

>  <s_epik_cmdline>  (355) 
J2VwaWtfcHl0aG9uJywgJy1waHQnLCAnMi4wJywgJy1waCcsICc3LjAnLCAnLXRuJywgJzgnLCAnLW1hJywgJzIwMCcsICctaW1hZScsICc8aW5maWxlLm1hZT4nLCAnLW9tYWUnLCAnPG91dGZpbGUubWFlPic=

>  <r_lp_tautomer_probability>  (355) 
1

>  <r_epik_Ionization_Penalty>  (355) 
4.59178e-12

>  <r_epik_Ionization_Penalty_Charging>  (355) 
0

>  <r_epik_Ionization_Penalty_Neutral>  (355) 
4.59178e-12

>  <r_epik_State_Penalty>  (355) 
-0

>  <r_epik_Charging_Adjusted_Penalty>  (355) 
0

>  <i_epik_Tot_Q>  (355) 
0

>  <i_epik_Tot_abs_Q>  (355) 
0

>  <s_epik_Chemistry_Notes>  (355) 
This compound has an ester and may undergo hydrolysis at high or low pH. This compound contains an acetal/aminal-like group ( X-CH(R)-Y where X, Y are N, S, or O) that may be acid/base labile, releasing an aldehyde.

>  <s_lp_Force_Field>  (355) 
OPLS3e

>  <r_lp_Energy>  (355) 
74.8351

>  <b_lp_Chiralities_Consistent>  (355) 
1

>  <s_lp_Variant>  (355) 
115:0-1

>  <s_i_glide_gridfile>  (355) 
pfpi4k_grid

>  <i_i_glide_lignum>  (355) 
34

>  <i_i_glide_rotatable_bonds>  (355) 
2

>  <r_i_docking_score>  (355) 
-1.78233

>  <r_i_glide_ligand_efficiency>  (355) 
-0.0524216

>  <r_i_glide_ligand_efficiency_sa>  (355) 
-0.169826

>  <r_i_glide_ligand_efficiency_ln>  (355) 
-0.393768

>  <r_i_glide_gscore>  (355) 
-1.78233

>  <r_i_glide_lipo>  (355) 
-0.224344

>  <r_i_glide_hbond>  (355) 
0

>  <r_i_glide_metal>  (355) 
-0

>  <r_i_glide_rewards>  (355) 
-0.187019

>  <r_i_glide_evdw>  (355) 
-22.9322

>  <r_i_glide_ecoul>  (355) 
-1.23762

>  <r_i_glide_erotb>  (355) 
0

>  <r_i_glide_esite>  (355) 
-0.0387178

>  <r_i_glide_emodel>  (355) 
-23.8841

>  <r_i_glide_energy>  (355) 
-24.1698

>  <r_i_glide_einternal>  (355) 
2.5609

>  <r_i_glide_intrahb_reward>  (355) 
-0

>  <i_i_glide_confnum>  (355) 
1

>  <i_i_glide_posenum>  (355) 
2

>  <r_i_glide_eff_state_penalty>  (355) 
0

>  <ligand_id>  (355) 
115

>  <original_smiles>  (355) 
COC1OC2OC3(C)OC24C2CCC5C=C6C(CC(C=C3C)C1C54C(OC)CC2)OC(=O)C6C

>  <smiles>  (355) 
[H]C1=C(C([H])([H])[H])C2(C([H])([H])[H])OC3([H])OC([H])(OC([H])([H])[H])C4([H])C1([H])C([H])([H])C1([H])OC(=O)C([H])(C([H])([H])[H])C1=C([H])C1([H])C([H])([H])C([H])([H])C5([H])C([H])([H])C([H])([H])C([H])(OC([H])([H])[H])C14C35O2

$$$$
115:0:1
     RDKit          3D

 70 76  0  0  1  0  0  0  0  0999 V2000
    0.3188   -3.1107    7.7740 C   0  0  0  0  0  0  0  0  0  0  0  0
    0.5016   -1.8145    7.2304 O   0  0  0  0  0  0  0  0  0  0  0  0
    0.9190   -1.7769    5.9050 C   0  0  2  0  0  0  0  0  0  0  0  0
    2.1351   -2.4336    5.7238 O   0  0  0  0  0  0  0  0  0  0  0  0
    3.3514   -1.7585    5.9404 C   0  0  1  0  0  0  0  0  0  0  0  0
    4.2172   -2.1796    4.9451 O   0  0  0  0  0  0  0  0  0  0  0  0
    3.8996   -1.4174    3.8271 C   0  0  2  0  0  0  0  0  0  0  0  0
    5.1532   -1.3307    2.9423 C   0  0  0  0  0  0  0  0  0  0  0  0
    3.6776   -0.1323    4.3075 O   0  0  0  0  0  0  0  0  0  0  0  0
    3.3497   -0.2173    5.6943 C   0  0  2  0  0  0  0  0  0  0  0  0
    4.4951    0.4785    6.4657 C   0  0  1  0  0  0  0  0  0  0  0  0
    4.6608    1.9262    5.9268 C   0  0  0  0  0  0  0  0  0  0  0  0
    3.3633    2.7714    5.9357 C   0  0  0  0  0  0  0  0  0  0  0  0
    2.1470    1.9751    5.3715 C   0  0  2  0  0  0  0  0  0  0  0  0
    0.8105    2.7150    5.4380 C   0  0  0  0  0  0  0  0  0  0  0  0
   -0.1907    2.6418    4.5304 C   0  0  0  0  0  0  0  0  0  0  0  0
   -0.1704    1.9715    3.1673 C   0  0  1  0  0  0  0  0  0  0  0  0
   -0.2977    0.4305    3.1659 C   0  0  0  0  0  0  0  0  0  0  0  0
    0.9316   -0.2746    3.7644 C   0  0  2  0  0  0  0  0  0  0  0  0
    1.4158   -1.5322    3.0565 C   0  0  0  0  0  0  0  0  0  0  0  0
    2.6811   -2.0283    3.0638 C   0  0  0  0  0  0  0  0  0  0  0  0
    2.9656   -3.3348    2.3419 C   0  0  0  0  0  0  0  0  0  0  0  0
    0.9023   -0.3185    5.3422 C   0  0  2  0  0  0  0  0  0  0  0  0
    2.0216    0.5325    6.0141 C   0  0  1  0  0  0  0  0  0  0  0  0
    1.7869    0.8081    7.5663 C   0  0  1  0  0  0  0  0  0  0  0  0
    0.4268    0.6072    7.9574 O   0  0  0  0  0  0  0  0  0  0  0  0
    0.0655    1.0339    9.2632 C   0  0  0  0  0  0  0  0  0  0  0  0
    2.8383    0.1363    8.4667 C   0  0  0  0  0  0  0  0  0  0  0  0
    4.2818    0.4460    8.0052 C   0  0  0  0  0  0  0  0  0  0  0  0
   -1.3182    2.4577    2.5102 O   0  0  0  0  0  0  0  0  0  0  0  0
   -2.0904    3.2232    3.2716 C   0  0  0  0  0  0  0  0  0  0  0  0
   -3.1274    3.7725    2.9088 O   0  0  0  0  0  0  0  0  0  0  0  0
   -1.5270    3.3226    4.6868 C   0  0  1  0  0  0  0  0  0  0  0  0
   -2.4280    2.5870    5.6916 C   0  0  0  0  0  0  0  0  0  0  0  0
   -0.0245   -3.0115    8.8027 H   0  0  0  0  0  0  0  0  0  0  0  0
    1.2514   -3.6738    7.7912 H   0  0  0  0  0  0  0  0  0  0  0  0
   -0.4316   -3.6766    7.2208 H   0  0  0  0  0  0  0  0  0  0  0  0
    0.1806   -2.3642    5.3540 H   0  0  0  0  0  0  0  0  0  0  0  0
    3.7495   -2.0543    6.9078 H   0  0  0  0  0  0  0  0  0  0  0  0
    5.9485   -0.8287    3.4932 H   0  0  0  0  0  0  0  0  0  0  0  0
    4.9335   -0.7534    2.0436 H   0  0  0  0  0  0  0  0  0  0  0  0
    5.5000   -2.3257    2.6607 H   0  0  0  0  0  0  0  0  0  0  0  0
    5.4315   -0.0386    6.2544 H   0  0  0  0  0  0  0  0  0  0  0  0
    5.4553    2.4484    6.4612 H   0  0  0  0  0  0  0  0  0  0  0  0
    5.0094    1.8656    4.8969 H   0  0  0  0  0  0  0  0  0  0  0  0
    3.2009    3.1601    6.9420 H   0  0  0  0  0  0  0  0  0  0  0  0
    3.5209    3.6641    5.3303 H   0  0  0  0  0  0  0  0  0  0  0  0
    2.3914    1.9456    4.3155 H   0  0  0  0  0  0  0  0  0  0  0  0
    0.6313    3.2751    6.3427 H   0  0  0  0  0  0  0  0  0  0  0  0
    0.7200    2.2895    2.6211 H   0  0  0  0  0  0  0  0  0  0  0  0
   -1.2117    0.1228    3.6754 H   0  0  0  0  0  0  0  0  0  0  0  0
   -0.4186    0.1408    2.1215 H   0  0  0  0  0  0  0  0  0  0  0  0
    1.6973    0.3721    3.3762 H   0  0  0  0  0  0  0  0  0  0  0  0
    0.6510   -2.0636    2.5072 H   0  0  0  0  0  0  0  0  0  0  0  0
    3.4524   -4.0347    3.0224 H   0  0  0  0  0  0  0  0  0  0  0  0
    3.6129   -3.1773    1.4788 H   0  0  0  0  0  0  0  0  0  0  0  0
    2.0477   -3.8067    1.9896 H   0  0  0  0  0  0  0  0  0  0  0  0
   -0.0597    0.0867    5.6451 H   0  0  0  0  0  0  0  0  0  0  0  0
    1.8991    1.8644    7.7835 H   0  0  0  0  0  0  0  0  0  0  0  0
   -1.0126    0.9336    9.3841 H   0  0  0  0  0  0  0  0  0  0  0  0
    0.3166    2.0812    9.4340 H   0  0  0  0  0  0  0  0  0  0  0  0
    0.5327    0.4224   10.0358 H   0  0  0  0  0  0  0  0  0  0  0  0
    2.7330    0.4737    9.4980 H   0  0  0  0  0  0  0  0  0  0  0  0
    2.6703   -0.9374    8.4905 H   0  0  0  0  0  0  0  0  0  0  0  0
    4.9497   -0.2998    8.4435 H   0  0  0  0  0  0  0  0  0  0  0  0
    4.5999    1.3991    8.4333 H   0  0  0  0  0  0  0  0  0  0  0  0
   -1.3953    4.3644    4.9728 H   0  0  0  0  0  0  0  0  0  0  0  0
   -2.5612    1.5461    5.3949 H   0  0  0  0  0  0  0  0  0  0  0  0
   -3.4168    3.0421    5.7548 H   0  0  0  0  0  0  0  0  0  0  0  0
   -1.9957    2.5833    6.6909 H   0  0  0  0  0  0  0  0  0  0  0  0
  1  2  1  0
  1 35  1  0
  1 36  1  0
  1 37  1  0
  2  3  1  0
  3 23  1  0
  3  4  1  0
  3 38  1  6
  4  5  1  0
  5 10  1  0
  5  6  1  0
  5 39  1  1
  6  7  1  0
  7 21  1  0
  7  8  1  6
  7  9  1  0
  8 40  1  0
  8 41  1  0
  8 42  1  0
 10  9  1  6
 24 10  1  1
 10 11  1  0
 11 29  1  0
 11 12  1  0
 11 43  1  1
 12 13  1  0
 12 44  1  0
 12 45  1  0
 13 14  1  0
 13 46  1  0
 13 47  1  0
 14 24  1  0
 14 15  1  0
 14 48  1  6
 15 16  2  3
 15 49  1  0
 16 33  1  0
 16 17  1  0
 17 18  1  0
 17 30  1  0
 17 50  1  6
 18 19  1  0
 18 51  1  0
 18 52  1  0
 19 20  1  0
 19 23  1  0
 19 53  1  1
 20 21  2  3
 20 54  1  0
 21 22  1  0
 22 55  1  0
 22 56  1  0
 22 57  1  0
 23 24  1  0
 23 58  1  1
 24 25  1  0
 25 26  1  0
 25 28  1  0
 25 59  1  6
 26 27  1  0
 27 60  1  0
 27 61  1  0
 27 62  1  0
 28 29  1  0
 28 63  1  0
 28 64  1  0
 29 65  1  0
 29 66  1  0
 30 31  1  0
 31 32  2  0
 31 33  1  0
 33 34  1  0
 33 67  1  1
 34 68  1  0
 34 69  1  0
 34 70  1  0
M  END
>  <i_m_ct_stereo_status>  (356) 
1

>  <s_m_source_file>  (356) 
/var/tmp/pbs.5076255.sched01/tmpux3k924y/120tsqzh4i4.sdf

>  <i_m_source_file_index>  (356) 
34

>  <i_lp_mmshare_version>  (356) 
48012

>  <i_f3d_flags>  (356) 
0

>  <s_epik_input>  (356) 
W0NIXVwxPUMoW0NIM10pXFtDQF0oTzIpKFtDSDNdKU9bQ0BASF0zT1tDQEBIXShPW0NIM10pW0NAQEhdNFtDQEBIXTFbQ0gyXVtDQEBIXShPQyg9TylbQ0BIXTVbQ0gzXSkvQzU9W0NIXVxbQ0BIXShbQ0BdNDZbQ0BdMjM3KVtDSDJdW0NIMl1bQ0BIXTdbQ0gyXVtDSDJdW0NAQEhdNk9bQ0gzXQ==

>  <s_epik_cmdline>  (356) 
J2VwaWtfcHl0aG9uJywgJy1waHQnLCAnMi4wJywgJy1waCcsICc3LjAnLCAnLXRuJywgJzgnLCAnLW1hJywgJzIwMCcsICctaW1hZScsICc8aW5maWxlLm1hZT4nLCAnLW9tYWUnLCAnPG91dGZpbGUubWFlPic=

>  <r_lp_tautomer_probability>  (356) 
1

>  <r_epik_Ionization_Penalty>  (356) 
4.59178e-12

>  <r_epik_Ionization_Penalty_Charging>  (356) 
0

>  <r_epik_Ionization_Penalty_Neutral>  (356) 
4.59178e-12

>  <r_epik_State_Penalty>  (356) 
-0

>  <r_epik_Charging_Adjusted_Penalty>  (356) 
0

>  <i_epik_Tot_Q>  (356) 
0

>  <i_epik_Tot_abs_Q>  (356) 
0

>  <s_epik_Chemistry_Notes>  (356) 
This compound has an ester and may undergo hydrolysis at high or low pH. This compound contains an acetal/aminal-like group ( X-CH(R)-Y where X, Y are N, S, or O) that may be acid/base labile, releasing an aldehyde.

>  <s_lp_Force_Field>  (356) 
OPLS3e

>  <r_lp_Energy>  (356) 
74.8351

>  <b_lp_Chiralities_Consistent>  (356) 
1

>  <s_lp_Variant>  (356) 
115:0-1

>  <s_i_glide_gridfile>  (356) 
pfpi4k_grid

>  <i_i_glide_lignum>  (356) 
34

>  <i_i_glide_rotatable_bonds>  (356) 
2

>  <r_i_docking_score>  (356) 
-1.72882

>  <r_i_glide_ligand_efficiency>  (356) 
-0.0508477

>  <r_i_glide_ligand_efficiency_sa>  (356) 
-0.164727

>  <r_i_glide_ligand_efficiency_ln>  (356) 
-0.381945

>  <r_i_glide_gscore>  (356) 
-1.72882

>  <r_i_glide_lipo>  (356) 
-0.151985

>  <r_i_glide_hbond>  (356) 
0

>  <r_i_glide_metal>  (356) 
-0

>  <r_i_glide_rewards>  (356) 
-0.187472

>  <r_i_glide_evdw>  (356) 
-20.161

>  <r_i_glide_ecoul>  (356) 
-2.12675

>  <r_i_glide_erotb>  (356) 
0

>  <r_i_glide_esite>  (356) 
-0.0623022

>  <r_i_glide_emodel>  (356) 
-24.5942

>  <r_i_glide_energy>  (356) 
-22.2877

>  <r_i_glide_einternal>  (356) 
0.0314495

>  <r_i_glide_intrahb_reward>  (356) 
-0

>  <i_i_glide_confnum>  (356) 
2

>  <i_i_glide_posenum>  (356) 
7

>  <r_i_glide_eff_state_penalty>  (356) 
0

>  <ligand_id>  (356) 
115

>  <original_smiles>  (356) 
COC1OC2OC3(C)OC24C2CCC5C=C6C(CC(C=C3C)C1C54C(OC)CC2)OC(=O)C6C

>  <smiles>  (356) 
[H]C1=C(C([H])([H])[H])C2(C([H])([H])[H])OC3([H])OC([H])(OC([H])([H])[H])C4([H])C1([H])C([H])([H])C1([H])OC(=O)C([H])(C([H])([H])[H])C1=C([H])C1([H])C([H])([H])C([H])([H])C5([H])C([H])([H])C([H])([H])C([H])(OC([H])([H])[H])C14C35O2

$$$$
115:0:2
     RDKit          3D

 70 76  0  0  1  0  0  0  0  0999 V2000
    0.8710   -1.3911    8.9762 C   0  0  0  0  0  0  0  0  0  0  0  0
    0.7970   -0.2700    8.1126 O   0  0  0  0  0  0  0  0  0  0  0  0
    1.1889   -0.4997    6.8006 C   0  0  2  0  0  0  0  0  0  0  0  0
    2.4979   -0.9695    6.7234 O   0  0  0  0  0  0  0  0  0  0  0  0
    3.5808   -0.0717    6.7111 C   0  0  1  0  0  0  0  0  0  0  0  0
    4.4990   -0.5799    5.8111 O   0  0  0  0  0  0  0  0  0  0  0  0
    4.0484   -0.1881    4.5560 C   0  0  2  0  0  0  0  0  0  0  0  0
    5.2645   -0.1276    3.6193 C   0  0  0  0  0  0  0  0  0  0  0  0
    3.6121    1.1227    4.7152 O   0  0  0  0  0  0  0  0  0  0  0  0
    3.3126    1.3360    6.0934 C   0  0  2  0  0  0  0  0  0  0  0  0
    4.3277    2.3798    6.6135 C   0  0  1  0  0  0  0  0  0  0  0  0
    4.2400    3.6574    5.7342 C   0  0  0  0  0  0  0  0  0  0  0  0
    2.8165    4.2492    5.5923 C   0  0  0  0  0  0  0  0  0  0  0  0
    1.7527    3.1465    5.3025 C   0  0  2  0  0  0  0  0  0  0  0  0
    0.3101    3.6487    5.2518 C   0  0  0  0  0  0  0  0  0  0  0  0
   -0.6640    3.1856    4.4371 C   0  0  0  0  0  0  0  0  0  0  0  0
   -0.5406    2.2110    3.2775 C   0  0  1  0  0  0  0  0  0  0  0  0
   -0.4092    0.7133    3.6643 C   0  0  0  0  0  0  0  0  0  0  0  0
    0.9252    0.3959    4.3596 C   0  0  2  0  0  0  0  0  0  0  0  0
    1.6128   -0.9010    3.9596 C   0  0  0  0  0  0  0  0  0  0  0  0
    2.9458   -1.1614    4.0274 C   0  0  0  0  0  0  0  0  0  0  0  0
    3.4453   -2.5418    3.6341 C   0  0  0  0  0  0  0  0  0  0  0  0
    0.9166    0.7477    5.8988 C   0  0  2  0  0  0  0  0  0  0  0  0
    1.8794    1.9115    6.2858 C   0  0  1  0  0  0  0  0  0  0  0  0
    1.6118    2.5267    7.7321 C   0  0  1  0  0  0  0  0  0  0  0  0
    0.3077    2.2106    8.2214 O   0  0  0  0  0  0  0  0  0  0  0  0
   -0.0908    2.8263    9.4385 C   0  0  0  0  0  0  0  0  0  0  0  0
    2.7686    2.2791    8.7174 C   0  0  0  0  0  0  0  0  0  0  0  0
    4.1341    2.6957    8.1222 C   0  0  0  0  0  0  0  0  0  0  0  0
   -1.7546    2.3384    2.5717 O   0  0  0  0  0  0  0  0  0  0  0  0
   -2.6453    3.1237    3.1755 C   0  0  0  0  0  0  0  0  0  0  0  0
   -3.7715    3.3850    2.7583 O   0  0  0  0  0  0  0  0  0  0  0  0
   -2.0906    3.6595    4.4911 C   0  0  1  0  0  0  0  0  0  0  0  0
   -2.8375    3.0759    5.6973 C   0  0  0  0  0  0  0  0  0  0  0  0
    0.5146   -1.0930    9.9622 H   0  0  0  0  0  0  0  0  0  0  0  0
    1.8971   -1.7437    9.0877 H   0  0  0  0  0  0  0  0  0  0  0  0
    0.2462   -2.2150    8.6279 H   0  0  0  0  0  0  0  0  0  0  0  0
    0.5561   -1.3186    6.4497 H   0  0  0  0  0  0  0  0  0  0  0  0
    4.0253   -0.0456    7.7018 H   0  0  0  0  0  0  0  0  0  0  0  0
    5.9715    0.6148    3.9904 H   0  0  0  0  0  0  0  0  0  0  0  0
    4.9413    0.1548    2.6168 H   0  0  0  0  0  0  0  0  0  0  0  0
    5.7703   -1.0930    3.5774 H   0  0  0  0  0  0  0  0  0  0  0  0
    5.3356    1.9851    6.4862 H   0  0  0  0  0  0  0  0  0  0  0  0
    4.9330    4.4192    6.0916 H   0  0  0  0  0  0  0  0  0  0  0  0
    4.5957    3.4083    4.7377 H   0  0  0  0  0  0  0  0  0  0  0  0
    2.5906    4.8475    6.4757 H   0  0  0  0  0  0  0  0  0  0  0  0
    2.8118    4.9696    4.7732 H   0  0  0  0  0  0  0  0  0  0  0  0
    1.9832    2.8930    4.2733 H   0  0  0  0  0  0  0  0  0  0  0  0
    0.0378    4.3770    5.9970 H   0  0  0  0  0  0  0  0  0  0  0  0
    0.2842    2.5249    2.6320 H   0  0  0  0  0  0  0  0  0  0  0  0
   -1.2525    0.4059    4.2827 H   0  0  0  0  0  0  0  0  0  0  0  0
   -0.4847    0.1323    2.7448 H   0  0  0  0  0  0  0  0  0  0  0  0
    1.5674    1.0424    3.7886 H   0  0  0  0  0  0  0  0  0  0  0  0
    0.9482   -1.6738    3.5959 H   0  0  0  0  0  0  0  0  0  0  0  0
    4.0466   -2.9589    4.4431 H   0  0  0  0  0  0  0  0  0  0  0  0
    4.0522   -2.4978    2.7305 H   0  0  0  0  0  0  0  0  0  0  0  0
    2.6181   -3.2298    3.4493 H   0  0  0  0  0  0  0  0  0  0  0  0
   -0.0990    1.0508    6.1417 H   0  0  0  0  0  0  0  0  0  0  0  0
    1.5418    3.6075    7.6799 H   0  0  0  0  0  0  0  0  0  0  0  0
   -1.1373    2.5887    9.6327 H   0  0  0  0  0  0  0  0  0  0  0  0
   -0.0005    3.9123    9.3911 H   0  0  0  0  0  0  0  0  0  0  0  0
    0.4823    2.4560   10.2894 H   0  0  0  0  0  0  0  0  0  0  0  0
    2.6161    2.8453    9.6363 H   0  0  0  0  0  0  0  0  0  0  0  0
    2.7824    1.2330    9.0133 H   0  0  0  0  0  0  0  0  0  0  0  0
    4.9246    2.2070    8.6953 H   0  0  0  0  0  0  0  0  0  0  0  0
    4.2819    3.7652    8.2830 H   0  0  0  0  0  0  0  0  0  0  0  0
   -2.1324    4.7432    4.4973 H   0  0  0  0  0  0  0  0  0  0  0  0
   -2.7368    1.9915    5.7014 H   0  0  0  0  0  0  0  0  0  0  0  0
   -3.8983    3.3349    5.6790 H   0  0  0  0  0  0  0  0  0  0  0  0
   -2.4245    3.4170    6.6441 H   0  0  0  0  0  0  0  0  0  0  0  0
  1  2  1  0
  1 35  1  0
  1 36  1  0
  1 37  1  0
  2  3  1  0
  3 23  1  0
  3  4  1  0
  3 38  1  6
  4  5  1  0
  5 10  1  0
  5  6  1  0
  5 39  1  1
  6  7  1  0
  7 21  1  0
  7  8  1  6
  7  9  1  0
  8 40  1  0
  8 41  1  0
  8 42  1  0
 10  9  1  6
 24 10  1  1
 10 11  1  0
 11 29  1  0
 11 12  1  0
 11 43  1  1
 12 13  1  0
 12 44  1  0
 12 45  1  0
 13 14  1  0
 13 46  1  0
 13 47  1  0
 14 24  1  0
 14 15  1  0
 14 48  1  6
 15 16  2  3
 15 49  1  0
 16 33  1  0
 16 17  1  0
 17 18  1  0
 17 30  1  0
 17 50  1  6
 18 19  1  0
 18 51  1  0
 18 52  1  0
 19 20  1  0
 19 23  1  0
 19 53  1  6
 20 21  2  3
 20 54  1  0
 21 22  1  0
 22 55  1  0
 22 56  1  0
 22 57  1  0
 23 24  1  0
 23 58  1  1
 24 25  1  0
 25 26  1  0
 25 28  1  0
 25 59  1  6
 26 27  1  0
 27 60  1  0
 27 61  1  0
 27 62  1  0
 28 29  1  0
 28 63  1  0
 28 64  1  0
 29 65  1  0
 29 66  1  0
 30 31  1  0
 31 32  2  0
 31 33  1  0
 33 34  1  0
 33 67  1  6
 34 68  1  0
 34 69  1  0
 34 70  1  0
M  END
>  <i_m_ct_stereo_status>  (357) 
1

>  <s_m_source_file>  (357) 
/var/tmp/pbs.5076255.sched01/tmpux3k924y/120tsqzh4i4.sdf

>  <i_m_source_file_index>  (357) 
34

>  <i_lp_mmshare_version>  (357) 
48012

>  <i_f3d_flags>  (357) 
0

>  <s_epik_input>  (357) 
W0NIXVwxPUMoW0NIM10pXFtDQF0oTzIpKFtDSDNdKU9bQ0BASF0zT1tDQEBIXShPW0NIM10pW0NAQEhdNFtDQEBIXTFbQ0gyXVtDQEBIXShPQyg9TylbQ0BIXTVbQ0gzXSkvQzU9W0NIXVxbQ0BIXShbQ0BdNDZbQ0BdMjM3KVtDSDJdW0NIMl1bQ0BIXTdbQ0gyXVtDSDJdW0NAQEhdNk9bQ0gzXQ==

>  <s_epik_cmdline>  (357) 
J2VwaWtfcHl0aG9uJywgJy1waHQnLCAnMi4wJywgJy1waCcsICc3LjAnLCAnLXRuJywgJzgnLCAnLW1hJywgJzIwMCcsICctaW1hZScsICc8aW5maWxlLm1hZT4nLCAnLW9tYWUnLCAnPG91dGZpbGUubWFlPic=

>  <r_lp_tautomer_probability>  (357) 
1

>  <r_epik_Ionization_Penalty>  (357) 
4.59178e-12

>  <r_epik_Ionization_Penalty_Charging>  (357) 
0

>  <r_epik_Ionization_Penalty_Neutral>  (357) 
4.59178e-12

>  <r_epik_State_Penalty>  (357) 
-0

>  <r_epik_Charging_Adjusted_Penalty>  (357) 
0

>  <i_epik_Tot_Q>  (357) 
0

>  <i_epik_Tot_abs_Q>  (357) 
0

>  <s_epik_Chemistry_Notes>  (357) 
This compound has an ester and may undergo hydrolysis at high or low pH. This compound contains an acetal/aminal-like group ( X-CH(R)-Y where X, Y are N, S, or O) that may be acid/base labile, releasing an aldehyde.

>  <s_lp_Force_Field>  (357) 
OPLS3e

>  <r_lp_Energy>  (357) 
74.8351

>  <b_lp_Chiralities_Consistent>  (357) 
1

>  <s_lp_Variant>  (357) 
115:0-1

>  <s_i_glide_gridfile>  (357) 
pfpi4k_grid

>  <i_i_glide_lignum>  (357) 
34

>  <i_i_glide_rotatable_bonds>  (357) 
2

>  <r_i_docking_score>  (357) 
-1.36684

>  <r_i_glide_ligand_efficiency>  (357) 
-0.0402012

>  <r_i_glide_ligand_efficiency_sa>  (357) 
-0.130236

>  <r_i_glide_ligand_efficiency_ln>  (357) 
-0.301974

>  <r_i_glide_gscore>  (357) 
-1.36684

>  <r_i_glide_lipo>  (357) 
-0.139774

>  <r_i_glide_hbond>  (357) 
0

>  <r_i_glide_metal>  (357) 
-0

>  <r_i_glide_rewards>  (357) 
-0.188605

>  <r_i_glide_evdw>  (357) 
-20.0574

>  <r_i_glide_ecoul>  (357) 
0.0875825

>  <r_i_glide_erotb>  (357) 
0

>  <r_i_glide_esite>  (357) 
-0.0487308

>  <r_i_glide_emodel>  (357) 
-21.7542

>  <r_i_glide_energy>  (357) 
-19.9698

>  <r_i_glide_einternal>  (357) 
0.0543145

>  <r_i_glide_intrahb_reward>  (357) 
-0

>  <i_i_glide_confnum>  (357) 
1

>  <i_i_glide_posenum>  (357) 
24

>  <r_i_glide_eff_state_penalty>  (357) 
0

>  <ligand_id>  (357) 
115

>  <original_smiles>  (357) 
COC1OC2OC3(C)OC24C2CCC5C=C6C(CC(C=C3C)C1C54C(OC)CC2)OC(=O)C6C

>  <smiles>  (357) 
[H]C1=C(C([H])([H])[H])C2(C([H])([H])[H])OC3([H])OC([H])(OC([H])([H])[H])C4([H])C1([H])C([H])([H])C1([H])OC(=O)C([H])(C([H])([H])[H])C1=C([H])C1([H])C([H])([H])C([H])([H])C5([H])C([H])([H])C([H])([H])C([H])(OC([H])([H])[H])C14C35O2

$$$$
115:1:0
     RDKit          3D

 70 76  0  0  1  0  0  0  0  0999 V2000
    0.8161   -2.6682    4.3211 C   0  0  0  0  0  0  0  0  0  0  0  0
    1.8139   -2.8990    3.3401 O   0  0  0  0  0  0  0  0  0  0  0  0
    2.2086   -4.2303    3.1950 C   0  0  2  0  0  0  0  0  0  0  0  0
    2.7809   -4.7172    4.3822 O   0  0  0  0  0  0  0  0  0  0  0  0
    3.4172   -5.9667    4.3209 C   0  0  1  0  0  0  0  0  0  0  0  0
    2.5524   -7.0117    4.0600 O   0  0  0  0  0  0  0  0  0  0  0  0
    2.7785   -7.4827    2.7780 C   0  0  2  0  0  0  0  0  0  0  0  0
    2.9508   -9.0059    2.8654 C   0  0  0  0  0  0  0  0  0  0  0  0
    4.0151   -7.0038    2.3433 O   0  0  0  0  0  0  0  0  0  0  0  0
    4.5062   -6.0117    3.2342 C   0  0  2  0  0  0  0  0  0  0  0  0
    5.8691   -6.4863    3.7929 C   0  0  1  0  0  0  0  0  0  0  0  0
    6.8716   -6.6662    2.6273 C   0  0  0  0  0  0  0  0  0  0  0  0
    7.0568   -5.3785    1.7960 C   0  0  0  0  0  0  0  0  0  0  0  0
    5.6894   -4.8245    1.3188 C   0  0  2  0  0  0  0  0  0  0  0  0
    5.8059   -3.5524    0.4792 C   0  0  0  0  0  0  0  0  0  0  0  0
    5.0350   -3.2223   -0.5804 C   0  0  0  0  0  0  0  0  0  0  0  0
    3.9993   -4.0769   -1.2701 C   0  0  1  0  0  0  0  0  0  0  0  0
    2.6434   -4.2175   -0.5223 C   0  0  0  0  0  0  0  0  0  0  0  0
    2.7420   -5.0949    0.7452 C   0  0  2  0  0  0  0  0  0  0  0  0
    1.6001   -6.0674    0.9771 C   0  0  0  0  0  0  0  0  0  0  0  0
    1.5942   -7.0805    1.8688 C   0  0  0  0  0  0  0  0  0  0  0  0
    0.3211   -7.8839    2.0563 C   0  0  0  0  0  0  0  0  0  0  0  0
    3.2283   -4.2656    1.9952 C   0  0  2  0  0  0  0  0  0  0  0  0
    4.6676   -4.6358    2.5178 C   0  0  1  0  0  0  0  0  0  0  0  0
    5.3289   -3.5540    3.4913 C   0  0  1  0  0  0  0  0  0  0  0  0
    4.5323   -2.4158    3.8179 O   0  0  0  0  0  0  0  0  0  0  0  0
    4.6540   -1.3242    2.9160 C   0  0  0  0  0  0  0  0  0  0  0  0
    5.7991   -4.0983    4.8645 C   0  0  0  0  0  0  0  0  0  0  0  0
    6.4326   -5.5083    4.8519 C   0  0  0  0  0  0  0  0  0  0  0  0
    3.7511   -3.4312   -2.5124 O   0  0  0  0  0  0  0  0  0  0  0  0
    4.3619   -2.2589   -2.6262 C   0  0  0  0  0  0  0  0  0  0  0  0
    4.2992   -1.5065   -3.6076 O   0  0  0  0  0  0  0  0  0  0  0  0
    5.1667   -1.9465   -1.3736 C   0  0  1  0  0  0  0  0  0  0  0  0
    4.5538   -0.7420   -0.6566 C   0  0  0  0  0  0  0  0  0  0  0  0
    0.5956   -1.6021    4.3557 H   0  0  0  0  0  0  0  0  0  0  0  0
    1.1502   -2.9665    5.3150 H   0  0  0  0  0  0  0  0  0  0  0  0
   -0.1107   -3.1911    4.0855 H   0  0  0  0  0  0  0  0  0  0  0  0
    1.2824   -4.7727    3.0359 H   0  0  0  0  0  0  0  0  0  0  0  0
    3.8133   -6.1679    5.3152 H   0  0  0  0  0  0  0  0  0  0  0  0
    3.8297   -9.2401    3.4672 H   0  0  0  0  0  0  0  0  0  0  0  0
    3.0908   -9.4278    1.8678 H   0  0  0  0  0  0  0  0  0  0  0  0
    2.0818   -9.4645    3.3371 H   0  0  0  0  0  0  0  0  0  0  0  0
    5.7329   -7.4621    4.2626 H   0  0  0  0  0  0  0  0  0  0  0  0
    7.8279   -7.0282    3.0090 H   0  0  0  0  0  0  0  0  0  0  0  0
    6.5081   -7.4586    1.9759 H   0  0  0  0  0  0  0  0  0  0  0  0
    7.6170   -4.6590    2.3835 H   0  0  0  0  0  0  0  0  0  0  0  0
    7.6896   -5.5981    0.9371 H   0  0  0  0  0  0  0  0  0  0  0  0
    5.3840   -5.6011    0.6250 H   0  0  0  0  0  0  0  0  0  0  0  0
    6.5453   -2.8286    0.7890 H   0  0  0  0  0  0  0  0  0  0  0  0
    4.4791   -5.0419   -1.4458 H   0  0  0  0  0  0  0  0  0  0  0  0
    2.2490   -3.2256   -0.2933 H   0  0  0  0  0  0  0  0  0  0  0  0
    1.9155   -4.6631   -1.1976 H   0  0  0  0  0  0  0  0  0  0  0  0
    3.4556   -5.8409    0.4345 H   0  0  0  0  0  0  0  0  0  0  0  0
    0.7218   -5.9029    0.3734 H   0  0  0  0  0  0  0  0  0  0  0  0
    0.0546   -7.9174    3.1149 H   0  0  0  0  0  0  0  0  0  0  0  0
    0.4608   -8.8937    1.6821 H   0  0  0  0  0  0  0  0  0  0  0  0
   -0.5121   -7.4389    1.5135 H   0  0  0  0  0  0  0  0  0  0  0  0
    3.2437   -3.2469    1.6283 H   0  0  0  0  0  0  0  0  0  0  0  0
    6.2127   -3.1567    3.0020 H   0  0  0  0  0  0  0  0  0  0  0  0
    3.9195   -0.5436    3.1237 H   0  0  0  0  0  0  0  0  0  0  0  0
    4.4777   -1.6628    1.9040 H   0  0  0  0  0  0  0  0  0  0  0  0
    5.6521   -0.8852    2.9350 H   0  0  0  0  0  0  0  0  0  0  0  0
    6.4824   -3.3826    5.3169 H   0  0  0  0  0  0  0  0  0  0  0  0
    4.9441   -4.1124    5.5428 H   0  0  0  0  0  0  0  0  0  0  0  0
    6.3100   -5.9499    5.8470 H   0  0  0  0  0  0  0  0  0  0  0  0
    7.5057   -5.4192    4.7082 H   0  0  0  0  0  0  0  0  0  0  0  0
    6.2017   -1.7520   -1.6401 H   0  0  0  0  0  0  0  0  0  0  0  0
    3.5235   -0.9424   -0.3421 H   0  0  0  0  0  0  0  0  0  0  0  0
    4.5202    0.1212   -1.3460 H   0  0  0  0  0  0  0  0  0  0  0  0
    5.1422   -0.4492    0.2190 H   0  0  0  0  0  0  0  0  0  0  0  0
  1  2  1  0
  1 35  1  0
  1 36  1  0
  1 37  1  0
  2  3  1  0
  3 23  1  0
  3  4  1  0
  3 38  1  6
  4  5  1  0
  5 10  1  0
  5  6  1  0
  5 39  1  1
  6  7  1  0
  7 21  1  0
  7  8  1  1
  7  9  1  0
  8 40  1  0
  8 41  1  0
  8 42  1  0
 10  9  1  6
 24 10  1  1
 10 11  1  0
 11 29  1  0
 11 12  1  0
 11 43  1  1
 12 13  1  0
 12 44  1  0
 12 45  1  0
 13 14  1  0
 13 46  1  0
 13 47  1  0
 14 24  1  0
 14 15  1  0
 14 48  1  6
 15 16  2  3
 15 49  1  0
 16 33  1  0
 16 17  1  0
 17 18  1  0
 17 30  1  0
 17 50  1  6
 18 19  1  0
 18 51  1  0
 18 52  1  0
 19 20  1  0
 19 23  1  0
 19 53  1  6
 20 21  2  3
 20 54  1  0
 21 22  1  0
 22 55  1  0
 22 56  1  0
 22 57  1  0
 23 24  1  0
 23 58  1  6
 24 25  1  0
 25 26  1  0
 25 28  1  0
 25 59  1  6
 26 27  1  0
 27 60  1  0
 27 61  1  0
 27 62  1  0
 28 29  1  0
 28 63  1  0
 28 64  1  0
 29 65  1  0
 29 66  1  0
 30 31  1  0
 31 32  2  0
 31 33  1  0
 33 34  1  0
 33 67  1  6
 34 68  1  0
 34 69  1  0
 34 70  1  0
M  END
>  <i_m_ct_stereo_status>  (358) 
1

>  <s_m_source_file>  (358) 
/var/tmp/pbs.5076255.sched01/tmpux3k924y/120tsqzh4i4.sdf

>  <i_m_source_file_index>  (358) 
35

>  <i_lp_mmshare_version>  (358) 
48012

>  <i_f3d_flags>  (358) 
0

>  <s_epik_input>  (358) 
W0NIXVwxPUMoW0NIM10pXFtDQF0oTzIpKFtDSDNdKU9bQ0BASF0zT1tDQEBIXShPW0NIM10pW0NAQEhdNFtDQEBIXTFbQ0gyXVtDQEBIXShPQyg9TylbQ0BIXTVbQ0gzXSkvQzU9W0NIXVxbQ0BIXShbQ0BdNDZbQ0BdMjM3KVtDSDJdW0NIMl1bQ0BIXTdbQ0gyXVtDSDJdW0NAQEhdNk9bQ0gzXQ==

>  <s_epik_cmdline>  (358) 
J2VwaWtfcHl0aG9uJywgJy1waHQnLCAnMi4wJywgJy1waCcsICc3LjAnLCAnLXRuJywgJzgnLCAnLW1hJywgJzIwMCcsICctaW1hZScsICc8aW5maWxlLm1hZT4nLCAnLW9tYWUnLCAnPG91dGZpbGUubWFlPic=

>  <r_lp_tautomer_probability>  (358) 
1

>  <r_epik_Ionization_Penalty>  (358) 
4.59178e-12

>  <r_epik_Ionization_Penalty_Charging>  (358) 
0

>  <r_epik_Ionization_Penalty_Neutral>  (358) 
4.59178e-12

>  <r_epik_State_Penalty>  (358) 
-0

>  <r_epik_Charging_Adjusted_Penalty>  (358) 
0

>  <i_epik_Tot_Q>  (358) 
0

>  <i_epik_Tot_abs_Q>  (358) 
0

>  <s_epik_Chemistry_Notes>  (358) 
This compound has an ester and may undergo hydrolysis at high or low pH. This compound contains an acetal/aminal-like group ( X-CH(R)-Y where X, Y are N, S, or O) that may be acid/base labile, releasing an aldehyde.

>  <s_lp_Force_Field>  (358) 
OPLS3e

>  <r_lp_Energy>  (358) 
70.7128

>  <b_lp_Chiralities_Consistent>  (358) 
1

>  <s_lp_Variant>  (358) 
115:0-2

>  <s_i_glide_gridfile>  (358) 
pfpi4k_grid

>  <i_i_glide_lignum>  (358) 
35

>  <i_i_glide_rotatable_bonds>  (358) 
2

>  <r_i_docking_score>  (358) 
-2.04753

>  <r_i_glide_ligand_efficiency>  (358) 
-0.0602215

>  <r_i_glide_ligand_efficiency_sa>  (358) 
-0.195094

>  <r_i_glide_ligand_efficiency_ln>  (358) 
-0.452357

>  <r_i_glide_gscore>  (358) 
-2.04753

>  <r_i_glide_lipo>  (358) 
-0.38988

>  <r_i_glide_hbond>  (358) 
0

>  <r_i_glide_metal>  (358) 
-0

>  <r_i_glide_rewards>  (358) 
-0.332294

>  <r_i_glide_evdw>  (358) 
-24.5193

>  <r_i_glide_ecoul>  (358) 
-0.630145

>  <r_i_glide_erotb>  (358) 
0

>  <r_i_glide_esite>  (358) 
-0.00487381

>  <r_i_glide_emodel>  (358) 
-27.1456

>  <r_i_glide_energy>  (358) 
-25.1494

>  <r_i_glide_einternal>  (358) 
1.13421

>  <r_i_glide_intrahb_reward>  (358) 
-0

>  <i_i_glide_confnum>  (358) 
1

>  <i_i_glide_posenum>  (358) 
35

>  <r_i_glide_eff_state_penalty>  (358) 
0

>  <ligand_id>  (358) 
115

>  <original_smiles>  (358) 
COC1OC2OC3(C)OC24C2CCC5C=C6C(CC(C=C3C)C1C54C(OC)CC2)OC(=O)C6C

>  <smiles>  (358) 
[H]C1=C(C([H])([H])[H])C2(C([H])([H])[H])OC3([H])OC([H])(OC([H])([H])[H])C4([H])C1([H])C([H])([H])C1([H])OC(=O)C([H])(C([H])([H])[H])C1=C([H])C1([H])C([H])([H])C([H])([H])C5([H])C([H])([H])C([H])([H])C([H])(OC([H])([H])[H])C14C35O2

$$$$
115:1:1
     RDKit          3D

 70 76  0  0  1  0  0  0  0  0999 V2000
   -0.1118   -6.8425    1.8520 C   0  0  0  0  0  0  0  0  0  0  0  0
    0.9521   -5.9818    2.2282 O   0  0  0  0  0  0  0  0  0  0  0  0
    1.9421   -6.5719    3.0201 C   0  0  2  0  0  0  0  0  0  0  0  0
    1.5064   -6.7360    4.3436 O   0  0  0  0  0  0  0  0  0  0  0  0
    2.4693   -7.1584    5.2821 C   0  0  1  0  0  0  0  0  0  0  0  0
    2.9556   -8.4341    5.0746 O   0  0  0  0  0  0  0  0  0  0  0  0
    4.2674   -8.3556    4.6310 C   0  0  2  0  0  0  0  0  0  0  0  0
    5.1041   -9.3081    5.5059 C   0  0  0  0  0  0  0  0  0  0  0  0
    4.7678   -7.0765    4.9052 O   0  0  0  0  0  0  0  0  0  0  0  0
    3.7060   -6.2266    5.3092 C   0  0  2  0  0  0  0  0  0  0  0  0
    4.0214   -5.7003    6.7323 C   0  0  1  0  0  0  0  0  0  0  0  0
    5.3537   -4.9096    6.7068 C   0  0  0  0  0  0  0  0  0  0  0  0
    5.3248   -3.7308    5.7103 C   0  0  0  0  0  0  0  0  0  0  0  0
    4.9043   -4.2201    4.3031 C   0  0  2  0  0  0  0  0  0  0  0  0
    4.8848   -3.1191    3.2400 C   0  0  0  0  0  0  0  0  0  0  0  0
    5.2447   -3.2449    1.9441 C   0  0  0  0  0  0  0  0  0  0  0  0
    5.8913   -4.4427    1.2744 C   0  0  1  0  0  0  0  0  0  0  0  0
    4.9269   -5.6135    0.9557 C   0  0  0  0  0  0  0  0  0  0  0  0
    4.4434   -6.3534    2.2175 C   0  0  2  0  0  0  0  0  0  0  0  0
    4.3929   -7.8659    2.0988 C   0  0  0  0  0  0  0  0  0  0  0  0
    4.3077   -8.7373    3.1332 C   0  0  0  0  0  0  0  0  0  0  0  0
    4.1810  -10.2229    2.8367 C   0  0  0  0  0  0  0  0  0  0  0  0
    3.2185   -5.6473    2.9297 C   0  0  2  0  0  0  0  0  0  0  0  0
    3.5409   -5.0246    4.3386 C   0  0  1  0  0  0  0  0  0  0  0  0
    2.4433   -3.9915    4.8604 C   0  0  1  0  0  0  0  0  0  0  0  0
    1.3661   -3.8551    3.9374 O   0  0  0  0  0  0  0  0  0  0  0  0
    0.5391   -2.7123    4.1031 C   0  0  0  0  0  0  0  0  0  0  0  0
    1.8724   -4.2886    6.2721 C   0  0  0  0  0  0  0  0  0  0  0  0
    2.8868   -4.8181    7.3065 C   0  0  0  0  0  0  0  0  0  0  0  0
    6.3872   -3.9393    0.0485 O   0  0  0  0  0  0  0  0  0  0  0  0
    6.0146   -2.6768   -0.2065 C   0  0  0  0  0  0  0  0  0  0  0  0
    6.3115   -2.0178   -1.2027 O   0  0  0  0  0  0  0  0  0  0  0  0
    5.1523   -2.1370    0.9272 C   0  0  1  0  0  0  0  0  0  0  0  0
    3.7070   -1.8988    0.4635 C   0  0  0  0  0  0  0  0  0  0  0  0
   -0.8276   -6.2709    1.2619 H   0  0  0  0  0  0  0  0  0  0  0  0
   -0.6358   -7.2466    2.7196 H   0  0  0  0  0  0  0  0  0  0  0  0
    0.2453   -7.6631    1.2264 H   0  0  0  0  0  0  0  0  0  0  0  0
    2.0711   -7.5682    2.6134 H   0  0  0  0  0  0  0  0  0  0  0  0
    1.9720   -7.2026    6.2485 H   0  0  0  0  0  0  0  0  0  0  0  0
    5.0864   -8.9646    6.5403 H   0  0  0  0  0  0  0  0  0  0  0  0
    6.1396   -9.3234    5.1649 H   0  0  0  0  0  0  0  0  0  0  0  0
    4.6973  -10.3202    5.4824 H   0  0  0  0  0  0  0  0  0  0  0  0
    4.1640   -6.5493    7.4009 H   0  0  0  0  0  0  0  0  0  0  0  0
    5.6078   -4.5569    7.7072 H   0  0  0  0  0  0  0  0  0  0  0  0
    6.1622   -5.5869    6.4313 H   0  0  0  0  0  0  0  0  0  0  0  0
    4.6669   -2.9462    6.0854 H   0  0  0  0  0  0  0  0  0  0  0  0
    6.3144   -3.2768    5.6602 H   0  0  0  0  0  0  0  0  0  0  0  0
    5.7442   -4.8513    4.0402 H   0  0  0  0  0  0  0  0  0  0  0  0
    4.4840   -2.1674    3.5519 H   0  0  0  0  0  0  0  0  0  0  0  0
    6.7284   -4.7871    1.8862 H   0  0  0  0  0  0  0  0  0  0  0  0
    4.0785   -5.2670    0.3673 H   0  0  0  0  0  0  0  0  0  0  0  0
    5.4628   -6.3131    0.3169 H   0  0  0  0  0  0  0  0  0  0  0  0
    5.3351   -6.3283    2.8230 H   0  0  0  0  0  0  0  0  0  0  0  0
    4.3904   -8.2534    1.0891 H   0  0  0  0  0  0  0  0  0  0  0  0
    3.3170  -10.6358    3.3593 H   0  0  0  0  0  0  0  0  0  0  0  0
    5.0721  -10.7727    3.1409 H   0  0  0  0  0  0  0  0  0  0  0  0
    4.0288  -10.3891    1.7702 H   0  0  0  0  0  0  0  0  0  0  0  0
    2.9285   -4.8169    2.2856 H   0  0  0  0  0  0  0  0  0  0  0  0
    2.8809   -2.9971    4.9096 H   0  0  0  0  0  0  0  0  0  0  0  0
   -0.1721   -2.6585    3.2817 H   0  0  0  0  0  0  0  0  0  0  0  0
    1.1147   -1.7861    4.0911 H   0  0  0  0  0  0  0  0  0  0  0  0
   -0.0474   -2.7651    5.0206 H   0  0  0  0  0  0  0  0  0  0  0  0
    1.4030   -3.3915    6.6753 H   0  0  0  0  0  0  0  0  0  0  0  0
    1.0619   -5.0092    6.1801 H   0  0  0  0  0  0  0  0  0  0  0  0
    2.3367   -5.3905    8.0572 H   0  0  0  0  0  0  0  0  0  0  0  0
    3.3143   -3.9746    7.8484 H   0  0  0  0  0  0  0  0  0  0  0  0
    5.5950   -1.2218    1.3133 H   0  0  0  0  0  0  0  0  0  0  0  0
    3.2645   -2.8120    0.0607 H   0  0  0  0  0  0  0  0  0  0  0  0
    3.6495   -1.1395   -0.3183 H   0  0  0  0  0  0  0  0  0  0  0  0
    3.0752   -1.5652    1.2872 H   0  0  0  0  0  0  0  0  0  0  0  0
  1  2  1  0
  1 35  1  0
  1 36  1  0
  1 37  1  0
  2  3  1  0
  3 23  1  0
  3  4  1  0
  3 38  1  6
  4  5  1  0
  5 10  1  0
  5  6  1  0
  5 39  1  1
  6  7  1  0
  7 21  1  0
  7  8  1  1
  7  9  1  0
  8 40  1  0
  8 41  1  0
  8 42  1  0
 10  9  1  6
 24 10  1  1
 10 11  1  0
 11 29  1  0
 11 12  1  0
 11 43  1  1
 12 13  1  0
 12 44  1  0
 12 45  1  0
 13 14  1  0
 13 46  1  0
 13 47  1  0
 14 24  1  0
 14 15  1  0
 14 48  1  6
 15 16  2  3
 15 49  1  0
 16 33  1  0
 16 17  1  0
 17 18  1  0
 17 30  1  0
 17 50  1  1
 18 19  1  0
 18 51  1  0
 18 52  1  0
 19 20  1  0
 19 23  1  0
 19 53  1  1
 20 21  2  3
 20 54  1  0
 21 22  1  0
 22 55  1  0
 22 56  1  0
 22 57  1  0
 23 24  1  0
 23 58  1  6
 24 25  1  0
 25 26  1  0
 25 28  1  0
 25 59  1  1
 26 27  1  0
 27 60  1  0
 27 61  1  0
 27 62  1  0
 28 29  1  0
 28 63  1  0
 28 64  1  0
 29 65  1  0
 29 66  1  0
 30 31  1  0
 31 32  2  0
 31 33  1  0
 33 34  1  0
 33 67  1  1
 34 68  1  0
 34 69  1  0
 34 70  1  0
M  END
>  <i_m_ct_stereo_status>  (359) 
1

>  <s_m_source_file>  (359) 
/var/tmp/pbs.5076255.sched01/tmpux3k924y/120tsqzh4i4.sdf

>  <i_m_source_file_index>  (359) 
35

>  <i_lp_mmshare_version>  (359) 
48012

>  <i_f3d_flags>  (359) 
0

>  <s_epik_input>  (359) 
W0NIXVwxPUMoW0NIM10pXFtDQF0oTzIpKFtDSDNdKU9bQ0BASF0zT1tDQEBIXShPW0NIM10pW0NAQEhdNFtDQEBIXTFbQ0gyXVtDQEBIXShPQyg9TylbQ0BIXTVbQ0gzXSkvQzU9W0NIXVxbQ0BIXShbQ0BdNDZbQ0BdMjM3KVtDSDJdW0NIMl1bQ0BIXTdbQ0gyXVtDSDJdW0NAQEhdNk9bQ0gzXQ==

>  <s_epik_cmdline>  (359) 
J2VwaWtfcHl0aG9uJywgJy1waHQnLCAnMi4wJywgJy1waCcsICc3LjAnLCAnLXRuJywgJzgnLCAnLW1hJywgJzIwMCcsICctaW1hZScsICc8aW5maWxlLm1hZT4nLCAnLW9tYWUnLCAnPG91dGZpbGUubWFlPic=

>  <r_lp_tautomer_probability>  (359) 
1

>  <r_epik_Ionization_Penalty>  (359) 
4.59178e-12

>  <r_epik_Ionization_Penalty_Charging>  (359) 
0

>  <r_epik_Ionization_Penalty_Neutral>  (359) 
4.59178e-12

>  <r_epik_State_Penalty>  (359) 
-0

>  <r_epik_Charging_Adjusted_Penalty>  (359) 
0

>  <i_epik_Tot_Q>  (359) 
0

>  <i_epik_Tot_abs_Q>  (359) 
0

>  <s_epik_Chemistry_Notes>  (359) 
This compound has an ester and may undergo hydrolysis at high or low pH. This compound contains an acetal/aminal-like group ( X-CH(R)-Y where X, Y are N, S, or O) that may be acid/base labile, releasing an aldehyde.

>  <s_lp_Force_Field>  (359) 
OPLS3e

>  <r_lp_Energy>  (359) 
70.7128

>  <b_lp_Chiralities_Consistent>  (359) 
1

>  <s_lp_Variant>  (359) 
115:0-2

>  <s_i_glide_gridfile>  (359) 
pfpi4k_grid

>  <i_i_glide_lignum>  (359) 
35

>  <i_i_glide_rotatable_bonds>  (359) 
2

>  <r_i_docking_score>  (359) 
-2.00133

>  <r_i_glide_ligand_efficiency>  (359) 
-0.0588626

>  <r_i_glide_ligand_efficiency_sa>  (359) 
-0.190692

>  <r_i_glide_ligand_efficiency_ln>  (359) 
-0.44215

>  <r_i_glide_gscore>  (359) 
-2.00133

>  <r_i_glide_lipo>  (359) 
-0.344318

>  <r_i_glide_hbond>  (359) 
-0.194322

>  <r_i_glide_metal>  (359) 
-0

>  <r_i_glide_rewards>  (359) 
-0.200826

>  <r_i_glide_evdw>  (359) 
-19.3679

>  <r_i_glide_ecoul>  (359) 
-1.89317

>  <r_i_glide_erotb>  (359) 
0

>  <r_i_glide_esite>  (359) 
-0.00949207

>  <r_i_glide_emodel>  (359) 
-24.0621

>  <r_i_glide_energy>  (359) 
-21.2611

>  <r_i_glide_einternal>  (359) 
0.425815

>  <r_i_glide_intrahb_reward>  (359) 
-0

>  <i_i_glide_confnum>  (359) 
2

>  <i_i_glide_posenum>  (359) 
12

>  <r_i_glide_eff_state_penalty>  (359) 
0

>  <ligand_id>  (359) 
115

>  <original_smiles>  (359) 
COC1OC2OC3(C)OC24C2CCC5C=C6C(CC(C=C3C)C1C54C(OC)CC2)OC(=O)C6C

>  <smiles>  (359) 
[H]C1=C(C([H])([H])[H])C2(C([H])([H])[H])OC3([H])OC([H])(OC([H])([H])[H])C4([H])C1([H])C([H])([H])C1([H])OC(=O)C([H])(C([H])([H])[H])C1=C([H])C1([H])C([H])([H])C([H])([H])C5([H])C([H])([H])C([H])([H])C([H])(OC([H])([H])[H])C14C35O2

$$$$
115:1:2
     RDKit          3D

 70 76  0  0  1  0  0  0  0  0999 V2000
   -0.1123   -6.8678    1.7412 C   0  0  0  0  0  0  0  0  0  0  0  0
    0.9406   -5.9780    2.0796 O   0  0  0  0  0  0  0  0  0  0  0  0
    2.0689   -6.5793    2.6425 C   0  0  2  0  0  0  0  0  0  0  0  0
    1.7998   -7.0323    3.9461 O   0  0  0  0  0  0  0  0  0  0  0  0
    2.9066   -7.4922    4.6938 C   0  0  1  0  0  0  0  0  0  0  0  0
    3.4935   -8.6378    4.2011 O   0  0  0  0  0  0  0  0  0  0  0  0
    4.7383   -8.3178    3.6666 C   0  0  2  0  0  0  0  0  0  0  0  0
    5.7569   -9.2997    4.2670 C   0  0  0  0  0  0  0  0  0  0  0  0
    5.1235   -7.0568    4.1365 O   0  0  0  0  0  0  0  0  0  0  0  0
    4.0253   -6.4340    4.7886 C   0  0  2  0  0  0  0  0  0  0  0  0
    4.4428   -6.1354    6.2540 C   0  0  1  0  0  0  0  0  0  0  0  0
    5.6745   -5.1959    6.2622 C   0  0  0  0  0  0  0  0  0  0  0  0
    5.4075   -3.8681    5.5207 C   0  0  0  0  0  0  0  0  0  0  0  0
    4.8887   -4.1469    4.0846 C   0  0  2  0  0  0  0  0  0  0  0  0
    4.6420   -2.8745    3.2603 C   0  0  0  0  0  0  0  0  0  0  0  0
    4.8577   -2.7216    1.9380 C   0  0  0  0  0  0  0  0  0  0  0  0
    5.5480   -3.6939    1.0005 C   0  0  1  0  0  0  0  0  0  0  0  0
    4.6855   -4.8994    0.5470 C   0  0  0  0  0  0  0  0  0  0  0  0
    4.4314   -5.9111    1.6788 C   0  0  2  0  0  0  0  0  0  0  0  0
    4.5263   -7.3701    1.2758 C   0  0  0  0  0  0  0  0  0  0  0  0
    4.6500   -8.4155    2.1249 C   0  0  0  0  0  0  0  0  0  0  0  0
    4.6495   -9.8283    1.5667 C   0  0  0  0  0  0  0  0  0  0  0  0
    3.2208   -5.5108    2.6188 C   0  0  2  0  0  0  0  0  0  0  0  0
    3.6292   -5.1031    4.0822 C   0  0  1  0  0  0  0  0  0  0  0  0
    2.4893   -4.3318    4.8969 C   0  0  1  0  0  0  0  0  0  0  0  0
    1.2431   -4.1728    4.2233 O   0  0  0  0  0  0  0  0  0  0  0  0
    1.1061   -2.9380    3.5543 C   0  0  0  0  0  0  0  0  0  0  0  0
    2.1163   -4.9420    6.2605 C   0  0  0  0  0  0  0  0  0  0  0  0
    3.2896   -5.5143    7.0832 C   0  0  0  0  0  0  0  0  0  0  0  0
    5.8654   -2.9346   -0.1451 O   0  0  0  0  0  0  0  0  0  0  0  0
    5.3257   -1.7044   -0.1305 C   0  0  0  0  0  0  0  0  0  0  0  0
    5.4313   -0.8830   -1.0384 O   0  0  0  0  0  0  0  0  0  0  0  0
    4.5535   -1.4694    1.1491 C   0  0  1  0  0  0  0  0  0  0  0  0
    3.0522   -1.2860    0.8558 C   0  0  0  0  0  0  0  0  0  0  0  0
   -0.9370   -6.2884    1.3307 H   0  0  0  0  0  0  0  0  0  0  0  0
   -0.4837   -7.4138    2.6102 H   0  0  0  0  0  0  0  0  0  0  0  0
    0.1986   -7.5783    0.9743 H   0  0  0  0  0  0  0  0  0  0  0  0
    2.2456   -7.4650    2.0380 H   0  0  0  0  0  0  0  0  0  0  0  0
    2.5220   -7.7706    5.6753 H   0  0  0  0  0  0  0  0  0  0  0  0
    5.8161   -9.1535    5.3456 H   0  0  0  0  0  0  0  0  0  0  0  0
    6.7477   -9.1266    3.8405 H   0  0  0  0  0  0  0  0  0  0  0  0
    5.4624  -10.3355    4.0855 H   0  0  0  0  0  0  0  0  0  0  0  0
    4.7436   -7.0644    6.7337 H   0  0  0  0  0  0  0  0  0  0  0  0
    5.9979   -4.9974    7.2864 H   0  0  0  0  0  0  0  0  0  0  0  0
    6.5139   -5.7026    5.7921 H   0  0  0  0  0  0  0  0  0  0  0  0
    4.7158   -3.2582    6.0985 H   0  0  0  0  0  0  0  0  0  0  0  0
    6.3277   -3.2895    5.4781 H   0  0  0  0  0  0  0  0  0  0  0  0
    5.7592   -4.6096    3.6376 H   0  0  0  0  0  0  0  0  0  0  0  0
    4.1864   -2.0570    3.7934 H   0  0  0  0  0  0  0  0  0  0  0  0
    6.4853   -4.0385    1.4540 H   0  0  0  0  0  0  0  0  0  0  0  0
    3.7451   -4.5567    0.1125 H   0  0  0  0  0  0  0  0  0  0  0  0
    5.2176   -5.3951   -0.2643 H   0  0  0  0  0  0  0  0  0  0  0  0
    5.3764   -5.8814    2.1945 H   0  0  0  0  0  0  0  0  0  0  0  0
    4.4508   -7.5640    0.2125 H   0  0  0  0  0  0  0  0  0  0  0  0
    3.8979  -10.4268    2.0803 H   0  0  0  0  0  0  0  0  0  0  0  0
    5.6201  -10.3109    1.6836 H   0  0  0  0  0  0  0  0  0  0  0  0
    4.4006   -9.8364    0.5035 H   0  0  0  0  0  0  0  0  0  0  0  0
    2.7833   -4.6295    2.1548 H   0  0  0  0  0  0  0  0  0  0  0  0
    2.8279   -3.3245    5.1386 H   0  0  0  0  0  0  0  0  0  0  0  0
    0.2156   -2.9095    2.9231 H   0  0  0  0  0  0  0  0  0  0  0  0
    1.9468   -2.7792    2.8890 H   0  0  0  0  0  0  0  0  0  0  0  0
    1.0495   -2.1041    4.2475 H   0  0  0  0  0  0  0  0  0  0  0  0
    1.5880   -4.1894    6.8490 H   0  0  0  0  0  0  0  0  0  0  0  0
    1.3853   -5.7317    6.1042 H   0  0  0  0  0  0  0  0  0  0  0  0
    2.8852   -6.2810    7.7527 H   0  0  0  0  0  0  0  0  0  0  0  0
    3.6810   -4.7393    7.7435 H   0  0  0  0  0  0  0  0  0  0  0  0
    4.9377   -0.5857    1.6676 H   0  0  0  0  0  0  0  0  0  0  0  0
    2.6339   -2.1789    0.3889 H   0  0  0  0  0  0  0  0  0  0  0  0
    2.8704   -0.4536    0.1790 H   0  0  0  0  0  0  0  0  0  0  0  0
    2.4893   -1.0830    1.7677 H   0  0  0  0  0  0  0  0  0  0  0  0
  1  2  1  0
  1 35  1  0
  1 36  1  0
  1 37  1  0
  2  3  1  0
  3 23  1  0
  3  4  1  0
  3 38  1  6
  4  5  1  0
  5 10  1  0
  5  6  1  0
  5 39  1  1
  6  7  1  0
  7 21  1  0
  7  8  1  1
  7  9  1  0
  8 40  1  0
  8 41  1  0
  8 42  1  0
 10  9  1  6
 24 10  1  1
 10 11  1  0
 11 29  1  0
 11 12  1  0
 11 43  1  1
 12 13  1  0
 12 44  1  0
 12 45  1  0
 13 14  1  0
 13 46  1  0
 13 47  1  0
 14 24  1  0
 14 15  1  0
 14 48  1  6
 15 16  2  3
 15 49  1  0
 16 33  1  0
 16 17  1  0
 17 18  1  0
 17 30  1  0
 17 50  1  1
 18 19  1  0
 18 51  1  0
 18 52  1  0
 19 20  1  0
 19 23  1  0
 19 53  1  1
 20 21  2  3
 20 54  1  0
 21 22  1  0
 22 55  1  0
 22 56  1  0
 22 57  1  0
 23 24  1  0
 23 58  1  6
 24 25  1  0
 25 26  1  0
 25 28  1  0
 25 59  1  1
 26 27  1  0
 27 60  1  0
 27 61  1  0
 27 62  1  0
 28 29  1  0
 28 63  1  0
 28 64  1  0
 29 65  1  0
 29 66  1  0
 30 31  1  0
 31 32  2  0
 31 33  1  0
 33 34  1  0
 33 67  1  1
 34 68  1  0
 34 69  1  0
 34 70  1  0
M  END
>  <i_m_ct_stereo_status>  (360) 
1

>  <s_m_source_file>  (360) 
/var/tmp/pbs.5076255.sched01/tmpux3k924y/120tsqzh4i4.sdf

>  <i_m_source_file_index>  (360) 
35

>  <i_lp_mmshare_version>  (360) 
48012

>  <i_f3d_flags>  (360) 
0

>  <s_epik_input>  (360) 
W0NIXVwxPUMoW0NIM10pXFtDQF0oTzIpKFtDSDNdKU9bQ0BASF0zT1tDQEBIXShPW0NIM10pW0NAQEhdNFtDQEBIXTFbQ0gyXVtDQEBIXShPQyg9TylbQ0BIXTVbQ0gzXSkvQzU9W0NIXVxbQ0BIXShbQ0BdNDZbQ0BdMjM3KVtDSDJdW0NIMl1bQ0BIXTdbQ0gyXVtDSDJdW0NAQEhdNk9bQ0gzXQ==

>  <s_epik_cmdline>  (360) 
J2VwaWtfcHl0aG9uJywgJy1waHQnLCAnMi4wJywgJy1waCcsICc3LjAnLCAnLXRuJywgJzgnLCAnLW1hJywgJzIwMCcsICctaW1hZScsICc8aW5maWxlLm1hZT4nLCAnLW9tYWUnLCAnPG91dGZpbGUubWFlPic=

>  <r_lp_tautomer_probability>  (360) 
1

>  <r_epik_Ionization_Penalty>  (360) 
4.59178e-12

>  <r_epik_Ionization_Penalty_Charging>  (360) 
0

>  <r_epik_Ionization_Penalty_Neutral>  (360) 
4.59178e-12

>  <r_epik_State_Penalty>  (360) 
-0

>  <r_epik_Charging_Adjusted_Penalty>  (360) 
0

>  <i_epik_Tot_Q>  (360) 
0

>  <i_epik_Tot_abs_Q>  (360) 
0

>  <s_epik_Chemistry_Notes>  (360) 
This compound has an ester and may undergo hydrolysis at high or low pH. This compound contains an acetal/aminal-like group ( X-CH(R)-Y where X, Y are N, S, or O) that may be acid/base labile, releasing an aldehyde.

>  <s_lp_Force_Field>  (360) 
OPLS3e

>  <r_lp_Energy>  (360) 
70.7128

>  <b_lp_Chiralities_Consistent>  (360) 
1

>  <s_lp_Variant>  (360) 
115:0-2

>  <s_i_glide_gridfile>  (360) 
pfpi4k_grid

>  <i_i_glide_lignum>  (360) 
35

>  <i_i_glide_rotatable_bonds>  (360) 
2

>  <r_i_docking_score>  (360) 
-1.93451

>  <r_i_glide_ligand_efficiency>  (360) 
-0.0568974

>  <r_i_glide_ligand_efficiency_sa>  (360) 
-0.184326

>  <r_i_glide_ligand_efficiency_ln>  (360) 
-0.427388

>  <r_i_glide_gscore>  (360) 
-1.93451

>  <r_i_glide_lipo>  (360) 
-0.397149

>  <r_i_glide_hbond>  (360) 
-0.0873613

>  <r_i_glide_metal>  (360) 
-0

>  <r_i_glide_rewards>  (360) 
-0.187019

>  <r_i_glide_evdw>  (360) 
-21.1454

>  <r_i_glide_ecoul>  (360) 
-1.2533

>  <r_i_glide_erotb>  (360) 
0

>  <r_i_glide_esite>  (360) 
-0.0177159

>  <r_i_glide_emodel>  (360) 
-24.3443

>  <r_i_glide_energy>  (360) 
-22.3987

>  <r_i_glide_einternal>  (360) 
1.52233

>  <r_i_glide_intrahb_reward>  (360) 
-0

>  <i_i_glide_confnum>  (360) 
1

>  <i_i_glide_posenum>  (360) 
2

>  <r_i_glide_eff_state_penalty>  (360) 
0

>  <ligand_id>  (360) 
115

>  <original_smiles>  (360) 
COC1OC2OC3(C)OC24C2CCC5C=C6C(CC(C=C3C)C1C54C(OC)CC2)OC(=O)C6C

>  <smiles>  (360) 
[H]C1=C(C([H])([H])[H])C2(C([H])([H])[H])OC3([H])OC([H])(OC([H])([H])[H])C4([H])C1([H])C([H])([H])C1([H])OC(=O)C([H])(C([H])([H])[H])C1=C([H])C1([H])C([H])([H])C([H])([H])C5([H])C([H])([H])C([H])([H])C([H])(OC([H])([H])[H])C14C35O2

$$$$
115:2:0
     RDKit          3D

 70 76  0  0  1  0  0  0  0  0999 V2000
    8.3350   -4.6838    1.4391 C   0  0  0  0  0  0  0  0  0  0  0  0
    6.9774   -4.5642    1.8211 O   0  0  0  0  0  0  0  0  0  0  0  0
    6.2211   -3.6350    1.1179 C   0  0  2  0  0  0  0  0  0  0  0  0
    6.5656   -2.3022    1.4091 O   0  0  0  0  0  0  0  0  0  0  0  0
    5.7734   -1.2933    0.8274 C   0  0  1  0  0  0  0  0  0  0  0  0
    5.7858   -1.2540   -0.5688 O   0  0  0  0  0  0  0  0  0  0  0  0
    4.5114   -1.5825   -1.0457 C   0  0  2  0  0  0  0  0  0  0  0  0
    4.1793   -0.6897   -2.2416 C   0  0  0  0  0  0  0  0  0  0  0  0
    3.6030   -1.3656   -0.0140 O   0  0  0  0  0  0  0  0  0  0  0  0
    4.2821   -1.4069    1.2358 C   0  0  2  0  0  0  0  0  0  0  0  0
    3.7460   -0.1495    1.9592 C   0  0  1  0  0  0  0  0  0  0  0  0
    2.2129   -0.2758    2.1197 C   0  0  0  0  0  0  0  0  0  0  0  0
    1.8011   -1.5647    2.8656 C   0  0  0  0  0  0  0  0  0  0  0  0
    2.4726   -2.8430    2.2964 C   0  0  2  0  0  0  0  0  0  0  0  0
    2.0617   -4.0899    3.0864 C   0  0  0  0  0  0  0  0  0  0  0  0
    1.8098   -5.2810    2.5629 C   0  0  0  0  0  0  0  0  0  0  0  0
    1.8308   -5.6201    1.0940 C   0  0  1  0  0  0  0  0  0  0  0  0
    3.2347   -5.9342    0.6081 C   0  0  0  0  0  0  0  0  0  0  0  0
    4.1572   -4.7636    0.2481 C   0  0  1  0  0  0  0  0  0  0  0  0
    3.6161   -3.8393   -0.8245 C   0  0  0  0  0  0  0  0  0  0  0  0
    4.4729   -3.0398   -1.4716 C   0  0  0  0  0  0  0  0  0  0  0  0
    5.6687   -3.5460   -2.2554 C   0  0  0  0  0  0  0  0  0  0  0  0
    4.7359   -3.9587    1.4581 C   0  0  2  0  0  0  0  0  0  0  0  0
    4.0293   -2.6967    2.1252 C   0  0  1  0  0  0  0  0  0  0  0  0
    4.5320   -2.4576    3.6256 C   0  0  1  0  0  0  0  0  0  0  0  0
    5.5205   -3.3882    4.0345 O   0  0  0  0  0  0  0  0  0  0  0  0
    5.1191   -4.5093    4.8040 C   0  0  0  0  0  0  0  0  0  0  0  0
    5.1669   -1.0774    3.8975 C   0  0  0  0  0  0  0  0  0  0  0  0
    4.3853    0.1042    3.3390 C   0  0  0  0  0  0  0  0  0  0  0  0
    0.9995   -6.7648    0.9954 O   0  0  0  0  0  0  0  0  0  0  0  0
    0.6702   -7.3014    2.2041 C   0  0  0  0  0  0  0  0  0  0  0  0
   -0.0121   -8.2945    2.4228 O   0  0  0  0  0  0  0  0  0  0  0  0
    1.2554   -6.4609    3.3343 C   0  0  1  0  0  0  0  0  0  0  0  0
    2.3421   -7.2238    4.0935 C   0  0  0  0  0  0  0  0  0  0  0  0
    8.8423   -5.3552    2.1323 H   0  0  0  0  0  0  0  0  0  0  0  0
    8.8624   -3.7311    1.4523 H   0  0  0  0  0  0  0  0  0  0  0  0
    8.3982   -5.1174    0.4433 H   0  0  0  0  0  0  0  0  0  0  0  0
    6.4503   -3.8127    0.0811 H   0  0  0  0  0  0  0  0  0  0  0  0
    6.1861   -0.3328    1.1322 H   0  0  0  0  0  0  0  0  0  0  0  0
    4.2369    0.3472   -1.9531 H   0  0  0  0  0  0  0  0  0  0  0  0
    3.1642   -0.8800   -2.5850 H   0  0  0  0  0  0  0  0  0  0  0  0
    4.8883   -0.8588   -3.0486 H   0  0  0  0  0  0  0  0  0  0  0  0
    3.9116    0.7172    1.3190 H   0  0  0  0  0  0  0  0  0  0  0  0
    1.7937    0.6106    2.5998 H   0  0  0  0  0  0  0  0  0  0  0  0
    1.7608   -0.2762    1.1342 H   0  0  0  0  0  0  0  0  0  0  0  0
    2.0037   -1.4373    3.9296 H   0  0  0  0  0  0  0  0  0  0  0  0
    0.7204   -1.6755    2.8131 H   0  0  0  0  0  0  0  0  0  0  0  0
    2.0159   -2.9592    1.3314 H   0  0  0  0  0  0  0  0  0  0  0  0
    1.9388   -3.9654    4.1461 H   0  0  0  0  0  0  0  0  0  0  0  0
    1.4787   -4.8111    0.4565 H   0  0  0  0  0  0  0  0  0  0  0  0
    3.7092   -6.6355    1.2915 H   0  0  0  0  0  0  0  0  0  0  0  0
    3.1214   -6.4633   -0.3160 H   0  0  0  0  0  0  0  0  0  0  0  0
    4.9878   -5.3021   -0.1988 H   0  0  0  0  0  0  0  0  0  0  0  0
    2.7161   -3.3707   -0.4860 H   0  0  0  0  0  0  0  0  0  0  0  0
    5.5356   -3.3245   -3.3131 H   0  0  0  0  0  0  0  0  0  0  0  0
    5.7092   -4.6278   -2.1643 H   0  0  0  0  0  0  0  0  0  0  0  0
    6.6244   -3.1164   -1.9494 H   0  0  0  0  0  0  0  0  0  0  0  0
    4.7789   -4.7480    2.1973 H   0  0  0  0  0  0  0  0  0  0  0  0
    3.7275   -2.5501    4.3568 H   0  0  0  0  0  0  0  0  0  0  0  0
    6.0067   -5.1118    4.9947 H   0  0  0  0  0  0  0  0  0  0  0  0
    4.4090   -5.1497    4.2913 H   0  0  0  0  0  0  0  0  0  0  0  0
    4.6859   -4.2202    5.7585 H   0  0  0  0  0  0  0  0  0  0  0  0
    5.3296   -0.9373    4.9643 H   0  0  0  0  0  0  0  0  0  0  0  0
    6.1628   -1.0267    3.4753 H   0  0  0  0  0  0  0  0  0  0  0  0
    5.0924    0.9233    3.2953 H   0  0  0  0  0  0  0  0  0  0  0  0
    3.6148    0.3906    4.0519 H   0  0  0  0  0  0  0  0  0  0  0  0
    0.4457   -6.1642    3.9945 H   0  0  0  0  0  0  0  0  0  0  0  0
    3.1656   -7.4935    3.4295 H   0  0  0  0  0  0  0  0  0  0  0  0
    1.9642   -8.1510    4.5332 H   0  0  0  0  0  0  0  0  0  0  0  0
    2.7475   -6.6155    4.9011 H   0  0  0  0  0  0  0  0  0  0  0  0
  1  2  1  0
  1 35  1  0
  1 36  1  0
  1 37  1  0
  2  3  1  0
  3 23  1  0
  3  4  1  0
  3 38  1  6
  4  5  1  0
  5 10  1  0
  5  6  1  0
  5 39  1  1
  6  7  1  0
  7 21  1  0
  7  8  1  6
  7  9  1  0
  8 40  1  0
  8 41  1  0
  8 42  1  0
 10  9  1  6
 24 10  1  6
 10 11  1  0
 11 29  1  0
 11 12  1  0
 11 43  1  6
 12 13  1  0
 12 44  1  0
 12 45  1  0
 13 14  1  0
 13 46  1  0
 13 47  1  0
 14 24  1  0
 14 15  1  0
 14 48  1  6
 15 16  2  3
 15 49  1  0
 16 33  1  0
 16 17  1  0
 17 18  1  0
 17 30  1  0
 17 50  1  6
 18 19  1  0
 18 51  1  0
 18 52  1  0
 19 20  1  0
 19 23  1  0
 19 53  1  6
 20 21  2  3
 20 54  1  0
 21 22  1  0
 22 55  1  0
 22 56  1  0
 22 57  1  0
 23 24  1  0
 23 58  1  1
 24 25  1  0
 25 26  1  0
 25 28  1  0
 25 59  1  1
 26 27  1  0
 27 60  1  0
 27 61  1  0
 27 62  1  0
 28 29  1  0
 28 63  1  0
 28 64  1  0
 29 65  1  0
 29 66  1  0
 30 31  1  0
 31 32  2  0
 31 33  1  0
 33 34  1  0
 33 67  1  1
 34 68  1  0
 34 69  1  0
 34 70  1  0
M  END
>  <i_m_ct_stereo_status>  (361) 
1

>  <s_m_source_file>  (361) 
/var/tmp/pbs.5076255.sched01/tmpux3k924y/120tsqzh4i4.sdf

>  <i_m_source_file_index>  (361) 
36

>  <i_lp_mmshare_version>  (361) 
48012

>  <i_f3d_flags>  (361) 
2

>  <s_epik_input>  (361) 
W0NIXVwxPUMoW0NIM10pXFtDQF0oTzIpKFtDSDNdKU9bQ0BASF0zT1tDQEBIXShPW0NIM10pW0NAQEhdNFtDQEBIXTFbQ0gyXVtDQEBIXShPQyg9TylbQ0BIXTVbQ0gzXSkvQzU9W0NIXVxbQ0BIXShbQ0BdNDZbQ0BdMjM3KVtDSDJdW0NIMl1bQ0BIXTdbQ0gyXVtDSDJdW0NAQEhdNk9bQ0gzXQ==

>  <s_epik_cmdline>  (361) 
J2VwaWtfcHl0aG9uJywgJy1waHQnLCAnMi4wJywgJy1waCcsICc3LjAnLCAnLXRuJywgJzgnLCAnLW1hJywgJzIwMCcsICctaW1hZScsICc8aW5maWxlLm1hZT4nLCAnLW9tYWUnLCAnPG91dGZpbGUubWFlPic=

>  <r_lp_tautomer_probability>  (361) 
1

>  <r_epik_Ionization_Penalty>  (361) 
4.59178e-12

>  <r_epik_Ionization_Penalty_Charging>  (361) 
0

>  <r_epik_Ionization_Penalty_Neutral>  (361) 
4.59178e-12

>  <r_epik_State_Penalty>  (361) 
-0

>  <r_epik_Charging_Adjusted_Penalty>  (361) 
0

>  <i_epik_Tot_Q>  (361) 
0

>  <i_epik_Tot_abs_Q>  (361) 
0

>  <s_epik_Chemistry_Notes>  (361) 
This compound has an ester and may undergo hydrolysis at high or low pH. This compound contains an acetal/aminal-like group ( X-CH(R)-Y where X, Y are N, S, or O) that may be acid/base labile, releasing an aldehyde.

>  <s_lp_Force_Field>  (361) 
OPLS3e

>  <r_lp_Energy>  (361) 
98.1657

>  <b_lp_Chiralities_Consistent>  (361) 
0

>  <s_lp_Variant>  (361) 
115:0-3

>  <s_i_glide_gridfile>  (361) 
pfpi4k_grid

>  <i_i_glide_lignum>  (361) 
36

>  <i_i_glide_rotatable_bonds>  (361) 
2

>  <r_i_docking_score>  (361) 
-2.25794

>  <r_i_glide_ligand_efficiency>  (361) 
-0.0664101

>  <r_i_glide_ligand_efficiency_sa>  (361) 
-0.215143

>  <r_i_glide_ligand_efficiency_ln>  (361) 
-0.498843

>  <r_i_glide_gscore>  (361) 
-2.25794

>  <r_i_glide_lipo>  (361) 
-0.435209

>  <r_i_glide_hbond>  (361) 
-0.0359999

>  <r_i_glide_metal>  (361) 
-0

>  <r_i_glide_rewards>  (361) 
-0.478995

>  <r_i_glide_evdw>  (361) 
-24.4077

>  <r_i_glide_ecoul>  (361) 
0.0137907

>  <r_i_glide_erotb>  (361) 
0

>  <r_i_glide_esite>  (361) 
-0.0894235

>  <r_i_glide_emodel>  (361) 
-26.5592

>  <r_i_glide_energy>  (361) 
-24.3939

>  <r_i_glide_einternal>  (361) 
0.42584

>  <r_i_glide_intrahb_reward>  (361) 
-0

>  <i_i_glide_confnum>  (361) 
1

>  <i_i_glide_posenum>  (361) 
1

>  <r_i_glide_eff_state_penalty>  (361) 
0

>  <ligand_id>  (361) 
115

>  <original_smiles>  (361) 
COC1OC2OC3(C)OC24C2CCC5C=C6C(CC(C=C3C)C1C54C(OC)CC2)OC(=O)C6C

>  <smiles>  (361) 
[H]C1=C(C([H])([H])[H])C2(C([H])([H])[H])OC3([H])OC([H])(OC([H])([H])[H])C4([H])C1([H])C([H])([H])C1([H])OC(=O)C([H])(C([H])([H])[H])C1=C([H])C1([H])C([H])([H])C([H])([H])C5([H])C([H])([H])C([H])([H])C([H])(OC([H])([H])[H])C14C35O2

$$$$
115:2:1
     RDKit          3D

 70 76  0  0  1  0  0  0  0  0999 V2000
    7.0012   -9.2574    1.3693 C   0  0  0  0  0  0  0  0  0  0  0  0
    5.6924   -8.8013    1.6611 O   0  0  0  0  0  0  0  0  0  0  0  0
    5.5733   -7.4291    1.8683 C   0  0  2  0  0  0  0  0  0  0  0  0
    6.6215   -6.9476    2.6671 O   0  0  0  0  0  0  0  0  0  0  0  0
    6.5716   -5.6128    3.0771 C   0  0  1  0  0  0  0  0  0  0  0  0
    6.5955   -4.6797    2.0449 O   0  0  0  0  0  0  0  0  0  0  0  0
    5.3811   -3.9941    2.0182 C   0  0  2  0  0  0  0  0  0  0  0  0
    5.6708   -2.5045    1.8024 C   0  0  0  0  0  0  0  0  0  0  0  0
    4.7828   -4.1587    3.2705 O   0  0  0  0  0  0  0  0  0  0  0  0
    5.3118   -5.3165    3.9095 C   0  0  2  0  0  0  0  0  0  0  0  0
    5.6360   -4.8078    5.3368 C   0  0  1  0  0  0  0  0  0  0  0  0
    4.3257   -4.3141    5.9940 C   0  0  0  0  0  0  0  0  0  0  0  0
    3.2413   -5.4074    6.0323 C   0  0  0  0  0  0  0  0  0  0  0  0
    3.0181   -6.0743    4.6467 C   0  0  2  0  0  0  0  0  0  0  0  0
    1.9462   -7.1534    4.7446 C   0  0  0  0  0  0  0  0  0  0  0  0
    1.0054   -7.3787    3.8185 C   0  0  0  0  0  0  0  0  0  0  0  0
    0.8056   -6.5826    2.5563 C   0  0  1  0  0  0  0  0  0  0  0  0
    1.7230   -7.0590    1.4147 C   0  0  0  0  0  0  0  0  0  0  0  0
    3.1934   -6.5820    1.4062 C   0  0  1  0  0  0  0  0  0  0  0  0
    3.3128   -5.0813    1.2955 C   0  0  0  0  0  0  0  0  0  0  0  0
    4.4850   -4.5505    0.9174 C   0  0  0  0  0  0  0  0  0  0  0  0
    5.1596   -4.8681   -0.4124 C   0  0  0  0  0  0  0  0  0  0  0  0
    4.1579   -7.1884    2.5071 C   0  0  2  0  0  0  0  0  0  0  0  0
    4.3519   -6.5746    3.9737 C   0  0  1  0  0  0  0  0  0  0  0  0
    4.9333   -7.6782    4.9852 C   0  0  1  0  0  0  0  0  0  0  0  0
    5.1965   -8.9506    4.3954 O   0  0  0  0  0  0  0  0  0  0  0  0
    4.1673   -9.9296    4.4936 C   0  0  0  0  0  0  0  0  0  0  0  0
    6.2592   -7.3048    5.6938 C   0  0  0  0  0  0  0  0  0  0  0  0
    6.3315   -5.8628    6.2271 C   0  0  0  0  0  0  0  0  0  0  0  0
   -0.5233   -6.8664    2.1774 O   0  0  0  0  0  0  0  0  0  0  0  0
   -1.0697   -7.8741    2.8729 C   0  0  0  0  0  0  0  0  0  0  0  0
   -2.1810   -8.3531    2.6851 O   0  0  0  0  0  0  0  0  0  0  0  0
   -0.1166   -8.3744    3.9461 C   0  0  1  0  0  0  0  0  0  0  0  0
    0.3041   -9.8199    3.6540 C   0  0  0  0  0  0  0  0  0  0  0  0
    6.9818  -10.3348    1.2063 H   0  0  0  0  0  0  0  0  0  0  0  0
    7.6691   -9.0607    2.2091 H   0  0  0  0  0  0  0  0  0  0  0  0
    7.4137   -8.7846    0.4763 H   0  0  0  0  0  0  0  0  0  0  0  0
    5.6916   -6.9966    0.8836 H   0  0  0  0  0  0  0  0  0  0  0  0
    7.4835   -5.4592    3.6521 H   0  0  0  0  0  0  0  0  0  0  0  0
    6.3051   -2.1275    2.6005 H   0  0  0  0  0  0  0  0  0  0  0  0
    4.7417   -1.9353    1.8044 H   0  0  0  0  0  0  0  0  0  0  0  0
    6.1820   -2.3578    0.8503 H   0  0  0  0  0  0  0  0  0  0  0  0
    6.2969   -3.9428    5.2654 H   0  0  0  0  0  0  0  0  0  0  0  0
    4.5190   -3.9377    6.9989 H   0  0  0  0  0  0  0  0  0  0  0  0
    3.9402   -3.4581    5.4433 H   0  0  0  0  0  0  0  0  0  0  0  0
    3.5032   -6.1431    6.7954 H   0  0  0  0  0  0  0  0  0  0  0  0
    2.3039   -4.9678    6.3742 H   0  0  0  0  0  0  0  0  0  0  0  0
    2.5874   -5.2872    4.0447 H   0  0  0  0  0  0  0  0  0  0  0  0
    1.9389   -7.7684    5.6293 H   0  0  0  0  0  0  0  0  0  0  0  0
    0.8949   -5.5099    2.7419 H   0  0  0  0  0  0  0  0  0  0  0  0
    1.7015   -8.1478    1.3741 H   0  0  0  0  0  0  0  0  0  0  0  0
    1.2761   -6.7408    0.4745 H   0  0  0  0  0  0  0  0  0  0  0  0
    3.5500   -6.9844    0.4591 H   0  0  0  0  0  0  0  0  0  0  0  0
    2.8689   -4.6442    2.1663 H   0  0  0  0  0  0  0  0  0  0  0  0
    5.1790   -3.9572   -1.0107 H   0  0  0  0  0  0  0  0  0  0  0  0
    4.6132   -5.6159   -0.9860 H   0  0  0  0  0  0  0  0  0  0  0  0
    6.1886   -5.2094   -0.3037 H   0  0  0  0  0  0  0  0  0  0  0  0
    3.7256   -8.1754    2.6193 H   0  0  0  0  0  0  0  0  0  0  0  0
    4.2336   -7.8751    5.7967 H   0  0  0  0  0  0  0  0  0  0  0  0
    4.4859  -10.8274    3.9633 H   0  0  0  0  0  0  0  0  0  0  0  0
    3.2341   -9.6062    4.0398 H   0  0  0  0  0  0  0  0  0  0  0  0
    3.9617  -10.1992    5.5281 H   0  0  0  0  0  0  0  0  0  0  0  0
    6.4423   -7.9985    6.5150 H   0  0  0  0  0  0  0  0  0  0  0  0
    7.0971   -7.4610    5.0188 H   0  0  0  0  0  0  0  0  0  0  0  0
    7.3845   -5.5888    6.3474 H   0  0  0  0  0  0  0  0  0  0  0  0
    5.9129   -5.8311    7.2348 H   0  0  0  0  0  0  0  0  0  0  0  0
   -0.6057   -8.3060    4.9159 H   0  0  0  0  0  0  0  0  0  0  0  0
    0.7981   -9.9073    2.6850 H   0  0  0  0  0  0  0  0  0  0  0  0
   -0.5571  -10.4895    3.6344 H   0  0  0  0  0  0  0  0  0  0  0  0
    0.9823  -10.1949    4.4182 H   0  0  0  0  0  0  0  0  0  0  0  0
  1  2  1  0
  1 35  1  0
  1 36  1  0
  1 37  1  0
  2  3  1  0
  3 23  1  0
  3  4  1  0
  3 38  1  6
  4  5  1  0
  5 10  1  0
  5  6  1  0
  5 39  1  1
  6  7  1  0
  7 21  1  0
  7  8  1  6
  7  9  1  0
  8 40  1  0
  8 41  1  0
  8 42  1  0
 10  9  1  6
 24 10  1  6
 10 11  1  0
 11 29  1  0
 11 12  1  0
 11 43  1  6
 12 13  1  0
 12 44  1  0
 12 45  1  0
 13 14  1  0
 13 46  1  0
 13 47  1  0
 14 24  1  0
 14 15  1  0
 14 48  1  6
 15 16  2  3
 15 49  1  0
 16 33  1  0
 16 17  1  0
 17 18  1  0
 17 30  1  0
 17 50  1  1
 18 19  1  0
 18 51  1  0
 18 52  1  0
 19 20  1  0
 19 23  1  0
 19 53  1  6
 20 21  2  3
 20 54  1  0
 21 22  1  0
 22 55  1  0
 22 56  1  0
 22 57  1  0
 23 24  1  0
 23 58  1  1
 24 25  1  0
 25 26  1  0
 25 28  1  0
 25 59  1  1
 26 27  1  0
 27 60  1  0
 27 61  1  0
 27 62  1  0
 28 29  1  0
 28 63  1  0
 28 64  1  0
 29 65  1  0
 29 66  1  0
 30 31  1  0
 31 32  2  0
 31 33  1  0
 33 34  1  0
 33 67  1  1
 34 68  1  0
 34 69  1  0
 34 70  1  0
M  END
>  <i_m_ct_stereo_status>  (362) 
1

>  <s_m_source_file>  (362) 
/var/tmp/pbs.5076255.sched01/tmpux3k924y/120tsqzh4i4.sdf

>  <i_m_source_file_index>  (362) 
36

>  <i_lp_mmshare_version>  (362) 
48012

>  <i_f3d_flags>  (362) 
2

>  <s_epik_input>  (362) 
W0NIXVwxPUMoW0NIM10pXFtDQF0oTzIpKFtDSDNdKU9bQ0BASF0zT1tDQEBIXShPW0NIM10pW0NAQEhdNFtDQEBIXTFbQ0gyXVtDQEBIXShPQyg9TylbQ0BIXTVbQ0gzXSkvQzU9W0NIXVxbQ0BIXShbQ0BdNDZbQ0BdMjM3KVtDSDJdW0NIMl1bQ0BIXTdbQ0gyXVtDSDJdW0NAQEhdNk9bQ0gzXQ==

>  <s_epik_cmdline>  (362) 
J2VwaWtfcHl0aG9uJywgJy1waHQnLCAnMi4wJywgJy1waCcsICc3LjAnLCAnLXRuJywgJzgnLCAnLW1hJywgJzIwMCcsICctaW1hZScsICc8aW5maWxlLm1hZT4nLCAnLW9tYWUnLCAnPG91dGZpbGUubWFlPic=

>  <r_lp_tautomer_probability>  (362) 
1

>  <r_epik_Ionization_Penalty>  (362) 
4.59178e-12

>  <r_epik_Ionization_Penalty_Charging>  (362) 
0

>  <r_epik_Ionization_Penalty_Neutral>  (362) 
4.59178e-12

>  <r_epik_State_Penalty>  (362) 
-0

>  <r_epik_Charging_Adjusted_Penalty>  (362) 
0

>  <i_epik_Tot_Q>  (362) 
0

>  <i_epik_Tot_abs_Q>  (362) 
0

>  <s_epik_Chemistry_Notes>  (362) 
This compound has an ester and may undergo hydrolysis at high or low pH. This compound contains an acetal/aminal-like group ( X-CH(R)-Y where X, Y are N, S, or O) that may be acid/base labile, releasing an aldehyde.

>  <s_lp_Force_Field>  (362) 
OPLS3e

>  <r_lp_Energy>  (362) 
98.1657

>  <b_lp_Chiralities_Consistent>  (362) 
0

>  <s_lp_Variant>  (362) 
115:0-3

>  <s_i_glide_gridfile>  (362) 
pfpi4k_grid

>  <i_i_glide_lignum>  (362) 
36

>  <i_i_glide_rotatable_bonds>  (362) 
2

>  <r_i_docking_score>  (362) 
-2.16928

>  <r_i_glide_ligand_efficiency>  (362) 
-0.0638023

>  <r_i_glide_ligand_efficiency_sa>  (362) 
-0.206695

>  <r_i_glide_ligand_efficiency_ln>  (362) 
-0.479254

>  <r_i_glide_gscore>  (362) 
-2.16928

>  <r_i_glide_lipo>  (362) 
-0.191684

>  <r_i_glide_hbond>  (362) 
-0.16

>  <r_i_glide_metal>  (362) 
-0

>  <r_i_glide_rewards>  (362) 
-0.330746

>  <r_i_glide_evdw>  (362) 
-24.0535

>  <r_i_glide_ecoul>  (362) 
-1.47548

>  <r_i_glide_erotb>  (362) 
0

>  <r_i_glide_esite>  (362) 
-0.0628525

>  <r_i_glide_emodel>  (362) 
-27.8025

>  <r_i_glide_energy>  (362) 
-25.529

>  <r_i_glide_einternal>  (362) 
1.17245

>  <r_i_glide_intrahb_reward>  (362) 
-0

>  <i_i_glide_confnum>  (362) 
1

>  <i_i_glide_posenum>  (362) 
17

>  <r_i_glide_eff_state_penalty>  (362) 
0

>  <ligand_id>  (362) 
115

>  <original_smiles>  (362) 
COC1OC2OC3(C)OC24C2CCC5C=C6C(CC(C=C3C)C1C54C(OC)CC2)OC(=O)C6C

>  <smiles>  (362) 
[H]C1=C(C([H])([H])[H])C2(C([H])([H])[H])OC3([H])OC([H])(OC([H])([H])[H])C4([H])C1([H])C([H])([H])C1([H])OC(=O)C([H])(C([H])([H])[H])C1=C([H])C1([H])C([H])([H])C([H])([H])C5([H])C([H])([H])C([H])([H])C([H])(OC([H])([H])[H])C14C35O2

$$$$
115:2:2
     RDKit          3D

 70 76  0  0  1  0  0  0  0  0999 V2000
    7.7011   -5.5298    2.3474 C   0  0  0  0  0  0  0  0  0  0  0  0
    6.4093   -5.1988    2.8300 O   0  0  0  0  0  0  0  0  0  0  0  0
    5.6398   -4.3815    2.0026 C   0  0  2  0  0  0  0  0  0  0  0  0
    6.0516   -3.0402    2.0794 O   0  0  0  0  0  0  0  0  0  0  0  0
    5.2722   -2.0718    1.4196 C   0  0  1  0  0  0  0  0  0  0  0  0
    5.2483   -2.1899    0.0345 O   0  0  0  0  0  0  0  0  0  0  0  0
    3.9580   -2.5232   -0.3689 C   0  0  2  0  0  0  0  0  0  0  0  0
    3.6319   -1.7111   -1.6232 C   0  0  0  0  0  0  0  0  0  0  0  0
    3.0876   -2.1583    0.6583 O   0  0  0  0  0  0  0  0  0  0  0  0
    3.8024   -2.0784    1.8864 C   0  0  2  0  0  0  0  0  0  0  0  0
    3.3275   -0.7155    2.4547 C   0  0  1  0  0  0  0  0  0  0  0  0
    1.7917   -0.7663    2.6568 C   0  0  0  0  0  0  0  0  0  0  0  0
    1.3568   -1.9271    3.5731 C   0  0  0  0  0  0  0  0  0  0  0  0
    1.9658   -3.2905    3.1397 C   0  0  2  0  0  0  0  0  0  0  0  0
    1.5067   -4.4095    4.0725 C   0  0  0  0  0  0  0  0  0  0  0  0
    1.1531   -5.6502    3.6855 C   0  0  0  0  0  0  0  0  0  0  0  0
    1.1036   -6.1568    2.2707 C   0  0  1  0  0  0  0  0  0  0  0  0
    2.4779   -6.6047    1.7603 C   0  0  0  0  0  0  0  0  0  0  0  0
    3.4825   -5.5252    1.2998 C   0  0  1  0  0  0  0  0  0  0  0  0
    2.9857   -4.7158    0.1215 C   0  0  0  0  0  0  0  0  0  0  0  0
    3.8538   -4.0195   -0.6245 C   0  0  0  0  0  0  0  0  0  0  0  0
    5.0130   -4.6595   -1.3726 C   0  0  0  0  0  0  0  0  0  0  0  0
    4.1449   -4.6130    2.4192 C   0  0  2  0  0  0  0  0  0  0  0  0
    3.5288   -3.2313    2.9335 C   0  0  1  0  0  0  0  0  0  0  0  0
    4.1273   -2.8406    4.3714 C   0  0  1  0  0  0  0  0  0  0  0  0
    5.0706   -3.7947    4.8594 O   0  0  0  0  0  0  0  0  0  0  0  0
    5.2472   -3.8357    6.2713 C   0  0  0  0  0  0  0  0  0  0  0  0
    4.7986   -1.4457    4.4587 C   0  0  0  0  0  0  0  0  0  0  0  0
    4.0366   -0.3102    3.7651 C   0  0  0  0  0  0  0  0  0  0  0  0
    0.2537   -7.2810    2.3303 O   0  0  0  0  0  0  0  0  0  0  0  0
   -0.0475   -7.6622    3.5723 C   0  0  0  0  0  0  0  0  0  0  0  0
   -0.7445   -8.6213    3.8826 O   0  0  0  0  0  0  0  0  0  0  0  0
    0.5977   -6.7242    4.5880 C   0  0  1  0  0  0  0  0  0  0  0  0
    1.6878   -7.4390    5.3995 C   0  0  0  0  0  0  0  0  0  0  0  0
    8.2068   -6.1477    3.0899 H   0  0  0  0  0  0  0  0  0  0  0  0
    8.3229   -4.6549    2.1656 H   0  0  0  0  0  0  0  0  0  0  0  0
    7.6349   -6.1035    1.4240 H   0  0  0  0  0  0  0  0  0  0  0  0
    5.8410   -4.7000    0.9907 H   0  0  0  0  0  0  0  0  0  0  0  0
    5.7393   -1.1077    1.6148 H   0  0  0  0  0  0  0  0  0  0  0  0
    3.7254   -0.6538   -1.4019 H   0  0  0  0  0  0  0  0  0  0  0  0
    2.6165   -1.9193   -1.9534 H   0  0  0  0  0  0  0  0  0  0  0  0
    4.3198   -1.9675   -2.4287 H   0  0  0  0  0  0  0  0  0  0  0  0
    3.5230    0.0647    1.7171 H   0  0  0  0  0  0  0  0  0  0  0  0
    1.4242    0.1826    3.0501 H   0  0  0  0  0  0  0  0  0  0  0  0
    1.2966   -0.8728    1.6918 H   0  0  0  0  0  0  0  0  0  0  0  0
    1.6167   -1.6823    4.6052 H   0  0  0  0  0  0  0  0  0  0  0  0
    0.2688   -1.9980    3.5673 H   0  0  0  0  0  0  0  0  0  0  0  0
    1.4904   -3.4942    2.1922 H   0  0  0  0  0  0  0  0  0  0  0  0
    1.4470   -4.1715    5.1242 H   0  0  0  0  0  0  0  0  0  0  0  0
    0.6419   -5.4513    1.5942 H   0  0  0  0  0  0  0  0  0  0  0  0
    2.9522   -7.2258    2.5193 H   0  0  0  0  0  0  0  0  0  0  0  0
    2.3068   -7.2682    0.9129 H   0  0  0  0  0  0  0  0  0  0  0  0
    4.2861   -6.1471    0.9038 H   0  0  0  0  0  0  0  0  0  0  0  0
    2.1148   -4.1748    0.4254 H   0  0  0  0  0  0  0  0  0  0  0  0
    4.8550   -4.5440   -2.4450 H   0  0  0  0  0  0  0  0  0  0  0  0
    5.0421   -5.7296   -1.1695 H   0  0  0  0  0  0  0  0  0  0  0  0
    5.9839   -4.2206   -1.1378 H   0  0  0  0  0  0  0  0  0  0  0  0
    4.1661   -5.2732    3.2858 H   0  0  0  0  0  0  0  0  0  0  0  0
    3.3230   -2.8515    5.1060 H   0  0  0  0  0  0  0  0  0  0  0  0
    5.9902   -4.5939    6.5224 H   0  0  0  0  0  0  0  0  0  0  0  0
    4.3168   -4.1029    6.7747 H   0  0  0  0  0  0  0  0  0  0  0  0
    5.6093   -2.8923    6.6822 H   0  0  0  0  0  0  0  0  0  0  0  0
    4.9509   -1.1563    5.4975 H   0  0  0  0  0  0  0  0  0  0  0  0
    5.7983   -1.5005    4.0336 H   0  0  0  0  0  0  0  0  0  0  0  0
    4.7403    0.5006    3.5598 H   0  0  0  0  0  0  0  0  0  0  0  0
    3.3132    0.1075    4.4663 H   0  0  0  0  0  0  0  0  0  0  0  0
   -0.1742   -6.3245    5.2419 H   0  0  0  0  0  0  0  0  0  0  0  0
    2.4819   -7.8195    4.7566 H   0  0  0  0  0  0  0  0  0  0  0  0
    1.2847   -8.2899    5.9504 H   0  0  0  0  0  0  0  0  0  0  0  0
    2.1466   -6.7635    6.1216 H   0  0  0  0  0  0  0  0  0  0  0  0
  1  2  1  0
  1 35  1  0
  1 36  1  0
  1 37  1  0
  2  3  1  0
  3 23  1  0
  3  4  1  0
  3 38  1  6
  4  5  1  0
  5 10  1  0
  5  6  1  0
  5 39  1  6
  6  7  1  0
  7 21  1  0
  7  8  1  6
  7  9  1  0
  8 40  1  0
  8 41  1  0
  8 42  1  0
 10  9  1  6
 24 10  1  6
 10 11  1  0
 11 29  1  0
 11 12  1  0
 11 43  1  6
 12 13  1  0
 12 44  1  0
 12 45  1  0
 13 14  1  0
 13 46  1  0
 13 47  1  0
 14 24  1  0
 14 15  1  0
 14 48  1  6
 15 16  2  3
 15 49  1  0
 16 33  1  0
 16 17  1  0
 17 18  1  0
 17 30  1  0
 17 50  1  6
 18 19  1  0
 18 51  1  0
 18 52  1  0
 19 20  1  0
 19 23  1  0
 19 53  1  6
 20 21  2  3
 20 54  1  0
 21 22  1  0
 22 55  1  0
 22 56  1  0
 22 57  1  0
 23 24  1  0
 23 58  1  1
 24 25  1  0
 25 26  1  0
 25 28  1  0
 25 59  1  1
 26 27  1  0
 27 60  1  0
 27 61  1  0
 27 62  1  0
 28 29  1  0
 28 63  1  0
 28 64  1  0
 29 65  1  0
 29 66  1  0
 30 31  1  0
 31 32  2  0
 31 33  1  0
 33 34  1  0
 33 67  1  1
 34 68  1  0
 34 69  1  0
 34 70  1  0
M  END
>  <i_m_ct_stereo_status>  (363) 
1

>  <s_m_source_file>  (363) 
/var/tmp/pbs.5076255.sched01/tmpux3k924y/120tsqzh4i4.sdf

>  <i_m_source_file_index>  (363) 
36

>  <i_lp_mmshare_version>  (363) 
48012

>  <i_f3d_flags>  (363) 
2

>  <s_epik_input>  (363) 
W0NIXVwxPUMoW0NIM10pXFtDQF0oTzIpKFtDSDNdKU9bQ0BASF0zT1tDQEBIXShPW0NIM10pW0NAQEhdNFtDQEBIXTFbQ0gyXVtDQEBIXShPQyg9TylbQ0BIXTVbQ0gzXSkvQzU9W0NIXVxbQ0BIXShbQ0BdNDZbQ0BdMjM3KVtDSDJdW0NIMl1bQ0BIXTdbQ0gyXVtDSDJdW0NAQEhdNk9bQ0gzXQ==

>  <s_epik_cmdline>  (363) 
J2VwaWtfcHl0aG9uJywgJy1waHQnLCAnMi4wJywgJy1waCcsICc3LjAnLCAnLXRuJywgJzgnLCAnLW1hJywgJzIwMCcsICctaW1hZScsICc8aW5maWxlLm1hZT4nLCAnLW9tYWUnLCAnPG91dGZpbGUubWFlPic=

>  <r_lp_tautomer_probability>  (363) 
1

>  <r_epik_Ionization_Penalty>  (363) 
4.59178e-12

>  <r_epik_Ionization_Penalty_Charging>  (363) 
0

>  <r_epik_Ionization_Penalty_Neutral>  (363) 
4.59178e-12

>  <r_epik_State_Penalty>  (363) 
-0

>  <r_epik_Charging_Adjusted_Penalty>  (363) 
0

>  <i_epik_Tot_Q>  (363) 
0

>  <i_epik_Tot_abs_Q>  (363) 
0

>  <s_epik_Chemistry_Notes>  (363) 
This compound has an ester and may undergo hydrolysis at high or low pH. This compound contains an acetal/aminal-like group ( X-CH(R)-Y where X, Y are N, S, or O) that may be acid/base labile, releasing an aldehyde.

>  <s_lp_Force_Field>  (363) 
OPLS3e

>  <r_lp_Energy>  (363) 
98.1657

>  <b_lp_Chiralities_Consistent>  (363) 
0

>  <s_lp_Variant>  (363) 
115:0-3

>  <s_i_glide_gridfile>  (363) 
pfpi4k_grid

>  <i_i_glide_lignum>  (363) 
36

>  <i_i_glide_rotatable_bonds>  (363) 
2

>  <r_i_docking_score>  (363) 
-1.47976

>  <r_i_glide_ligand_efficiency>  (363) 
-0.0435224

>  <r_i_glide_ligand_efficiency_sa>  (363) 
-0.140996

>  <r_i_glide_ligand_efficiency_ln>  (363) 
-0.326921

>  <r_i_glide_gscore>  (363) 
-1.47976

>  <r_i_glide_lipo>  (363) 
-0.110893

>  <r_i_glide_hbond>  (363) 
0

>  <r_i_glide_metal>  (363) 
-0

>  <r_i_glide_rewards>  (363) 
-0.331887

>  <r_i_glide_evdw>  (363) 
-23.6029

>  <r_i_glide_ecoul>  (363) 
1.36172

>  <r_i_glide_erotb>  (363) 
0

>  <r_i_glide_esite>  (363) 
-0.0610934

>  <r_i_glide_emodel>  (363) 
-23.9408

>  <r_i_glide_energy>  (363) 
-22.2412

>  <r_i_glide_einternal>  (363) 
0.601952

>  <r_i_glide_intrahb_reward>  (363) 
-0

>  <i_i_glide_confnum>  (363) 
2

>  <i_i_glide_posenum>  (363) 
22

>  <r_i_glide_eff_state_penalty>  (363) 
0

>  <ligand_id>  (363) 
115

>  <original_smiles>  (363) 
COC1OC2OC3(C)OC24C2CCC5C=C6C(CC(C=C3C)C1C54C(OC)CC2)OC(=O)C6C

>  <smiles>  (363) 
[H]C1=C(C([H])([H])[H])C2(C([H])([H])[H])OC3([H])OC([H])(OC([H])([H])[H])C4([H])C1([H])C([H])([H])C1([H])OC(=O)C([H])(C([H])([H])[H])C1=C([H])C1([H])C([H])([H])C([H])([H])C5([H])C([H])([H])C([H])([H])C([H])(OC([H])([H])[H])C14C35O2

$$$$
116:0:0
     RDKit          3D

 87 94  0  0  1  0  0  0  0  0999 V2000
    2.8468   -2.3629   -2.7178 C   0  0  0  0  0  0  0  0  0  0  0  0
    2.7651   -3.4125   -1.5968 C   0  0  2  0  0  0  0  0  0  0  0  0
    1.4225   -3.8569   -1.5207 O   0  0  0  0  0  0  0  0  0  0  0  0
    3.2117   -2.8684   -0.2287 C   0  0  0  0  0  0  0  0  0  0  0  0
    3.2447   -3.9330    0.8862 C   0  0  2  0  0  0  0  0  0  0  0  0
    3.2673   -3.2992    2.2855 C   0  0  0  0  0  0  0  0  0  0  0  0
    3.4201   -4.4044    3.3280 C   0  0  2  0  0  0  0  0  0  0  0  0
    3.4250   -3.8439    4.6382 O   0  0  0  0  0  0  0  0  0  0  0  0
    3.6463   -4.6828    5.7867 C   0  0  1  0  0  0  0  0  0  0  0  0
    2.4495   -4.3448    6.7850 C   0  0  0  0  0  0  0  0  0  0  0  0
    1.2052   -5.2696    6.6236 C   0  0  2  0  0  0  0  0  0  0  0  0
   -0.1735   -5.2767    5.8961 C   0  0  0  0  0  0  0  0  0  0  0  0
   -0.1967   -5.9815    4.4734 C   0  0  0  0  0  0  0  0  0  0  0  0
    0.2600   -7.4915    4.2562 C   0  0  1  0  0  0  0  0  0  0  0  0
    0.0523   -8.0148    2.8046 C   0  0  1  0  0  0  0  0  0  0  0  0
    0.1370   -6.9628    1.6844 C   0  0  0  0  0  0  0  0  0  0  0  0
    1.1355   -9.0786    2.6144 C   0  0  0  0  0  0  0  0  0  0  0  0
    2.3215   -8.5592    3.4123 C   0  0  0  0  0  0  0  0  0  0  0  0
    1.7142   -8.0077    4.6911 C   0  0  2  0  0  0  0  0  0  0  0  0
    1.5666   -9.1542    5.5350 O   0  0  0  0  0  0  0  0  0  0  0  0
    1.0703   -8.9430    6.8269 C   0  0  0  0  0  0  0  0  0  0  0  0
   -0.2092   -9.7765    6.9877 C   0  0  0  0  0  0  0  0  0  0  0  0
    2.1482   -9.3796    7.8371 C   0  0  0  0  0  0  0  0  0  0  0  0
    0.7083   -7.6156    7.0590 O   0  0  0  0  0  0  0  0  0  0  0  0
    1.7290   -6.6703    6.7606 C   0  0  1  0  0  0  0  0  0  0  0  0
    2.4972   -6.9171    5.4540 C   0  0  1  0  0  0  0  0  0  0  0  0
    3.9351   -6.2348    5.4796 C   0  0  2  0  0  0  0  0  0  0  0  0
    4.7505   -6.8007    6.6827 C   0  0  0  0  0  0  0  0  0  0  0  0
    4.9067   -6.2776    4.2208 C   0  0  1  0  0  0  0  0  0  0  0  0
    5.5403   -7.6199    3.8065 C   0  0  0  0  0  0  0  0  0  0  0  0
    6.8834   -7.4246    3.0873 C   0  0  0  0  0  0  0  0  0  0  0  0
    6.8291   -6.3845    1.9580 C   0  0  2  0  0  0  0  0  0  0  0  0
    7.9879   -6.6013    0.9778 C   0  0  0  0  0  0  0  0  0  0  0  0
    7.0424   -5.0544    2.4357 O   0  0  0  0  0  0  0  0  0  0  0  0
    5.8023   -4.3749    3.0158 O   0  0  0  0  0  0  0  0  0  0  0  0
    4.6791   -5.2439    3.0591 C   0  0  2  0  0  0  0  0  0  0  0  0
    4.5344   -5.8155    1.6109 C   0  0  1  0  0  0  0  0  0  0  0  0
    4.4070   -4.7417    0.7197 O   0  0  0  0  0  0  0  0  0  0  0  0
    5.6323   -6.5810    1.2302 O   0  0  0  0  0  0  0  0  0  0  0  0
    3.8678   -2.0003   -2.8516 H   0  0  0  0  0  0  0  0  0  0  0  0
    2.2192   -1.4978   -2.5020 H   0  0  0  0  0  0  0  0  0  0  0  0
    2.5185   -2.7679   -3.6781 H   0  0  0  0  0  0  0  0  0  0  0  0
    3.4141   -4.2472   -1.8553 H   0  0  0  0  0  0  0  0  0  0  0  0
    1.1700   -4.1981   -2.3616 H   0  0  0  0  0  0  0  0  0  0  0  0
    4.2024   -2.4221   -0.3205 H   0  0  0  0  0  0  0  0  0  0  0  0
    2.5549   -2.0512    0.0637 H   0  0  0  0  0  0  0  0  0  0  0  0
    2.3680   -4.5734    0.8086 H   0  0  0  0  0  0  0  0  0  0  0  0
    4.0811   -2.5793    2.3680 H   0  0  0  0  0  0  0  0  0  0  0  0
    2.3403   -2.7542    2.4647 H   0  0  0  0  0  0  0  0  0  0  0  0
    2.5378   -5.0211    3.1848 H   0  0  0  0  0  0  0  0  0  0  0  0
    4.5462   -4.2545    6.2354 H   0  0  0  0  0  0  0  0  0  0  0  0
    2.8212   -4.4915    7.7997 H   0  0  0  0  0  0  0  0  0  0  0  0
    2.1913   -3.2862    6.7433 H   0  0  0  0  0  0  0  0  0  0  0  0
    1.3748   -4.8195    5.6590 H   0  0  0  0  0  0  0  0  0  0  0  0
   -0.8963   -5.7833    6.5363 H   0  0  0  0  0  0  0  0  0  0  0  0
   -0.5636   -4.2592    5.8146 H   0  0  0  0  0  0  0  0  0  0  0  0
   -1.2317   -5.9530    4.1439 H   0  0  0  0  0  0  0  0  0  0  0  0
    0.3374   -5.3322    3.7818 H   0  0  0  0  0  0  0  0  0  0  0  0
   -0.4675   -8.0504    4.8335 H   0  0  0  0  0  0  0  0  0  0  0  0
   -0.9248   -8.4917    2.7227 H   0  0  0  0  0  0  0  0  0  0  0  0
    1.0783   -6.4149    1.7202 H   0  0  0  0  0  0  0  0  0  0  0  0
   -0.6848   -6.2570    1.7412 H   0  0  0  0  0  0  0  0  0  0  0  0
    0.0745   -7.4472    0.7083 H   0  0  0  0  0  0  0  0  0  0  0  0
    0.7983  -10.0275    3.0394 H   0  0  0  0  0  0  0  0  0  0  0  0
    1.4018   -9.2541    1.5712 H   0  0  0  0  0  0  0  0  0  0  0  0
    3.0555   -9.3423    3.6065 H   0  0  0  0  0  0  0  0  0  0  0  0
    2.7820   -7.7531    2.8555 H   0  0  0  0  0  0  0  0  0  0  0  0
   -1.0057   -9.4168    6.3434 H   0  0  0  0  0  0  0  0  0  0  0  0
   -0.5466   -9.7168    8.0196 H   0  0  0  0  0  0  0  0  0  0  0  0
   -0.0291  -10.8100    6.7073 H   0  0  0  0  0  0  0  0  0  0  0  0
    3.0822   -8.8608    7.6571 H   0  0  0  0  0  0  0  0  0  0  0  0
    2.3542  -10.4381    7.7206 H   0  0  0  0  0  0  0  0  0  0  0  0
    1.8136   -9.1906    8.8559 H   0  0  0  0  0  0  0  0  0  0  0  0
    2.3493   -6.7132    7.6476 H   0  0  0  0  0  0  0  0  0  0  0  0
    2.2069   -6.2620    4.6707 H   0  0  0  0  0  0  0  0  0  0  0  0
    4.7811   -7.8903    6.6698 H   0  0  0  0  0  0  0  0  0  0  0  0
    4.3683   -6.4945    7.6549 H   0  0  0  0  0  0  0  0  0  0  0  0
    5.7840   -6.4515    6.6916 H   0  0  0  0  0  0  0  0  0  0  0  0
    5.7775   -5.8087    4.6788 H   0  0  0  0  0  0  0  0  0  0  0  0
    5.7138   -8.2569    4.6690 H   0  0  0  0  0  0  0  0  0  0  0  0
    4.8882   -8.1792    3.1452 H   0  0  0  0  0  0  0  0  0  0  0  0
    7.6772   -7.1622    3.7881 H   0  0  0  0  0  0  0  0  0  0  0  0
    7.1684   -8.3935    2.6684 H   0  0  0  0  0  0  0  0  0  0  0  0
    7.9497   -5.8685    0.1740 H   0  0  0  0  0  0  0  0  0  0  0  0
    7.9602   -7.5949    0.5218 H   0  0  0  0  0  0  0  0  0  0  0  0
    8.9509   -6.4934    1.4798 H   0  0  0  0  0  0  0  0  0  0  0  0
    3.6520   -6.4397    1.4933 H   0  0  0  0  0  0  0  0  0  0  0  0
  1  2  1  0
  1 40  1  0
  1 41  1  0
  1 42  1  0
  2  3  1  0
  2  4  1  0
  2 43  1  6
  3 44  1  0
  4  5  1  0
  4 45  1  0
  4 46  1  0
  5 38  1  0
  5  6  1  0
  5 47  1  1
  6  7  1  0
  6 48  1  0
  6 49  1  0
  7 36  1  0
  7  8  1  0
  7 50  1  1
  8  9  1  0
  9 27  1  0
  9 10  1  0
  9 51  1  1
 10 11  1  0
 10 52  1  0
 10 53  1  0
 11 25  1  0
 11 12  1  0
 11 54  1  1
 12 13  1  0
 12 55  1  0
 12 56  1  0
 13 14  1  0
 13 57  1  0
 13 58  1  0
 14 19  1  0
 14 15  1  0
 14 59  1  1
 15 16  1  0
 15 17  1  0
 15 60  1  1
 16 61  1  0
 16 62  1  0
 16 63  1  0
 17 18  1  0
 17 64  1  0
 17 65  1  0
 18 19  1  0
 18 66  1  0
 18 67  1  0
 19 26  1  0
 19 20  1  1
 20 21  1  0
 21 22  1  0
 21 23  1  0
 21 24  1  0
 22 68  1  0
 22 69  1  0
 22 70  1  0
 23 71  1  0
 23 72  1  0
 23 73  1  0
 24 25  1  0
 25 26  1  0
 25 74  1  1
 26 27  1  0
 26 75  1  6
 27 28  1  1
 27 29  1  0
 28 76  1  0
 28 77  1  0
 28 78  1  0
 29 36  1  0
 29 30  1  0
 29 79  1  1
 30 31  1  0
 30 80  1  0
 30 81  1  0
 31 32  1  0
 31 82  1  0
 31 83  1  0
 32 39  1  0
 32 33  1  6
 32 34  1  0
 33 84  1  0
 33 85  1  0
 33 86  1  0
 34 35  1  0
 36 35  1  6
 36 37  1  0
 37 38  1  0
 37 39  1  0
 37 87  1  1
M  END
>  <i_m_ct_stereo_status>  (364) 
1

>  <s_m_source_file>  (364) 
/var/tmp/pbs.5076255.sched01/tmpux3k924y/120tsqzh4i4.sdf

>  <i_m_source_file_index>  (364) 
38

>  <i_lp_mmshare_version>  (364) 
48012

>  <i_f3d_flags>  (364) 
0

>  <s_epik_input>  (364) 
W0NIM11bQ0BIXShbT0hdKVtDSDJdW0NASF0oW0NIMl0xKU9bQ0BIXTJPW0NAQF0oW0NIM10pKE9PMylbQ0gyXVtDSDJdW0NASF00W0NAXTIzW0NASF0xT1tDQEBIXShbQ0gyXTUpW0NAQF00KFtDSDNdKVtDQEBIXTZbQ0BIXShPQyhPNykoW0NIM10pW0NIM10pW0NASF01W0NIMl1bQ0gyXVtDQEhdKFtDQEBdNjc4KVtDQEBIXShbQ0gzXSlbQ0gyXVtDSDJdOA==

>  <s_epik_cmdline>  (364) 
J2VwaWtfcHl0aG9uJywgJy1waHQnLCAnMi4wJywgJy1waCcsICc3LjAnLCAnLXRuJywgJzgnLCAnLW1hJywgJzIwMCcsICctaW1hZScsICc8aW5maWxlLm1hZT4nLCAnLW9tYWUnLCAnPG91dGZpbGUubWFlPic=

>  <r_lp_tautomer_probability>  (364) 
1

>  <r_epik_Ionization_Penalty>  (364) 
2.52548e-07

>  <r_epik_Ionization_Penalty_Charging>  (364) 
0

>  <r_epik_Ionization_Penalty_Neutral>  (364) 
2.52548e-07

>  <r_epik_State_Penalty>  (364) 
-0

>  <r_epik_Charging_Adjusted_Penalty>  (364) 
0

>  <i_epik_Tot_Q>  (364) 
0

>  <i_epik_Tot_abs_Q>  (364) 
0

>  <s_epik_Chemistry_Notes>  (364) 
This compound contains an acetal/aminal-like group ( X-CH(R)-Y where X, Y are N, S, or O) that may be acid/base labile, releasing an aldehyde.

>  <s_lp_Force_Field>  (364) 
OPLS3e

>  <r_lp_Energy>  (364) 
187.778

>  <b_lp_Chiralities_Consistent>  (364) 
1

>  <s_lp_Variant>  (364) 
116:0-1

>  <s_i_glide_gridfile>  (364) 
pfpi4k_grid

>  <i_i_glide_lignum>  (364) 
38

>  <i_i_glide_rotatable_bonds>  (364) 
3

>  <r_i_docking_score>  (364) 
-2.2519

>  <r_i_glide_ligand_efficiency>  (364) 
-0.057741

>  <r_i_glide_ligand_efficiency_sa>  (364) 
-0.195812

>  <r_i_glide_ligand_efficiency_ln>  (364) 
-0.482871

>  <r_i_glide_gscore>  (364) 
-2.2519

>  <r_i_glide_lipo>  (364) 
-0.162591

>  <r_i_glide_hbond>  (364) 
-0.333971

>  <r_i_glide_metal>  (364) 
-0

>  <r_i_glide_rewards>  (364) 
-0.124527

>  <r_i_glide_evdw>  (364) 
-21.6342

>  <r_i_glide_ecoul>  (364) 
-4.21362

>  <r_i_glide_erotb>  (364) 
0.137659

>  <r_i_glide_esite>  (364) 
-0.0547173

>  <r_i_glide_emodel>  (364) 
-29.1552

>  <r_i_glide_energy>  (364) 
-25.8478

>  <r_i_glide_einternal>  (364) 
1.10234

>  <r_i_glide_intrahb_reward>  (364) 
-0

>  <i_i_glide_confnum>  (364) 
1

>  <i_i_glide_posenum>  (364) 
20

>  <r_i_glide_eff_state_penalty>  (364) 
0

>  <ligand_id>  (364) 
116

>  <original_smiles>  (364) 
CC(O)CC1CC2OC3CC4CCC5C(C)CCC56OC(C)(C)OC4C6C3(C)C3CCC4(C)OOC23C(O1)O4

>  <smiles>  (364) 
[H]OC([H])(C([H])([H])[H])C([H])([H])C1([H])OC2([H])OC3(C([H])([H])[H])OOC24C([H])(OC2([H])C([H])([H])C5([H])C([H])([H])C([H])([H])C6([H])C([H])(C([H])([H])[H])C([H])([H])C([H])([H])C67OC(C([H])([H])[H])(C([H])([H])[H])OC5([H])C7([H])C2(C([H])([H])[H])C4([H])C([H])([H])C3([H])[H])C1([H])[H]

$$$$
116:0:1
     RDKit          3D

 87 94  0  0  1  0  0  0  0  0999 V2000
    2.2512    0.8589    1.8299 C   0  0  0  0  0  0  0  0  0  0  0  0
    2.6028   -0.6053    2.1193 C   0  0  2  0  0  0  0  0  0  0  0  0
    2.7003   -1.2862    0.8812 O   0  0  0  0  0  0  0  0  0  0  0  0
    1.5636   -1.3004    3.0153 C   0  0  0  0  0  0  0  0  0  0  0  0
    2.0302   -2.6606    3.5781 C   0  0  2  0  0  0  0  0  0  0  0  0
    0.8609   -3.4979    4.1011 C   0  0  0  0  0  0  0  0  0  0  0  0
    1.3781   -4.7783    4.7529 C   0  0  2  0  0  0  0  0  0  0  0  0
    0.2861   -5.5842    5.2038 O   0  0  0  0  0  0  0  0  0  0  0  0
    0.5443   -6.8127    5.9142 C   0  0  1  0  0  0  0  0  0  0  0  0
   -0.3176   -7.9347    5.1777 C   0  0  0  0  0  0  0  0  0  0  0  0
    0.4579   -8.6851    4.0553 C   0  0  2  0  0  0  0  0  0  0  0  0
    0.6424   -8.6400    2.5092 C   0  0  0  0  0  0  0  0  0  0  0  0
    1.8910   -7.8049    2.0051 C   0  0  0  0  0  0  0  0  0  0  0  0
    3.3813   -8.1353    2.4729 C   0  0  1  0  0  0  0  0  0  0  0  0
    4.4702   -7.2759    1.7661 C   0  0  1  0  0  0  0  0  0  0  0  0
    4.0306   -5.8689    1.3182 C   0  0  0  0  0  0  0  0  0  0  0  0
    5.6139   -7.1725    2.7804 C   0  0  0  0  0  0  0  0  0  0  0  0
    4.9174   -7.1324    4.1326 C   0  0  0  0  0  0  0  0  0  0  0  0
    3.8018   -8.1585    4.0220 C   0  0  2  0  0  0  0  0  0  0  0  0
    4.4337   -9.4034    4.3216 O   0  0  0  0  0  0  0  0  0  0  0  0
    3.6261  -10.5421    4.3492 C   0  0  0  0  0  0  0  0  0  0  0  0
    4.1890  -11.5488    3.3337 C   0  0  0  0  0  0  0  0  0  0  0  0
    3.6895  -11.1505    5.7595 C   0  0  0  0  0  0  0  0  0  0  0  0
    2.3054  -10.2753    3.9847 O   0  0  0  0  0  0  0  0  0  0  0  0
    1.6900   -9.2262    4.7171 C   0  0  1  0  0  0  0  0  0  0  0  0
    2.5659   -7.9862    4.9366 C   0  0  1  0  0  0  0  0  0  0  0  0
    2.0917   -7.1433    6.2048 C   0  0  2  0  0  0  0  0  0  0  0  0
    2.1403   -8.0535    7.4715 C   0  0  0  0  0  0  0  0  0  0  0  0
    2.7848   -5.7684    6.6238 C   0  0  1  0  0  0  0  0  0  0  0  0
    4.2286   -5.7853    7.1608 C   0  0  0  0  0  0  0  0  0  0  0  0
    4.5077   -4.6022    8.0983 C   0  0  0  0  0  0  0  0  0  0  0  0
    4.0629   -3.2472    7.5357 C   0  0  2  0  0  0  0  0  0  0  0  0
    4.8238   -2.1049    8.2114 C   0  0  0  0  0  0  0  0  0  0  0  0
    2.6810   -2.9635    7.8059 O   0  0  0  0  0  0  0  0  0  0  0  0
    1.6867   -3.6061    6.8193 O   0  0  0  0  0  0  0  0  0  0  0  0
    2.3544   -4.4513    5.8830 C   0  0  2  0  0  0  0  0  0  0  0  0
    3.4922   -3.5838    5.2482 C   0  0  1  0  0  0  0  0  0  0  0  0
    2.9178   -2.4397    4.6653 O   0  0  0  0  0  0  0  0  0  0  0  0
    4.4458   -3.2041    6.1688 O   0  0  0  0  0  0  0  0  0  0  0  0
    2.1893    1.4449    2.7457 H   0  0  0  0  0  0  0  0  0  0  0  0
    1.2980    0.9490    1.3058 H   0  0  0  0  0  0  0  0  0  0  0  0
    3.0204    1.3224    1.2126 H   0  0  0  0  0  0  0  0  0  0  0  0
    3.5740   -0.6375    2.6115 H   0  0  0  0  0  0  0  0  0  0  0  0
    1.9574   -1.0565    0.3077 H   0  0  0  0  0  0  0  0  0  0  0  0
    1.3026   -0.6556    3.8526 H   0  0  0  0  0  0  0  0  0  0  0  0
    0.6464   -1.4197    2.4391 H   0  0  0  0  0  0  0  0  0  0  0  0
    2.5473   -3.2192    2.8035 H   0  0  0  0  0  0  0  0  0  0  0  0
    0.2309   -2.9340    4.7905 H   0  0  0  0  0  0  0  0  0  0  0  0
    0.2644   -3.7746    3.2626 H   0  0  0  0  0  0  0  0  0  0  0  0
    1.9086   -5.2796    3.9493 H   0  0  0  0  0  0  0  0  0  0  0  0
    0.0504   -6.6314    6.8709 H   0  0  0  0  0  0  0  0  0  0  0  0
   -0.5918   -8.6817    5.9249 H   0  0  0  0  0  0  0  0  0  0  0  0
   -1.2699   -7.5308    4.8296 H   0  0  0  0  0  0  0  0  0  0  0  0
    0.5007   -7.6390    3.7967 H   0  0  0  0  0  0  0  0  0  0  0  0
    0.7427   -9.6628    2.1383 H   0  0  0  0  0  0  0  0  0  0  0  0
   -0.2649   -8.2745    2.0248 H   0  0  0  0  0  0  0  0  0  0  0  0
    1.8856   -7.9133    0.9182 H   0  0  0  0  0  0  0  0  0  0  0  0
    1.6819   -6.7502    2.1687 H   0  0  0  0  0  0  0  0  0  0  0  0
    3.5527   -9.1305    2.0789 H   0  0  0  0  0  0  0  0  0  0  0  0
    4.8323   -7.7934    0.8763 H   0  0  0  0  0  0  0  0  0  0  0  0
    3.6338   -5.2842    2.1492 H   0  0  0  0  0  0  0  0  0  0  0  0
    3.2738   -5.9133    0.5336 H   0  0  0  0  0  0  0  0  0  0  0  0
    4.8764   -5.3156    0.9053 H   0  0  0  0  0  0  0  0  0  0  0  0
    6.2369   -8.0674    2.7250 H   0  0  0  0  0  0  0  0  0  0  0  0
    6.2636   -6.3097    2.6183 H   0  0  0  0  0  0  0  0  0  0  0  0
    5.6018   -7.3552    4.9501 H   0  0  0  0  0  0  0  0  0  0  0  0
    4.4929   -6.1456    4.2669 H   0  0  0  0  0  0  0  0  0  0  0  0
    4.1154  -11.1441    2.3314 H   0  0  0  0  0  0  0  0  0  0  0  0
    3.6270  -12.4853    3.3717 H   0  0  0  0  0  0  0  0  0  0  0  0
    5.2400  -11.7533    3.5460 H   0  0  0  0  0  0  0  0  0  0  0  0
    3.4137  -10.4191    6.5093 H   0  0  0  0  0  0  0  0  0  0  0  0
    4.7085  -11.4783    5.9685 H   0  0  0  0  0  0  0  0  0  0  0  0
    3.0163  -12.0066    5.8359 H   0  0  0  0  0  0  0  0  0  0  0  0
    1.3974   -9.7251    5.6336 H   0  0  0  0  0  0  0  0  0  0  0  0
    2.3003   -7.1724    4.3070 H   0  0  0  0  0  0  0  0  0  0  0  0
    3.1184   -8.5196    7.5934 H   0  0  0  0  0  0  0  0  0  0  0  0
    1.4015   -8.8529    7.4714 H   0  0  0  0  0  0  0  0  0  0  0  0
    1.9312   -7.5112    8.3947 H   0  0  0  0  0  0  0  0  0  0  0  0
    2.2549   -5.5982    7.5587 H   0  0  0  0  0  0  0  0  0  0  0  0
    4.4299   -6.7012    7.7090 H   0  0  0  0  0  0  0  0  0  0  0  0
    4.9527   -5.7530    6.3525 H   0  0  0  0  0  0  0  0  0  0  0  0
    4.0480   -4.7560    9.0776 H   0  0  0  0  0  0  0  0  0  0  0  0
    5.5857   -4.5844    8.2752 H   0  0  0  0  0  0  0  0  0  0  0  0
    4.5154   -1.1398    7.8067 H   0  0  0  0  0  0  0  0  0  0  0  0
    5.9056   -2.1810    8.0724 H   0  0  0  0  0  0  0  0  0  0  0  0
    4.6301   -2.0792    9.2889 H   0  0  0  0  0  0  0  0  0  0  0  0
    4.0076   -4.1191    4.4499 H   0  0  0  0  0  0  0  0  0  0  0  0
  1  2  1  0
  1 40  1  0
  1 41  1  0
  1 42  1  0
  2  3  1  0
  2  4  1  0
  2 43  1  1
  3 44  1  0
  4  5  1  0
  4 45  1  0
  4 46  1  0
  5 38  1  0
  5  6  1  0
  5 47  1  6
  6  7  1  0
  6 48  1  0
  6 49  1  0
  7 36  1  0
  7  8  1  0
  7 50  1  6
  8  9  1  0
  9 27  1  0
  9 10  1  0
  9 51  1  1
 10 11  1  0
 10 52  1  0
 10 53  1  0
 11 25  1  0
 11 12  1  0
 11 54  1  6
 12 13  1  0
 12 55  1  0
 12 56  1  0
 13 14  1  0
 13 57  1  0
 13 58  1  0
 14 19  1  0
 14 15  1  0
 14 59  1  6
 15 16  1  0
 15 17  1  0
 15 60  1  6
 16 61  1  0
 16 62  1  0
 16 63  1  0
 17 18  1  0
 17 64  1  0
 17 65  1  0
 18 19  1  0
 18 66  1  0
 18 67  1  0
 19 26  1  0
 19 20  1  1
 20 21  1  0
 21 22  1  0
 21 23  1  0
 21 24  1  0
 22 68  1  0
 22 69  1  0
 22 70  1  0
 23 71  1  0
 23 72  1  0
 23 73  1  0
 24 25  1  0
 25 26  1  0
 25 74  1  1
 26 27  1  0
 26 75  1  6
 27 28  1  1
 27 29  1  0
 28 76  1  0
 28 77  1  0
 28 78  1  0
 29 36  1  0
 29 30  1  0
 29 79  1  1
 30 31  1  0
 30 80  1  0
 30 81  1  0
 31 32  1  0
 31 82  1  0
 31 83  1  0
 32 39  1  0
 32 33  1  1
 32 34  1  0
 33 84  1  0
 33 85  1  0
 33 86  1  0
 34 35  1  0
 36 35  1  1
 36 37  1  0
 37 38  1  0
 37 39  1  0
 37 87  1  6
M  END
>  <i_m_ct_stereo_status>  (365) 
1

>  <s_m_source_file>  (365) 
/var/tmp/pbs.5076255.sched01/tmpux3k924y/120tsqzh4i4.sdf

>  <i_m_source_file_index>  (365) 
38

>  <i_lp_mmshare_version>  (365) 
48012

>  <i_f3d_flags>  (365) 
0

>  <s_epik_input>  (365) 
W0NIM11bQ0BIXShbT0hdKVtDSDJdW0NASF0oW0NIMl0xKU9bQ0BIXTJPW0NAQF0oW0NIM10pKE9PMylbQ0gyXVtDSDJdW0NASF00W0NAXTIzW0NASF0xT1tDQEBIXShbQ0gyXTUpW0NAQF00KFtDSDNdKVtDQEBIXTZbQ0BIXShPQyhPNykoW0NIM10pW0NIM10pW0NASF01W0NIMl1bQ0gyXVtDQEhdKFtDQEBdNjc4KVtDQEBIXShbQ0gzXSlbQ0gyXVtDSDJdOA==

>  <s_epik_cmdline>  (365) 
J2VwaWtfcHl0aG9uJywgJy1waHQnLCAnMi4wJywgJy1waCcsICc3LjAnLCAnLXRuJywgJzgnLCAnLW1hJywgJzIwMCcsICctaW1hZScsICc8aW5maWxlLm1hZT4nLCAnLW9tYWUnLCAnPG91dGZpbGUubWFlPic=

>  <r_lp_tautomer_probability>  (365) 
1

>  <r_epik_Ionization_Penalty>  (365) 
2.52548e-07

>  <r_epik_Ionization_Penalty_Charging>  (365) 
0

>  <r_epik_Ionization_Penalty_Neutral>  (365) 
2.52548e-07

>  <r_epik_State_Penalty>  (365) 
-0

>  <r_epik_Charging_Adjusted_Penalty>  (365) 
0

>  <i_epik_Tot_Q>  (365) 
0

>  <i_epik_Tot_abs_Q>  (365) 
0

>  <s_epik_Chemistry_Notes>  (365) 
This compound contains an acetal/aminal-like group ( X-CH(R)-Y where X, Y are N, S, or O) that may be acid/base labile, releasing an aldehyde.

>  <s_lp_Force_Field>  (365) 
OPLS3e

>  <r_lp_Energy>  (365) 
187.778

>  <b_lp_Chiralities_Consistent>  (365) 
1

>  <s_lp_Variant>  (365) 
116:0-1

>  <s_i_glide_gridfile>  (365) 
pfpi4k_grid

>  <i_i_glide_lignum>  (365) 
38

>  <i_i_glide_rotatable_bonds>  (365) 
3

>  <r_i_docking_score>  (365) 
-1.97963

>  <r_i_glide_ligand_efficiency>  (365) 
-0.0507597

>  <r_i_glide_ligand_efficiency_sa>  (365) 
-0.172137

>  <r_i_glide_ligand_efficiency_ln>  (365) 
-0.424488

>  <r_i_glide_gscore>  (365) 
-1.97963

>  <r_i_glide_lipo>  (365) 
-0.138176

>  <r_i_glide_hbond>  (365) 
-0.16

>  <r_i_glide_metal>  (365) 
-0

>  <r_i_glide_rewards>  (365) 
0

>  <r_i_glide_evdw>  (365) 
-18.0559

>  <r_i_glide_ecoul>  (365) 
-6.04159

>  <r_i_glide_erotb>  (365) 
0.137659

>  <r_i_glide_esite>  (365) 
-0.0100764

>  <r_i_glide_emodel>  (365) 
-26.7377

>  <r_i_glide_energy>  (365) 
-24.0975

>  <r_i_glide_einternal>  (365) 
1.12603

>  <r_i_glide_intrahb_reward>  (365) 
-0

>  <i_i_glide_confnum>  (365) 
2

>  <i_i_glide_posenum>  (365) 
18

>  <r_i_glide_eff_state_penalty>  (365) 
0

>  <ligand_id>  (365) 
116

>  <original_smiles>  (365) 
CC(O)CC1CC2OC3CC4CCC5C(C)CCC56OC(C)(C)OC4C6C3(C)C3CCC4(C)OOC23C(O1)O4

>  <smiles>  (365) 
[H]OC([H])(C([H])([H])[H])C([H])([H])C1([H])OC2([H])OC3(C([H])([H])[H])OOC24C([H])(OC2([H])C([H])([H])C5([H])C([H])([H])C([H])([H])C6([H])C([H])(C([H])([H])[H])C([H])([H])C([H])([H])C67OC(C([H])([H])[H])(C([H])([H])[H])OC5([H])C7([H])C2(C([H])([H])[H])C4([H])C([H])([H])C3([H])[H])C1([H])[H]

$$$$
116:0:2
     RDKit          3D

 87 94  0  0  1  0  0  0  0  0999 V2000
    1.8970   -3.6945   -2.0692 C   0  0  0  0  0  0  0  0  0  0  0  0
    3.2418   -2.9915   -1.8375 C   0  0  2  0  0  0  0  0  0  0  0  0
    4.2815   -3.8234   -2.3201 O   0  0  0  0  0  0  0  0  0  0  0  0
    3.4688   -2.5476   -0.3761 C   0  0  0  0  0  0  0  0  0  0  0  0
    3.5246   -3.6726    0.6789 C   0  0  2  0  0  0  0  0  0  0  0  0
    3.5604   -3.1361    2.1205 C   0  0  0  0  0  0  0  0  0  0  0  0
    3.7440   -4.3193    3.0722 C   0  0  2  0  0  0  0  0  0  0  0  0
    3.7725   -3.8627    4.4241 O   0  0  0  0  0  0  0  0  0  0  0  0
    4.0230   -4.7873    5.4967 C   0  0  1  0  0  0  0  0  0  0  0  0
    2.8410   -4.5333    6.5367 C   0  0  0  0  0  0  0  0  0  0  0  0
    1.6025   -5.4553    6.3284 C   0  0  2  0  0  0  0  0  0  0  0  0
    0.2089   -5.4184    5.6337 C   0  0  0  0  0  0  0  0  0  0  0  0
    0.1562   -6.0120    4.1654 C   0  0  0  0  0  0  0  0  0  0  0  0
    0.6248   -7.4984    3.8244 C   0  0  1  0  0  0  0  0  0  0  0  0
    0.3975   -7.9125    2.3413 C   0  0  1  0  0  0  0  0  0  0  0  0
    0.4511   -6.7756    1.3088 C   0  0  0  0  0  0  0  0  0  0  0  0
    1.4899   -8.9450    2.0489 C   0  0  0  0  0  0  0  0  0  0  0  0
    2.6822   -8.4791    2.8644 C   0  0  0  0  0  0  0  0  0  0  0  0
    2.0900   -8.0343    4.1904 C   0  0  2  0  0  0  0  0  0  0  0  0
    1.9627   -9.2437    4.9431 O   0  0  0  0  0  0  0  0  0  0  0  0
    1.4927   -9.1372    6.2576 C   0  0  0  0  0  0  0  0  0  0  0  0
    0.2279  -10.0060    6.3843 C   0  0  0  0  0  0  0  0  0  0  0  0
    2.5943   -9.6450    7.2009 C   0  0  0  0  0  0  0  0  0  0  0  0
    1.1294   -7.8339    6.5981 O   0  0  0  0  0  0  0  0  0  0  0  0
    2.1364   -6.8583    6.3511 C   0  0  1  0  0  0  0  0  0  0  0  0
    2.8814   -6.9976    5.0163 C   0  0  1  0  0  0  0  0  0  0  0  0
    4.3165   -6.3065    5.0640 C   0  0  2  0  0  0  0  0  0  0  0  0
    5.1615   -6.9541    6.2045 C   0  0  0  0  0  0  0  0  0  0  0  0
    5.2706   -6.2455    3.7889 C   0  0  1  0  0  0  0  0  0  0  0  0
    5.9025   -7.5482    3.2599 C   0  0  0  0  0  0  0  0  0  0  0  0
    7.2295   -7.2957    2.5299 C   0  0  0  0  0  0  0  0  0  0  0  0
    7.1420   -6.1687    1.4892 C   0  0  2  0  0  0  0  0  0  0  0  0
    8.2904   -6.2874    0.4776 C   0  0  0  0  0  0  0  0  0  0  0  0
    7.3538   -4.8969    2.0724 O   0  0  0  0  0  0  0  0  0  0  0  0
    6.0956   -4.2515    2.6754 O   0  0  0  0  0  0  0  0  0  0  0  0
    4.9978   -5.1373    2.7116 C   0  0  2  0  0  0  0  0  0  0  0  0
    4.8316   -5.5974    1.2353 C   0  0  1  0  0  0  0  0  0  0  0  0
    4.6905   -4.4505    0.4484 O   0  0  0  0  0  0  0  0  0  0  0  0
    5.9292   -6.3146    0.7746 O   0  0  0  0  0  0  0  0  0  0  0  0
    1.0468   -3.0567   -1.8457 H   0  0  0  0  0  0  0  0  0  0  0  0
    1.7899   -4.5950   -1.4741 H   0  0  0  0  0  0  0  0  0  0  0  0
    1.8109   -3.9759   -3.1184 H   0  0  0  0  0  0  0  0  0  0  0  0
    3.2526   -2.0846   -2.4477 H   0  0  0  0  0  0  0  0  0  0  0  0
    3.9857   -4.7359   -2.3027 H   0  0  0  0  0  0  0  0  0  0  0  0
    4.3725   -1.9465   -0.3060 H   0  0  0  0  0  0  0  0  0  0  0  0
    2.6571   -1.8700   -0.1057 H   0  0  0  0  0  0  0  0  0  0  0  0
    2.6561   -4.3137    0.5821 H   0  0  0  0  0  0  0  0  0  0  0  0
    4.3696   -2.4185    2.2484 H   0  0  0  0  0  0  0  0  0  0  0  0
    2.6333   -2.6182    2.3616 H   0  0  0  0  0  0  0  0  0  0  0  0
    2.8662   -4.9328    2.9024 H   0  0  0  0  0  0  0  0  0  0  0  0
    4.9313   -4.3825    5.9575 H   0  0  0  0  0  0  0  0  0  0  0  0
    3.2343   -4.7522    7.5279 H   0  0  0  0  0  0  0  0  0  0  0  0
    2.5746   -3.4766    6.5797 H   0  0  0  0  0  0  0  0  0  0  0  0
    1.7488   -4.9330    5.3975 H   0  0  0  0  0  0  0  0  0  0  0  0
   -0.4955   -5.9811    6.2472 H   0  0  0  0  0  0  0  0  0  0  0  0
   -0.1918   -4.4021    5.6375 H   0  0  0  0  0  0  0  0  0  0  0  0
   -0.8917   -5.9615    3.8754 H   0  0  0  0  0  0  0  0  0  0  0  0
    0.6666   -5.3076    3.5127 H   0  0  0  0  0  0  0  0  0  0  0  0
   -0.0857   -8.1083    4.3698 H   0  0  0  0  0  0  0  0  0  0  0  0
   -0.5769   -8.3909    2.2365 H   0  0  0  0  0  0  0  0  0  0  0  0
    1.3901   -6.2218    1.3628 H   0  0  0  0  0  0  0  0  0  0  0  0
   -0.3794   -6.0900    1.4489 H   0  0  0  0  0  0  0  0  0  0  0  0
    0.3618   -7.1776    0.2984 H   0  0  0  0  0  0  0  0  0  0  0  0
    1.1653   -9.9290    2.4010 H   0  0  0  0  0  0  0  0  0  0  0  0
    1.7533   -9.0324    0.9945 H   0  0  0  0  0  0  0  0  0  0  0  0
    3.4260   -9.2699    2.9802 H   0  0  0  0  0  0  0  0  0  0  0  0
    3.1251   -7.6307    2.3598 H   0  0  0  0  0  0  0  0  0  0  0  0
   -0.5834   -9.6172    5.7747 H   0  0  0  0  0  0  0  0  0  0  0  0
   -0.1002  -10.0337    7.4211 H   0  0  0  0  0  0  0  0  0  0  0  0
    0.4469  -11.0238    6.0591 H   0  0  0  0  0  0  0  0  0  0  0  0
    3.5229   -9.1127    7.0425 H   0  0  0  0  0  0  0  0  0  0  0  0
    2.7805  -10.6937    6.9860 H   0  0  0  0  0  0  0  0  0  0  0  0
    2.2834   -9.5429    8.2394 H   0  0  0  0  0  0  0  0  0  0  0  0
    2.7776   -6.9636    7.2185 H   0  0  0  0  0  0  0  0  0  0  0  0
    2.5724   -6.2898    4.2893 H   0  0  0  0  0  0  0  0  0  0  0  0
    5.1998   -8.0397    6.1075 H   0  0  0  0  0  0  0  0  0  0  0  0
    4.7956   -6.7246    7.2050 H   0  0  0  0  0  0  0  0  0  0  0  0
    6.1924   -6.5957    6.2185 H   0  0  0  0  0  0  0  0  0  0  0  0
    6.1463   -5.7994    4.2624 H   0  0  0  0  0  0  0  0  0  0  0  0
    6.0961   -8.2514    4.0688 H   0  0  0  0  0  0  0  0  0  0  0  0
    5.2393   -8.0598    2.5710 H   0  0  0  0  0  0  0  0  0  0  0  0
    8.0330   -7.0751    3.2317 H   0  0  0  0  0  0  0  0  0  0  0  0
    7.5153   -8.2246    2.0329 H   0  0  0  0  0  0  0  0  0  0  0  0
    8.2426   -5.4816   -0.2522 H   0  0  0  0  0  0  0  0  0  0  0  0
    8.2628   -7.2374   -0.0623 H   0  0  0  0  0  0  0  0  0  0  0  0
    9.2602   -6.2269    0.9714 H   0  0  0  0  0  0  0  0  0  0  0  0
    3.9495   -6.2077    1.0865 H   0  0  0  0  0  0  0  0  0  0  0  0
  1  2  1  0
  1 40  1  0
  1 41  1  0
  1 42  1  0
  2  3  1  0
  2  4  1  0
  2 43  1  6
  3 44  1  0
  4  5  1  0
  4 45  1  0
  4 46  1  0
  5 38  1  0
  5  6  1  0
  5 47  1  1
  6  7  1  0
  6 48  1  0
  6 49  1  0
  7 36  1  0
  7  8  1  0
  7 50  1  1
  8  9  1  0
  9 27  1  0
  9 10  1  0
  9 51  1  1
 10 11  1  0
 10 52  1  0
 10 53  1  0
 11 25  1  0
 11 12  1  0
 11 54  1  1
 12 13  1  0
 12 55  1  0
 12 56  1  0
 13 14  1  0
 13 57  1  0
 13 58  1  0
 14 19  1  0
 14 15  1  0
 14 59  1  1
 15 16  1  0
 15 17  1  0
 15 60  1  1
 16 61  1  0
 16 62  1  0
 16 63  1  0
 17 18  1  0
 17 64  1  0
 17 65  1  0
 18 19  1  0
 18 66  1  0
 18 67  1  0
 19 26  1  0
 19 20  1  1
 20 21  1  0
 21 22  1  0
 21 23  1  0
 21 24  1  0
 22 68  1  0
 22 69  1  0
 22 70  1  0
 23 71  1  0
 23 72  1  0
 23 73  1  0
 24 25  1  0
 25 26  1  0
 25 74  1  1
 26 27  1  0
 26 75  1  6
 27 28  1  1
 27 29  1  0
 28 76  1  0
 28 77  1  0
 28 78  1  0
 29 36  1  0
 29 30  1  0
 29 79  1  1
 30 31  1  0
 30 80  1  0
 30 81  1  0
 31 32  1  0
 31 82  1  0
 31 83  1  0
 32 39  1  0
 32 33  1  6
 32 34  1  0
 33 84  1  0
 33 85  1  0
 33 86  1  0
 34 35  1  0
 36 35  1  6
 36 37  1  0
 37 38  1  0
 37 39  1  0
 37 87  1  1
M  END
>  <i_m_ct_stereo_status>  (366) 
1

>  <s_m_source_file>  (366) 
/var/tmp/pbs.5076255.sched01/tmpux3k924y/120tsqzh4i4.sdf

>  <i_m_source_file_index>  (366) 
38

>  <i_lp_mmshare_version>  (366) 
48012

>  <i_f3d_flags>  (366) 
0

>  <s_epik_input>  (366) 
W0NIM11bQ0BIXShbT0hdKVtDSDJdW0NASF0oW0NIMl0xKU9bQ0BIXTJPW0NAQF0oW0NIM10pKE9PMylbQ0gyXVtDSDJdW0NASF00W0NAXTIzW0NASF0xT1tDQEBIXShbQ0gyXTUpW0NAQF00KFtDSDNdKVtDQEBIXTZbQ0BIXShPQyhPNykoW0NIM10pW0NIM10pW0NASF01W0NIMl1bQ0gyXVtDQEhdKFtDQEBdNjc4KVtDQEBIXShbQ0gzXSlbQ0gyXVtDSDJdOA==

>  <s_epik_cmdline>  (366) 
J2VwaWtfcHl0aG9uJywgJy1waHQnLCAnMi4wJywgJy1waCcsICc3LjAnLCAnLXRuJywgJzgnLCAnLW1hJywgJzIwMCcsICctaW1hZScsICc8aW5maWxlLm1hZT4nLCAnLW9tYWUnLCAnPG91dGZpbGUubWFlPic=

>  <r_lp_tautomer_probability>  (366) 
1

>  <r_epik_Ionization_Penalty>  (366) 
2.52548e-07

>  <r_epik_Ionization_Penalty_Charging>  (366) 
0

>  <r_epik_Ionization_Penalty_Neutral>  (366) 
2.52548e-07

>  <r_epik_State_Penalty>  (366) 
-0

>  <r_epik_Charging_Adjusted_Penalty>  (366) 
0

>  <i_epik_Tot_Q>  (366) 
0

>  <i_epik_Tot_abs_Q>  (366) 
0

>  <s_epik_Chemistry_Notes>  (366) 
This compound contains an acetal/aminal-like group ( X-CH(R)-Y where X, Y are N, S, or O) that may be acid/base labile, releasing an aldehyde.

>  <s_lp_Force_Field>  (366) 
OPLS3e

>  <r_lp_Energy>  (366) 
187.778

>  <b_lp_Chiralities_Consistent>  (366) 
1

>  <s_lp_Variant>  (366) 
116:0-1

>  <s_i_glide_gridfile>  (366) 
pfpi4k_grid

>  <i_i_glide_lignum>  (366) 
38

>  <i_i_glide_rotatable_bonds>  (366) 
3

>  <r_i_docking_score>  (366) 
-1.97645

>  <r_i_glide_ligand_efficiency>  (366) 
-0.0506783

>  <r_i_glide_ligand_efficiency_sa>  (366) 
-0.171861

>  <r_i_glide_ligand_efficiency_ln>  (366) 
-0.423808

>  <r_i_glide_gscore>  (366) 
-1.97645

>  <r_i_glide_lipo>  (366) 
-0.0575559

>  <r_i_glide_hbond>  (366) 
0

>  <r_i_glide_metal>  (366) 
-0

>  <r_i_glide_rewards>  (366) 
-0.188571

>  <r_i_glide_evdw>  (366) 
-20.1247

>  <r_i_glide_ecoul>  (366) 
-5.42967

>  <r_i_glide_erotb>  (366) 
0.137659

>  <r_i_glide_esite>  (366) 
-0.0473036

>  <r_i_glide_emodel>  (366) 
-27.4291

>  <r_i_glide_energy>  (366) 
-25.5543

>  <r_i_glide_einternal>  (366) 
2.55996

>  <r_i_glide_intrahb_reward>  (366) 
-0

>  <i_i_glide_confnum>  (366) 
1

>  <i_i_glide_posenum>  (366) 
37

>  <r_i_glide_eff_state_penalty>  (366) 
0

>  <ligand_id>  (366) 
116

>  <original_smiles>  (366) 
CC(O)CC1CC2OC3CC4CCC5C(C)CCC56OC(C)(C)OC4C6C3(C)C3CCC4(C)OOC23C(O1)O4

>  <smiles>  (366) 
[H]OC([H])(C([H])([H])[H])C([H])([H])C1([H])OC2([H])OC3(C([H])([H])[H])OOC24C([H])(OC2([H])C([H])([H])C5([H])C([H])([H])C([H])([H])C6([H])C([H])(C([H])([H])[H])C([H])([H])C([H])([H])C67OC(C([H])([H])[H])(C([H])([H])[H])OC5([H])C7([H])C2(C([H])([H])[H])C4([H])C([H])([H])C3([H])[H])C1([H])[H]

$$$$
117:0:0
     RDKit          3D

 34 37  0  0  1  0  0  0  0  0999 V2000
    2.9077   -6.8391    2.6043 C   0  0  0  0  0  0  0  0  0  0  0  0
    2.6895   -5.9704    1.4287 C   0  0  0  0  0  0  0  0  0  0  0  0
    1.5580   -6.0325    0.7392 N   0  0  0  0  0  0  0  0  0  0  0  0
    1.7771   -5.1106   -0.2930 O   0  0  0  0  0  0  0  0  0  0  0  0
    3.0023   -4.5723   -0.0723 C   0  0  0  0  0  0  0  0  0  0  0  0
    3.4973   -3.4950   -0.9918 C   0  0  1  0  0  0  0  0  0  0  0  0
    2.5134   -3.2554   -2.1861 C   0  0  0  0  0  0  0  0  0  0  0  0
    3.0601   -2.1783   -3.1325 C   0  0  2  0  0  0  0  0  0  0  0  0
    4.4316   -2.6078   -3.6691 C   0  0  0  0  0  0  0  0  0  0  0  0
    5.4167   -2.7867   -2.4962 C   0  0  1  0  0  0  0  0  0  0  0  0
    5.5437   -1.4758   -1.6946 C   0  0  0  0  0  0  0  0  0  0  0  0
    4.1648   -1.0534   -1.1739 C   0  0  1  0  0  0  0  0  0  0  0  0
    3.2201   -0.8475   -2.3827 C   0  0  0  0  0  0  0  0  0  0  0  0
    3.6266   -2.1487   -0.2279 C   0  0  0  0  0  0  0  0  0  0  0  0
    4.8915   -3.8890   -1.5566 C   0  0  0  0  0  0  0  0  0  0  0  0
    3.6133   -5.0721    1.0011 N   0  0  0  0  0  0  0  0  0  0  0  0
    2.0440   -7.4849    2.7792 H   0  0  0  0  0  0  0  0  0  0  0  0
    3.0639   -6.2187    3.4920 H   0  0  0  0  0  0  0  0  0  0  0  0
    3.7845   -7.4721    2.4415 H   0  0  0  0  0  0  0  0  0  0  0  0
    2.3352   -4.1562   -2.7764 H   0  0  0  0  0  0  0  0  0  0  0  0
    1.5306   -2.9588   -1.8194 H   0  0  0  0  0  0  0  0  0  0  0  0
    2.3665   -2.0437   -3.9611 H   0  0  0  0  0  0  0  0  0  0  0  0
    4.3441   -3.5332   -4.2415 H   0  0  0  0  0  0  0  0  0  0  0  0
    4.7837   -1.8232   -4.3355 H   0  0  0  0  0  0  0  0  0  0  0  0
    6.3929   -3.0774   -2.8911 H   0  0  0  0  0  0  0  0  0  0  0  0
    6.2489   -1.6001   -0.8722 H   0  0  0  0  0  0  0  0  0  0  0  0
    5.8965   -0.6680   -2.3234 H   0  0  0  0  0  0  0  0  0  0  0  0
    4.2665   -0.1263   -0.6161 H   0  0  0  0  0  0  0  0  0  0  0  0
    3.6048   -0.0695   -3.0483 H   0  0  0  0  0  0  0  0  0  0  0  0
    2.2387   -0.5049   -2.0836 H   0  0  0  0  0  0  0  0  0  0  0  0
    2.6643   -1.8428    0.1825 H   0  0  0  0  0  0  0  0  0  0  0  0
    4.3034   -2.2529    0.6241 H   0  0  0  0  0  0  0  0  0  0  0  0
    5.6065   -4.0406   -0.7468 H   0  0  0  0  0  0  0  0  0  0  0  0
    4.8393   -4.8347   -2.0971 H   0  0  0  0  0  0  0  0  0  0  0  0
  1  2  1  0
  1 17  1  0
  1 18  1  0
  1 19  1  0
  2 16  1  0
  2  3  2  0
  3  4  1  0
  4  5  1  0
  6  5  1  1
  5 16  2  0
  6 14  1  0
  6 15  1  0
  6  7  1  0
  7  8  1  0
  7 20  1  0
  7 21  1  0
  8 13  1  0
  8  9  1  0
  8 22  1  6
  9 10  1  0
  9 23  1  0
  9 24  1  0
 10 11  1  0
 10 15  1  0
 10 25  1  6
 11 12  1  0
 11 26  1  0
 11 27  1  0
 12 13  1  0
 12 14  1  0
 12 28  1  1
 13 29  1  0
 13 30  1  0
 14 31  1  0
 14 32  1  0
 15 33  1  0
 15 34  1  0
M  END
>  <i_m_ct_stereo_status>  (367) 
1

>  <s_m_source_file>  (367) 
/var/tmp/pbs.5076255.sched01/tmpux3k924y/120tsqzh4i4.sdf

>  <i_m_source_file_index>  (367) 
39

>  <i_lp_mmshare_version>  (367) 
48012

>  <i_f3d_flags>  (367) 
0

>  <s_epik_input>  (367) 
W0NIM11jMW5vYyhuMSlDMjNbQ0gyXVtDQEhdNFtDSDJdW0NAQEhdKFtDSDJdMylbQ0gyXVtDQEhdKFtDSDJdNClbQ0gyXTI=

>  <s_epik_cmdline>  (367) 
J2VwaWtfcHl0aG9uJywgJy1waHQnLCAnMi4wJywgJy1waCcsICc3LjAnLCAnLXRuJywgJzgnLCAnLW1hJywgJzIwMCcsICctaW1hZScsICc8aW5maWxlLm1hZT4nLCAnLW9tYWUnLCAnPG91dGZpbGUubWFlPic=

>  <r_lp_tautomer_probability>  (367) 
1

>  <r_epik_Ionization_Penalty>  (367) 
2.90446e-10

>  <r_epik_Ionization_Penalty_Charging>  (367) 
0

>  <r_epik_Ionization_Penalty_Neutral>  (367) 
2.90446e-10

>  <r_epik_State_Penalty>  (367) 
-0

>  <r_epik_Charging_Adjusted_Penalty>  (367) 
0

>  <i_epik_Tot_Q>  (367) 
0

>  <i_epik_Tot_abs_Q>  (367) 
0

>  <s_lp_Force_Field>  (367) 
OPLS3e

>  <r_lp_Energy>  (367) 
-1.36945

>  <b_lp_Chiralities_Consistent>  (367) 
1

>  <s_lp_Variant>  (367) 
117:0-1

>  <s_i_glide_gridfile>  (367) 
pfpi4k_grid

>  <i_i_glide_lignum>  (367) 
39

>  <i_i_glide_rotatable_bonds>  (367) 
1

>  <r_i_docking_score>  (367) 
-3.49552

>  <r_i_glide_ligand_efficiency>  (367) 
-0.21847

>  <r_i_glide_ligand_efficiency_sa>  (367) 
-0.55051

>  <r_i_glide_ligand_efficiency_ln>  (367) 
-0.926557

>  <r_i_glide_gscore>  (367) 
-3.49552

>  <r_i_glide_lipo>  (367) 
-0.465496

>  <r_i_glide_hbond>  (367) 
0

>  <r_i_glide_metal>  (367) 
-0

>  <r_i_glide_rewards>  (367) 
-1.92072

>  <r_i_glide_evdw>  (367) 
-13.5899

>  <r_i_glide_ecoul>  (367) 
-3.95659

>  <r_i_glide_erotb>  (367) 
0.352609

>  <r_i_glide_esite>  (367) 
-0.188929

>  <r_i_glide_emodel>  (367) 
-21.4361

>  <r_i_glide_energy>  (367) 
-17.5465

>  <r_i_glide_einternal>  (367) 
1.49298

>  <r_i_glide_intrahb_reward>  (367) 
-0

>  <i_i_glide_confnum>  (367) 
5

>  <i_i_glide_posenum>  (367) 
5

>  <r_i_glide_eff_state_penalty>  (367) 
0

>  <ligand_id>  (367) 
117

>  <original_smiles>  (367) 
Cc1noc(C23CC4CC(CC(C4)C2)C3)n1

>  <smiles>  (367) 
[H]C([H])([H])c1noc(C23C([H])([H])C4([H])C([H])([H])C([H])(C([H])([H])C([H])(C4([H])[H])C2([H])[H])C3([H])[H])n1

$$$$
117:0:1
     RDKit          3D

 34 37  0  0  1  0  0  0  0  0999 V2000
    2.6472   -7.8337    1.8264 C   0  0  0  0  0  0  0  0  0  0  0  0
    2.7435   -6.5208    1.1442 C   0  0  0  0  0  0  0  0  0  0  0  0
    1.6730   -5.8929    0.6752 N   0  0  0  0  0  0  0  0  0  0  0  0
    2.2157   -4.7413    0.0863 O   0  0  0  0  0  0  0  0  0  0  0  0
    3.5533   -4.8025    0.3021 C   0  0  0  0  0  0  0  0  0  0  0  0
    4.4233   -3.6798   -0.1967 C   0  0  1  0  0  0  0  0  0  0  0  0
    4.3356   -3.5697   -1.7404 C   0  0  0  0  0  0  0  0  0  0  0  0
    5.2354   -2.4215   -2.2455 C   0  0  2  0  0  0  0  0  0  0  0  0
    6.6976   -2.7085   -1.8523 C   0  0  0  0  0  0  0  0  0  0  0  0
    6.8050   -2.7869   -0.3145 C   0  0  1  0  0  0  0  0  0  0  0  0
    6.3402   -1.4677    0.3398 C   0  0  0  0  0  0  0  0  0  0  0  0
    4.8827   -1.1842   -0.0786 C   0  0  1  0  0  0  0  0  0  0  0  0
    4.7791   -1.0881   -1.6163 C   0  0  0  0  0  0  0  0  0  0  0  0
    3.9792   -2.3294    0.4274 C   0  0  0  0  0  0  0  0  0  0  0  0
    5.9085   -3.9324    0.1912 C   0  0  0  0  0  0  0  0  0  0  0  0
    3.9377   -5.9025    0.9477 N   0  0  0  0  0  0  0  0  0  0  0  0
    1.6148   -8.1748    1.8772 H   0  0  0  0  0  0  0  0  0  0  0  0
    3.0365   -7.7459    2.8399 H   0  0  0  0  0  0  0  0  0  0  0  0
    3.2285   -8.5763    1.2800 H   0  0  0  0  0  0  0  0  0  0  0  0
    4.6349   -4.5122   -2.2018 H   0  0  0  0  0  0  0  0  0  0  0  0
    3.3037   -3.3908   -2.0502 H   0  0  0  0  0  0  0  0  0  0  0  0
    5.1581   -2.3583   -3.3307 H   0  0  0  0  0  0  0  0  0  0  0  0
    7.0253   -3.6454   -2.3024 H   0  0  0  0  0  0  0  0  0  0  0  0
    7.3629   -1.9460   -2.2495 H   0  0  0  0  0  0  0  0  0  0  0  0
    7.8381   -2.9884   -0.0323 H   0  0  0  0  0  0  0  0  0  0  0  0
    6.4043   -1.5480    1.4260 H   0  0  0  0  0  0  0  0  0  0  0  0
    6.9930   -0.6385    0.0749 H   0  0  0  0  0  0  0  0  0  0  0  0
    4.5522   -0.2441    0.3631 H   0  0  0  0  0  0  0  0  0  0  0  0
    5.3871   -0.2629   -1.9876 H   0  0  0  0  0  0  0  0  0  0  0  0
    3.7511   -0.8687   -1.9095 H   0  0  0  0  0  0  0  0  0  0  0  0
    2.9405   -2.1120    0.1687 H   0  0  0  0  0  0  0  0  0  0  0  0
    4.0186   -2.3845    1.5166 H   0  0  0  0  0  0  0  0  0  0  0  0
    6.0068   -4.0244    1.2743 H   0  0  0  0  0  0  0  0  0  0  0  0
    6.2507   -4.8797   -0.2279 H   0  0  0  0  0  0  0  0  0  0  0  0
  1  2  1  0
  1 17  1  0
  1 18  1  0
  1 19  1  0
  2 16  1  0
  2  3  2  0
  3  4  1  0
  4  5  1  0
  6  5  1  1
  5 16  2  0
  6 14  1  0
  6 15  1  0
  6  7  1  0
  7  8  1  0
  7 20  1  0
  7 21  1  0
  8 13  1  0
  8  9  1  0
  8 22  1  6
  9 10  1  0
  9 23  1  0
  9 24  1  0
 10 11  1  0
 10 15  1  0
 10 25  1  6
 11 12  1  0
 11 26  1  0
 11 27  1  0
 12 13  1  0
 12 14  1  0
 12 28  1  1
 13 29  1  0
 13 30  1  0
 14 31  1  0
 14 32  1  0
 15 33  1  0
 15 34  1  0
M  END
>  <i_m_ct_stereo_status>  (368) 
1

>  <s_m_source_file>  (368) 
/var/tmp/pbs.5076255.sched01/tmpux3k924y/120tsqzh4i4.sdf

>  <i_m_source_file_index>  (368) 
39

>  <i_lp_mmshare_version>  (368) 
48012

>  <i_f3d_flags>  (368) 
0

>  <s_epik_input>  (368) 
W0NIM11jMW5vYyhuMSlDMjNbQ0gyXVtDQEhdNFtDSDJdW0NAQEhdKFtDSDJdMylbQ0gyXVtDQEhdKFtDSDJdNClbQ0gyXTI=

>  <s_epik_cmdline>  (368) 
J2VwaWtfcHl0aG9uJywgJy1waHQnLCAnMi4wJywgJy1waCcsICc3LjAnLCAnLXRuJywgJzgnLCAnLW1hJywgJzIwMCcsICctaW1hZScsICc8aW5maWxlLm1hZT4nLCAnLW9tYWUnLCAnPG91dGZpbGUubWFlPic=

>  <r_lp_tautomer_probability>  (368) 
1

>  <r_epik_Ionization_Penalty>  (368) 
2.90446e-10

>  <r_epik_Ionization_Penalty_Charging>  (368) 
0

>  <r_epik_Ionization_Penalty_Neutral>  (368) 
2.90446e-10

>  <r_epik_State_Penalty>  (368) 
-0

>  <r_epik_Charging_Adjusted_Penalty>  (368) 
0

>  <i_epik_Tot_Q>  (368) 
0

>  <i_epik_Tot_abs_Q>  (368) 
0

>  <s_lp_Force_Field>  (368) 
OPLS3e

>  <r_lp_Energy>  (368) 
-1.36945

>  <b_lp_Chiralities_Consistent>  (368) 
1

>  <s_lp_Variant>  (368) 
117:0-1

>  <s_i_glide_gridfile>  (368) 
pfpi4k_grid

>  <i_i_glide_lignum>  (368) 
39

>  <i_i_glide_rotatable_bonds>  (368) 
1

>  <r_i_docking_score>  (368) 
-3.20556

>  <r_i_glide_ligand_efficiency>  (368) 
-0.200348

>  <r_i_glide_ligand_efficiency_sa>  (368) 
-0.504844

>  <r_i_glide_ligand_efficiency_ln>  (368) 
-0.849698

>  <r_i_glide_gscore>  (368) 
-3.20556

>  <r_i_glide_lipo>  (368) 
-0.223948

>  <r_i_glide_hbond>  (368) 
0

>  <r_i_glide_metal>  (368) 
-0

>  <r_i_glide_rewards>  (368) 
-1.92072

>  <r_i_glide_evdw>  (368) 
-17.5848

>  <r_i_glide_ecoul>  (368) 
-2.56457

>  <r_i_glide_erotb>  (368) 
0.352609

>  <r_i_glide_esite>  (368) 
-0.149581

>  <r_i_glide_emodel>  (368) 
-24.4616

>  <r_i_glide_energy>  (368) 
-20.1494

>  <r_i_glide_einternal>  (368) 
0.0178823

>  <r_i_glide_intrahb_reward>  (368) 
-0

>  <i_i_glide_confnum>  (368) 
4

>  <i_i_glide_posenum>  (368) 
1

>  <r_i_glide_eff_state_penalty>  (368) 
0

>  <ligand_id>  (368) 
117

>  <original_smiles>  (368) 
Cc1noc(C23CC4CC(CC(C4)C2)C3)n1

>  <smiles>  (368) 
[H]C([H])([H])c1noc(C23C([H])([H])C4([H])C([H])([H])C([H])(C([H])([H])C([H])(C4([H])[H])C2([H])[H])C3([H])[H])n1

$$$$
117:0:2
     RDKit          3D

 34 37  0  0  1  0  0  0  0  0999 V2000
    3.9056   -5.5183    3.1934 C   0  0  0  0  0  0  0  0  0  0  0  0
    3.4157   -5.0853    1.8690 C   0  0  0  0  0  0  0  0  0  0  0  0
    2.2955   -5.5832    1.3508 N   0  0  0  0  0  0  0  0  0  0  0  0
    2.2189   -4.9630    0.1009 O   0  0  0  0  0  0  0  0  0  0  0  0
    3.2723   -4.0939    0.0550 C   0  0  0  0  0  0  0  0  0  0  0  0
    3.4875   -3.2520   -1.1666 C   0  0  1  0  0  0  0  0  0  0  0  0
    2.2286   -3.2397   -2.0816 C   0  0  0  0  0  0  0  0  0  0  0  0
    2.4303   -2.3409   -3.3108 C   0  0  2  0  0  0  0  0  0  0  0  0
    3.6090   -2.9099   -4.1037 C   0  0  0  0  0  0  0  0  0  0  0  0
    4.8806   -2.8900   -3.2243 C   0  0  1  0  0  0  0  0  0  0  0  0
    5.1430   -1.4610   -2.7421 C   0  0  0  0  0  0  0  0  0  0  0  0
    3.9874   -0.8990   -1.9697 C   0  0  1  0  0  0  0  0  0  0  0  0
    2.7756   -0.8872   -2.9057 C   0  0  0  0  0  0  0  0  0  0  0  0
    3.7587   -1.7756   -0.7323 C   0  0  0  0  0  0  0  0  0  0  0  0
    4.7141   -3.7640   -1.9793 C   0  0  0  0  0  0  0  0  0  0  0  0
    4.0677   -4.1638    1.1122 N   0  0  0  0  0  0  0  0  0  0  0  0
    3.2264   -6.2514    3.6236 H   0  0  0  0  0  0  0  0  0  0  0  0
    3.9570   -4.6561    3.8585 H   0  0  0  0  0  0  0  0  0  0  0  0
    4.8891   -5.9761    3.0827 H   0  0  0  0  0  0  0  0  0  0  0  0
    1.9612   -4.2420   -2.4231 H   0  0  0  0  0  0  0  0  0  0  0  0
    1.3535   -2.9313   -1.5330 H   0  0  0  0  0  0  0  0  0  0  0  0
    1.5407   -2.3793   -3.9425 H   0  0  0  0  0  0  0  0  0  0  0  0
    3.4063   -3.9353   -4.4190 H   0  0  0  0  0  0  0  0  0  0  0  0
    3.7236   -2.2899   -4.9927 H   0  0  0  0  0  0  0  0  0  0  0  0
    5.7263   -3.2585   -3.8041 H   0  0  0  0  0  0  0  0  0  0  0  0
    6.0702   -1.4133   -2.1605 H   0  0  0  0  0  0  0  0  0  0  0  0
    5.1156   -0.7980   -3.5981 H   0  0  0  0  0  0  0  0  0  0  0  0
    4.2554    0.1220   -1.6947 H   0  0  0  0  0  0  0  0  0  0  0  0
    2.9325   -0.2814   -3.7988 H   0  0  0  0  0  0  0  0  0  0  0  0
    2.0058   -0.3671   -2.3768 H   0  0  0  0  0  0  0  0  0  0  0  0
    2.9441   -1.3597   -0.1374 H   0  0  0  0  0  0  0  0  0  0  0  0
    4.6530   -1.7148   -0.1073 H   0  0  0  0  0  0  0  0  0  0  0  0
    5.6255   -3.7032   -1.3761 H   0  0  0  0  0  0  0  0  0  0  0  0
    4.6165   -4.7984   -2.3020 H   0  0  0  0  0  0  0  0  0  0  0  0
  1  2  1  0
  1 17  1  0
  1 18  1  0
  1 19  1  0
  2 16  1  0
  2  3  2  0
  3  4  1  0
  4  5  1  0
  6  5  1  1
  5 16  2  0
  6 14  1  0
  6 15  1  0
  6  7  1  0
  7  8  1  0
  7 20  1  0
  7 21  1  0
  8 13  1  0
  8  9  1  0
  8 22  1  6
  9 10  1  0
  9 23  1  0
  9 24  1  0
 10 11  1  0
 10 15  1  0
 10 25  1  6
 11 12  1  0
 11 26  1  0
 11 27  1  0
 12 13  1  0
 12 14  1  0
 12 28  1  1
 13 29  1  0
 13 30  1  0
 14 31  1  0
 14 32  1  0
 15 33  1  0
 15 34  1  0
M  END
>  <i_m_ct_stereo_status>  (369) 
1

>  <s_m_source_file>  (369) 
/var/tmp/pbs.5076255.sched01/tmpux3k924y/120tsqzh4i4.sdf

>  <i_m_source_file_index>  (369) 
39

>  <i_lp_mmshare_version>  (369) 
48012

>  <i_f3d_flags>  (369) 
0

>  <s_epik_input>  (369) 
W0NIM11jMW5vYyhuMSlDMjNbQ0gyXVtDQEhdNFtDSDJdW0NAQEhdKFtDSDJdMylbQ0gyXVtDQEhdKFtDSDJdNClbQ0gyXTI=

>  <s_epik_cmdline>  (369) 
J2VwaWtfcHl0aG9uJywgJy1waHQnLCAnMi4wJywgJy1waCcsICc3LjAnLCAnLXRuJywgJzgnLCAnLW1hJywgJzIwMCcsICctaW1hZScsICc8aW5maWxlLm1hZT4nLCAnLW9tYWUnLCAnPG91dGZpbGUubWFlPic=

>  <r_lp_tautomer_probability>  (369) 
1

>  <r_epik_Ionization_Penalty>  (369) 
2.90446e-10

>  <r_epik_Ionization_Penalty_Charging>  (369) 
0

>  <r_epik_Ionization_Penalty_Neutral>  (369) 
2.90446e-10

>  <r_epik_State_Penalty>  (369) 
-0

>  <r_epik_Charging_Adjusted_Penalty>  (369) 
0

>  <i_epik_Tot_Q>  (369) 
0

>  <i_epik_Tot_abs_Q>  (369) 
0

>  <s_lp_Force_Field>  (369) 
OPLS3e

>  <r_lp_Energy>  (369) 
-1.36945

>  <b_lp_Chiralities_Consistent>  (369) 
1

>  <s_lp_Variant>  (369) 
117:0-1

>  <s_i_glide_gridfile>  (369) 
pfpi4k_grid

>  <i_i_glide_lignum>  (369) 
39

>  <i_i_glide_rotatable_bonds>  (369) 
1

>  <r_i_docking_score>  (369) 
-2.82984

>  <r_i_glide_ligand_efficiency>  (369) 
-0.176865

>  <r_i_glide_ligand_efficiency_sa>  (369) 
-0.445672

>  <r_i_glide_ligand_efficiency_ln>  (369) 
-0.750105

>  <r_i_glide_gscore>  (369) 
-2.82984

>  <r_i_glide_lipo>  (369) 
-0.47487

>  <r_i_glide_hbond>  (369) 
0

>  <r_i_glide_metal>  (369) 
-0

>  <r_i_glide_rewards>  (369) 
-1.92666

>  <r_i_glide_evdw>  (369) 
-9.40236

>  <r_i_glide_ecoul>  (369) 
-1.41257

>  <r_i_glide_erotb>  (369) 
0.352609

>  <r_i_glide_esite>  (369) 
-0.0989179

>  <r_i_glide_emodel>  (369) 
-12.8193

>  <r_i_glide_energy>  (369) 
-10.8149

>  <r_i_glide_einternal>  (369) 
1.3678

>  <r_i_glide_intrahb_reward>  (369) 
-0

>  <i_i_glide_confnum>  (369) 
2

>  <i_i_glide_posenum>  (369) 
26

>  <r_i_glide_eff_state_penalty>  (369) 
0

>  <ligand_id>  (369) 
117

>  <original_smiles>  (369) 
Cc1noc(C23CC4CC(CC(C4)C2)C3)n1

>  <smiles>  (369) 
[H]C([H])([H])c1noc(C23C([H])([H])C4([H])C([H])([H])C([H])(C([H])([H])C([H])(C4([H])[H])C2([H])[H])C3([H])[H])n1

$$$$
118:0:0
     RDKit          3D

 53 58  0  0  1  0  0  0  0  0999 V2000
    3.0951   -1.0307   -2.6177 C   0  0  0  0  0  0  0  0  0  0  0  0
    4.0708   -2.1937   -2.5020 C   0  0  0  0  0  0  0  0  0  0  0  0
    4.5985   -2.4091   -3.9196 C   0  0  0  0  0  0  0  0  0  0  0  0
    5.2176   -1.9920   -1.5321 C   0  0  0  0  0  0  0  0  0  0  0  0
    5.8097   -0.9411   -1.3884 O   0  0  0  0  0  0  0  0  0  0  0  0
    5.5809   -3.3021   -0.8451 C   0  0  2  0  0  0  0  0  0  0  0  0
    4.7475   -4.1752   -1.6016 O   0  0  0  0  0  0  0  0  0  0  0  0
    3.5156   -3.5118   -1.9607 C   0  0  1  0  0  0  0  0  0  0  0  0
    2.4613   -3.6244   -0.7744 C   0  0  1  0  0  0  0  0  0  0  0  0
    1.4218   -4.5176   -1.1165 O   0  0  0  0  0  0  0  0  0  0  0  0
    3.1435   -4.1465    0.5164 C   0  0  2  0  0  0  0  0  0  0  0  0
    3.5391   -5.4567    0.1074 O   0  0  0  0  0  0  0  0  0  0  0  0
    2.8897   -4.4749    2.0466 C   0  0  1  0  0  0  0  0  0  0  0  0
    4.0785   -4.7278    3.0788 C   0  0  2  0  0  0  0  0  0  0  0  0
    4.7373   -3.4865    3.8607 C   0  0  0  0  0  0  0  0  0  0  0  0
    4.2314   -1.9919    3.7597 C   0  0  1  0  0  0  0  0  0  0  0  0
    4.3739   -1.1528    2.5707 O   0  0  0  0  0  0  0  0  0  0  0  0
    3.8633   -1.4567    1.3193 C   0  0  0  0  0  0  0  0  0  0  0  0
    3.4625   -0.6073    0.5547 O   0  0  0  0  0  0  0  0  0  0  0  0
    3.9604   -2.9451    1.1543 C   0  0  1  0  0  0  0  0  0  0  0  0
    2.5559   -3.1304    2.0127 C   0  0  2  0  0  0  0  0  0  0  0  0
    2.0558   -2.6585    3.2790 O   0  0  0  0  0  0  0  0  0  0  0  0
    2.7802   -2.0088    4.1586 C   0  0  0  0  0  0  0  0  0  0  0  0
    2.3634   -1.5137    5.1980 O   0  0  0  0  0  0  0  0  0  0  0  0
    5.4661   -3.3710    0.7629 C   0  0  2  0  0  0  0  0  0  0  0  0
    6.5901   -2.3774    1.2108 C   0  0  0  0  0  0  0  0  0  0  0  0
    5.9812   -4.7785    1.2818 C   0  0  0  0  0  0  0  0  0  0  0  0
    5.2177   -5.5277    2.4152 C   0  0  1  0  0  0  0  0  0  0  0  0
    6.1276   -5.9847    3.3967 O   0  0  0  0  0  0  0  0  0  0  0  0
    2.3079   -1.2520   -3.3427 H   0  0  0  0  0  0  0  0  0  0  0  0
    3.5942   -0.1043   -2.9142 H   0  0  0  0  0  0  0  0  0  0  0  0
    2.6589   -0.8446   -1.6509 H   0  0  0  0  0  0  0  0  0  0  0  0
    3.8430   -2.7811   -4.6084 H   0  0  0  0  0  0  0  0  0  0  0  0
    5.4315   -3.1266   -3.9117 H   0  0  0  0  0  0  0  0  0  0  0  0
    4.9627   -1.4543   -4.3039 H   0  0  0  0  0  0  0  0  0  0  0  0
    6.6094   -3.5223   -1.1222 H   0  0  0  0  0  0  0  0  0  0  0  0
    3.1001   -3.9951   -2.8356 H   0  0  0  0  0  0  0  0  0  0  0  0
    2.0051   -2.6530   -0.6205 H   0  0  0  0  0  0  0  0  0  0  0  0
    1.6877   -5.0189   -1.8967 H   0  0  0  0  0  0  0  0  0  0  0  0
    3.4393   -5.4808   -0.8389 H   0  0  0  0  0  0  0  0  0  0  0  0
    2.0277   -5.1168    2.1892 H   0  0  0  0  0  0  0  0  0  0  0  0
    3.6664   -5.3643    3.8628 H   0  0  0  0  0  0  0  0  0  0  0  0
    4.6597   -3.7381    4.9189 H   0  0  0  0  0  0  0  0  0  0  0  0
    5.8121   -3.4824    3.7283 H   0  0  0  0  0  0  0  0  0  0  0  0
    4.7484   -1.4317    4.5347 H   0  0  0  0  0  0  0  0  0  0  0  0
    1.6760   -2.9038    1.4216 H   0  0  0  0  0  0  0  0  0  0  0  0
    6.6531   -2.3501    2.2833 H   0  0  0  0  0  0  0  0  0  0  0  0
    6.4514   -1.3385    0.9184 H   0  0  0  0  0  0  0  0  0  0  0  0
    7.5585   -2.6705    0.8110 H   0  0  0  0  0  0  0  0  0  0  0  0
    6.0308   -5.4570    0.4318 H   0  0  0  0  0  0  0  0  0  0  0  0
    7.0312   -4.7030    1.5700 H   0  0  0  0  0  0  0  0  0  0  0  0
    4.7786   -6.4441    2.0101 H   0  0  0  0  0  0  0  0  0  0  0  0
    6.6599   -6.6668    3.0173 H   0  0  0  0  0  0  0  0  0  0  0  0
  1  2  1  0
  1 30  1  0
  1 31  1  0
  1 32  1  0
  2  8  1  0
  2  3  1  0
  2  4  1  0
  3 33  1  0
  3 34  1  0
  3 35  1  0
  4  5  2  0
  4  6  1  0
  6 25  1  0
  6  7  1  0
  6 36  1  1
  7  8  1  0
  8  9  1  0
  8 37  1  6
  9 10  1  0
  9 11  1  0
  9 38  1  1
 10 39  1  0
 11 20  1  0
 11 12  1  6
 11 13  1  0
 12 40  1  0
 13 21  1  0
 13 14  1  0
 13 41  1  6
 14 28  1  0
 14 15  1  0
 14 42  1  1
 15 16  1  0
 15 43  1  0
 15 44  1  0
 16 23  1  0
 16 17  1  0
 16 45  1  1
 17 18  1  0
 18 19  2  0
 20 18  1  6
 20 21  1  0
 20 25  1  0
 21 22  1  0
 21 46  1  6
 22 23  1  0
 23 24  2  0
 25 26  1  1
 25 27  1  0
 26 47  1  0
 26 48  1  0
 26 49  1  0
 27 28  1  0
 27 50  1  0
 27 51  1  0
 28 29  1  0
 28 52  1  6
 29 53  1  0
M  END
>  <i_m_ct_stereo_status>  (370) 
1

>  <s_m_source_file>  (370) 
/var/tmp/pbs.5076255.sched01/tmpux3k924y/120tsqzh4i4.sdf

>  <i_m_source_file_index>  (370) 
40

>  <i_lp_mmshare_version>  (370) 
48012

>  <i_f3d_flags>  (370) 
0

>  <s_epik_input>  (370) 
W09IXVtDQEBIXTFbQ0BIXShPMilDKFtDSDNdKShbQ0gzXSlDKD1PKVtDQEhdMltDQF0zKFtDSDNdKVtDSDJdW0NAQEhdKFtPSF0pW0NASF0oW0NAQEhdNFtDQEBdMShDMzU2KVtPSF0pW0NIMl1bQ0BASF0oT0M1PU8pQyg9TylPW0NASF00Ng==

>  <s_epik_cmdline>  (370) 
J2VwaWtfcHl0aG9uJywgJy1waHQnLCAnMi4wJywgJy1waCcsICc3LjAnLCAnLXRuJywgJzgnLCAnLW1hJywgJzIwMCcsICctaW1hZScsICc8aW5maWxlLm1hZT4nLCAnLW9tYWUnLCAnPG91dGZpbGUubWFlPic=

>  <r_lp_tautomer_probability>  (370) 
1

>  <r_epik_Ionization_Penalty>  (370) 
2.57546e-06

>  <r_epik_Ionization_Penalty_Charging>  (370) 
0

>  <r_epik_Ionization_Penalty_Neutral>  (370) 
2.57546e-06

>  <r_epik_State_Penalty>  (370) 
-0

>  <r_epik_Charging_Adjusted_Penalty>  (370) 
0

>  <i_epik_Tot_Q>  (370) 
0

>  <i_epik_Tot_abs_Q>  (370) 
0

>  <s_epik_Chemistry_Notes>  (370) 
This compound has an ester and may undergo hydrolysis at high or low pH.

>  <s_lp_Force_Field>  (370) 
OPLS3e

>  <r_lp_Energy>  (370) 
256.754

>  <b_lp_Chiralities_Consistent>  (370) 
1

>  <s_lp_Variant>  (370) 
118:0-1

>  <s_i_glide_gridfile>  (370) 
pfpi4k_grid

>  <i_i_glide_lignum>  (370) 
40

>  <i_i_glide_rotatable_bonds>  (370) 
3

>  <r_i_docking_score>  (370) 
-3.31658

>  <r_i_glide_ligand_efficiency>  (370) 
-0.114365

>  <r_i_glide_ligand_efficiency_sa>  (370) 
-0.351365

>  <r_i_glide_ligand_efficiency_ln>  (370) 
-0.759412

>  <r_i_glide_gscore>  (370) 
-3.31658

>  <r_i_glide_lipo>  (370) 
-0.353843

>  <r_i_glide_hbond>  (370) 
-0.0544262

>  <r_i_glide_metal>  (370) 
-0

>  <r_i_glide_rewards>  (370) 
-0.624551

>  <r_i_glide_evdw>  (370) 
-16.954

>  <r_i_glide_ecoul>  (370) 
-9.24669

>  <r_i_glide_erotb>  (370) 
0

>  <r_i_glide_esite>  (370) 
-0.049054

>  <r_i_glide_emodel>  (370) 
-26.3452

>  <r_i_glide_energy>  (370) 
-26.2007

>  <r_i_glide_einternal>  (370) 
2.73282

>  <r_i_glide_intrahb_reward>  (370) 
-0

>  <i_i_glide_confnum>  (370) 
2

>  <i_i_glide_posenum>  (370) 
33

>  <r_i_glide_eff_state_penalty>  (370) 
0

>  <ligand_id>  (370) 
118

>  <original_smiles>  (370) 
CC1(C)C(=O)C2OC1C(O)C1(O)C3C4CC5OC(=O)C1(C3OC5=O)C2(C)CC4O

>  <smiles>  (370) 
[H]OC1([H])C([H])([H])C2(C([H])([H])[H])C3([H])OC([H])(C([H])(O[H])C4(O[H])C5([H])C6([H])OC(=O)C([H])(OC(=O)C642)C([H])([H])C15[H])C(C([H])([H])[H])(C([H])([H])[H])C3=O

$$$$
118:0:1
     RDKit          3D

 53 58  0  0  1  0  0  0  0  0999 V2000
    3.2182   -0.9637   -2.2370 C   0  0  0  0  0  0  0  0  0  0  0  0
    4.1304   -2.1414   -2.3865 C   0  0  0  0  0  0  0  0  0  0  0  0
    4.5730   -2.1393   -3.8438 C   0  0  0  0  0  0  0  0  0  0  0  0
    5.3509   -2.1221   -1.4932 C   0  0  0  0  0  0  0  0  0  0  0  0
    5.9313   -1.1010   -1.1586 O   0  0  0  0  0  0  0  0  0  0  0  0
    5.7367   -3.5445   -1.0944 C   0  0  2  0  0  0  0  0  0  0  0  0
    4.7823   -4.2470   -1.8980 O   0  0  0  0  0  0  0  0  0  0  0  0
    3.5428   -3.4974   -2.0192 C   0  0  1  0  0  0  0  0  0  0  0  0
    2.5997   -3.7491   -0.7511 C   0  0  1  0  0  0  0  0  0  0  0  0
    1.4547   -4.4871   -1.1331 O   0  0  0  0  0  0  0  0  0  0  0  0
    3.4069   -4.4916    0.3655 C   0  0  2  0  0  0  0  0  0  0  0  0
    3.7301   -5.7124   -0.2696 O   0  0  0  0  0  0  0  0  0  0  0  0
    3.2855   -5.0851    1.8338 C   0  0  1  0  0  0  0  0  0  0  0  0
    4.5541   -5.5659    2.6752 C   0  0  2  0  0  0  0  0  0  0  0  0
    5.3422   -4.5064    3.5708 C   0  0  0  0  0  0  0  0  0  0  0  0
    4.9193   -2.9930    3.7664 C   0  0  1  0  0  0  0  0  0  0  0  0
    4.9903   -1.9694    2.7200 O   0  0  0  0  0  0  0  0  0  0  0  0
    4.3432   -2.0268    1.5081 C   0  0  0  0  0  0  0  0  0  0  0  0
    3.8984   -1.0439    0.9335 O   0  0  0  0  0  0  0  0  0  0  0  0
    4.3421   -3.4551    1.1072 C   0  0  1  0  0  0  0  0  0  0  0  0
    3.0135   -3.7478    2.0481 C   0  0  2  0  0  0  0  0  0  0  0  0
    2.6721   -3.4756    3.4151 O   0  0  0  0  0  0  0  0  0  0  0  0
    3.5187   -3.0123    4.3084 C   0  0  0  0  0  0  0  0  0  0  0  0
    3.2377   -2.6818    5.4585 O   0  0  0  0  0  0  0  0  0  0  0  0
    5.7805   -3.8844    0.4814 C   0  0  2  0  0  0  0  0  0  0  0  0
    7.0062   -3.0356    0.9449 C   0  0  0  0  0  0  0  0  0  0  0  0
    6.2773   -5.3707    0.7163 C   0  0  0  0  0  0  0  0  0  0  0  0
    5.5824   -6.2824    1.7750 C   0  0  1  0  0  0  0  0  0  0  0  0
    6.5624   -6.9237    2.5660 O   0  0  0  0  0  0  0  0  0  0  0  0
    2.3737   -1.0066   -2.9209 H   0  0  0  0  0  0  0  0  0  0  0  0
    3.7672   -0.0408   -2.3949 H   0  0  0  0  0  0  0  0  0  0  0  0
    2.8263   -0.9186   -1.2340 H   0  0  0  0  0  0  0  0  0  0  0  0
    3.7421   -2.3264   -4.5266 H   0  0  0  0  0  0  0  0  0  0  0  0
    5.3062   -2.9344   -3.9371 H   0  0  0  0  0  0  0  0  0  0  0  0
    5.0173   -1.1857   -4.1309 H   0  0  0  0  0  0  0  0  0  0  0  0
    6.7181   -3.7502   -1.5184 H   0  0  0  0  0  0  0  0  0  0  0  0
    3.0195   -3.8408   -2.9095 H   0  0  0  0  0  0  0  0  0  0  0  0
    2.2198   -2.8017   -0.3979 H   0  0  0  0  0  0  0  0  0  0  0  0
    1.7160   -5.0877   -1.8237 H   0  0  0  0  0  0  0  0  0  0  0  0
    3.8173   -5.5372   -1.1970 H   0  0  0  0  0  0  0  0  0  0  0  0
    2.4094   -5.7077    1.9383 H   0  0  0  0  0  0  0  0  0  0  0  0
    4.1811   -6.3116    3.3802 H   0  0  0  0  0  0  0  0  0  0  0  0
    5.3625   -4.9238    4.5766 H   0  0  0  0  0  0  0  0  0  0  0  0
    6.3862   -4.5572    3.3031 H   0  0  0  0  0  0  0  0  0  0  0  0
    5.5409   -2.5922    4.5642 H   0  0  0  0  0  0  0  0  0  0  0  0
    2.0766   -3.4104    1.5952 H   0  0  0  0  0  0  0  0  0  0  0  0
    7.2195   -3.2397    1.9774 H   0  0  0  0  0  0  0  0  0  0  0  0
    6.8940   -1.9566    0.8708 H   0  0  0  0  0  0  0  0  0  0  0  0
    7.9061   -3.2839    0.3856 H   0  0  0  0  0  0  0  0  0  0  0  0
    6.1972   -5.8845   -0.2346 H   0  0  0  0  0  0  0  0  0  0  0  0
    7.3532   -5.3896    0.8908 H   0  0  0  0  0  0  0  0  0  0  0  0
    5.0649   -7.1022    1.2732 H   0  0  0  0  0  0  0  0  0  0  0  0
    7.0966   -7.4687    2.0086 H   0  0  0  0  0  0  0  0  0  0  0  0
  1  2  1  0
  1 30  1  0
  1 31  1  0
  1 32  1  0
  2  8  1  0
  2  3  1  0
  2  4  1  0
  3 33  1  0
  3 34  1  0
  3 35  1  0
  4  5  2  0
  4  6  1  0
  6 25  1  0
  6  7  1  0
  6 36  1  6
  7  8  1  0
  8  9  1  0
  8 37  1  6
  9 10  1  0
  9 11  1  0
  9 38  1  1
 10 39  1  0
 11 20  1  0
 11 12  1  6
 11 13  1  0
 12 40  1  0
 13 21  1  0
 13 14  1  0
 13 41  1  6
 14 28  1  0
 14 15  1  0
 14 42  1  1
 15 16  1  0
 15 43  1  0
 15 44  1  0
 16 23  1  0
 16 17  1  0
 16 45  1  1
 17 18  1  0
 18 19  2  0
 20 18  1  6
 20 21  1  0
 20 25  1  0
 21 22  1  0
 21 46  1  6
 22 23  1  0
 23 24  2  0
 25 26  1  1
 25 27  1  0
 26 47  1  0
 26 48  1  0
 26 49  1  0
 27 28  1  0
 27 50  1  0
 27 51  1  0
 28 29  1  0
 28 52  1  6
 29 53  1  0
M  END
>  <i_m_ct_stereo_status>  (371) 
1

>  <s_m_source_file>  (371) 
/var/tmp/pbs.5076255.sched01/tmpux3k924y/120tsqzh4i4.sdf

>  <i_m_source_file_index>  (371) 
40

>  <i_lp_mmshare_version>  (371) 
48012

>  <i_f3d_flags>  (371) 
0

>  <s_epik_input>  (371) 
W09IXVtDQEBIXTFbQ0BIXShPMilDKFtDSDNdKShbQ0gzXSlDKD1PKVtDQEhdMltDQF0zKFtDSDNdKVtDSDJdW0NAQEhdKFtPSF0pW0NASF0oW0NAQEhdNFtDQEBdMShDMzU2KVtPSF0pW0NIMl1bQ0BASF0oT0M1PU8pQyg9TylPW0NASF00Ng==

>  <s_epik_cmdline>  (371) 
J2VwaWtfcHl0aG9uJywgJy1waHQnLCAnMi4wJywgJy1waCcsICc3LjAnLCAnLXRuJywgJzgnLCAnLW1hJywgJzIwMCcsICctaW1hZScsICc8aW5maWxlLm1hZT4nLCAnLW9tYWUnLCAnPG91dGZpbGUubWFlPic=

>  <r_lp_tautomer_probability>  (371) 
1

>  <r_epik_Ionization_Penalty>  (371) 
2.57546e-06

>  <r_epik_Ionization_Penalty_Charging>  (371) 
0

>  <r_epik_Ionization_Penalty_Neutral>  (371) 
2.57546e-06

>  <r_epik_State_Penalty>  (371) 
-0

>  <r_epik_Charging_Adjusted_Penalty>  (371) 
0

>  <i_epik_Tot_Q>  (371) 
0

>  <i_epik_Tot_abs_Q>  (371) 
0

>  <s_epik_Chemistry_Notes>  (371) 
This compound has an ester and may undergo hydrolysis at high or low pH.

>  <s_lp_Force_Field>  (371) 
OPLS3e

>  <r_lp_Energy>  (371) 
256.754

>  <b_lp_Chiralities_Consistent>  (371) 
1

>  <s_lp_Variant>  (371) 
118:0-1

>  <s_i_glide_gridfile>  (371) 
pfpi4k_grid

>  <i_i_glide_lignum>  (371) 
40

>  <i_i_glide_rotatable_bonds>  (371) 
3

>  <r_i_docking_score>  (371) 
-3.13874

>  <r_i_glide_ligand_efficiency>  (371) 
-0.108232

>  <r_i_glide_ligand_efficiency_sa>  (371) 
-0.332524

>  <r_i_glide_ligand_efficiency_ln>  (371) 
-0.718691

>  <r_i_glide_gscore>  (371) 
-3.13874

>  <r_i_glide_lipo>  (371) 
-0.510124

>  <r_i_glide_hbond>  (371) 
-0.0737508

>  <r_i_glide_metal>  (371) 
-0

>  <r_i_glide_rewards>  (371) 
-0.636359

>  <r_i_glide_evdw>  (371) 
-9.86602

>  <r_i_glide_ecoul>  (371) 
-9.27435

>  <r_i_glide_erotb>  (371) 
0

>  <r_i_glide_esite>  (371) 
-0.0340503

>  <r_i_glide_emodel>  (371) 
-19.8983

>  <r_i_glide_energy>  (371) 
-19.1404

>  <r_i_glide_einternal>  (371) 
1.75192

>  <r_i_glide_intrahb_reward>  (371) 
-0

>  <i_i_glide_confnum>  (371) 
2

>  <i_i_glide_posenum>  (371) 
7

>  <r_i_glide_eff_state_penalty>  (371) 
0

>  <ligand_id>  (371) 
118

>  <original_smiles>  (371) 
CC1(C)C(=O)C2OC1C(O)C1(O)C3C4CC5OC(=O)C1(C3OC5=O)C2(C)CC4O

>  <smiles>  (371) 
[H]OC1([H])C([H])([H])C2(C([H])([H])[H])C3([H])OC([H])(C([H])(O[H])C4(O[H])C5([H])C6([H])OC(=O)C([H])(OC(=O)C642)C([H])([H])C15[H])C(C([H])([H])[H])(C([H])([H])[H])C3=O

$$$$
118:0:2
     RDKit          3D

 53 58  0  0  1  0  0  0  0  0999 V2000
    3.0880   -1.0392   -2.6832 C   0  0  0  0  0  0  0  0  0  0  0  0
    4.0733   -2.1833   -2.5080 C   0  0  0  0  0  0  0  0  0  0  0  0
    4.6011   -2.4234   -3.9114 C   0  0  0  0  0  0  0  0  0  0  0  0
    5.2121   -1.9328   -1.5350 C   0  0  0  0  0  0  0  0  0  0  0  0
    5.7820   -0.8658   -1.4058 O   0  0  0  0  0  0  0  0  0  0  0  0
    5.6123   -3.2135   -0.8118 C   0  0  2  0  0  0  0  0  0  0  0  0
    4.8033   -4.1280   -1.5507 O   0  0  0  0  0  0  0  0  0  0  0  0
    3.5566   -3.5033   -1.9371 C   0  0  1  0  0  0  0  0  0  0  0  0
    2.4843   -3.6134   -0.7676 C   0  0  1  0  0  0  0  0  0  0  0  0
    1.4106   -4.5029   -1.0979 O   0  0  0  0  0  0  0  0  0  0  0  0
    3.1694   -4.0725    0.5425 C   0  0  2  0  0  0  0  0  0  0  0  0
    3.5983   -5.3832    0.1626 O   0  0  0  0  0  0  0  0  0  0  0  0
    2.9380   -4.3733    2.0827 C   0  0  1  0  0  0  0  0  0  0  0  0
    4.1117   -4.5783    3.1250 C   0  0  2  0  0  0  0  0  0  0  0  0
    4.7327   -3.3007    3.8876 C   0  0  0  0  0  0  0  0  0  0  0  0
    4.1811   -1.8328    3.7425 C   0  0  1  0  0  0  0  0  0  0  0  0
    4.3187   -1.0228    2.5293 O   0  0  0  0  0  0  0  0  0  0  0  0
    3.8349   -1.3744    1.2873 C   0  0  0  0  0  0  0  0  0  0  0  0
    3.4486   -0.5365    0.4804 O   0  0  0  0  0  0  0  0  0  0  0  0
    3.9704   -2.8504    1.1592 C   0  0  1  0  0  0  0  0  0  0  0  0
    2.5630   -3.0431    2.0068 C   0  0  2  0  0  0  0  0  0  0  0  0
    2.0370   -2.5553    3.2544 O   0  0  0  0  0  0  0  0  0  0  0  0
    2.7320   -1.8692    4.1236 C   0  0  0  0  0  0  0  0  0  0  0  0
    2.2931   -1.3542    5.1540 O   0  0  0  0  0  0  0  0  0  0  0  0
    5.4865   -3.2426    0.7926 C   0  0  2  0  0  0  0  0  0  0  0  0
    6.5697   -2.2041    1.2257 C   0  0  0  0  0  0  0  0  0  0  0  0
    6.0320   -4.6205    1.3546 C   0  0  0  0  0  0  0  0  0  0  0  0
    5.2787   -5.3656    2.4965 C   0  0  1  0  0  0  0  0  0  0  0  0
    6.1868   -5.7867    3.4967 O   0  0  0  0  0  0  0  0  0  0  0  0
    2.3153   -1.3019   -3.4133 H   0  0  0  0  0  0  0  0  0  0  0  0
    3.5719   -0.1037   -2.9973 H   0  0  0  0  0  0  0  0  0  0  0  0
    2.6566   -0.8318   -1.7316 H   0  0  0  0  0  0  0  0  0  0  0  0
    3.8626   -2.8399   -4.6113 H   0  0  0  0  0  0  0  0  0  0  0  0
    5.4526   -3.0980   -3.8753 H   0  0  0  0  0  0  0  0  0  0  0  0
    4.9297   -1.4669   -4.3180 H   0  0  0  0  0  0  0  0  0  0  0  0
    6.6500   -3.4087   -1.0781 H   0  0  0  0  0  0  0  0  0  0  0  0
    3.1799   -4.0082   -2.8175 H   0  0  0  0  0  0  0  0  0  0  0  0
    2.0243   -2.6683   -0.6570 H   0  0  0  0  0  0  0  0  0  0  0  0
    1.2923   -4.4651   -2.0504 H   0  0  0  0  0  0  0  0  0  0  0  0
    3.6793   -5.3532   -0.7798 H   0  0  0  0  0  0  0  0  0  0  0  0
    2.0815   -5.0270    2.2187 H   0  0  0  0  0  0  0  0  0  0  0  0
    3.7076   -5.2049    3.9226 H   0  0  0  0  0  0  0  0  0  0  0  0
    4.6440   -3.5271    4.9492 H   0  0  0  0  0  0  0  0  0  0  0  0
    5.8080   -3.2658    3.7627 H   0  0  0  0  0  0  0  0  0  0  0  0
    4.6774   -1.2333    4.5020 H   0  0  0  0  0  0  0  0  0  0  0  0
    1.6855   -2.8551    1.3992 H   0  0  0  0  0  0  0  0  0  0  0  0
    6.6052   -2.1302    2.2980 H   0  0  0  0  0  0  0  0  0  0  0  0
    6.4146   -1.1791    0.8949 H   0  0  0  0  0  0  0  0  0  0  0  0
    7.5575   -2.4861    0.8488 H   0  0  0  0  0  0  0  0  0  0  0  0
    6.0982   -5.3194    0.5218 H   0  0  0  0  0  0  0  0  0  0  0  0
    7.0777   -4.5103    1.6465 H   0  0  0  0  0  0  0  0  0  0  0  0
    4.8641   -6.2939    2.1052 H   0  0  0  0  0  0  0  0  0  0  0  0
    6.5760   -5.0321    3.8949 H   0  0  0  0  0  0  0  0  0  0  0  0
  1  2  1  0
  1 30  1  0
  1 31  1  0
  1 32  1  0
  2  8  1  0
  2  3  1  0
  2  4  1  0
  3 33  1  0
  3 34  1  0
  3 35  1  0
  4  5  2  0
  4  6  1  0
  6 25  1  0
  6  7  1  0
  6 36  1  1
  7  8  1  0
  8  9  1  0
  8 37  1  6
  9 10  1  0
  9 11  1  0
  9 38  1  1
 10 39  1  0
 11 20  1  0
 11 12  1  6
 11 13  1  0
 12 40  1  0
 13 21  1  0
 13 14  1  0
 13 41  1  6
 14 28  1  0
 14 15  1  0
 14 42  1  1
 15 16  1  0
 15 43  1  0
 15 44  1  0
 16 23  1  0
 16 17  1  0
 16 45  1  1
 17 18  1  0
 18 19  2  0
 20 18  1  6
 20 21  1  0
 20 25  1  0
 21 22  1  0
 21 46  1  6
 22 23  1  0
 23 24  2  0
 25 26  1  1
 25 27  1  0
 26 47  1  0
 26 48  1  0
 26 49  1  0
 27 28  1  0
 27 50  1  0
 27 51  1  0
 28 29  1  0
 28 52  1  6
 29 53  1  0
M  END
>  <i_m_ct_stereo_status>  (372) 
1

>  <s_m_source_file>  (372) 
/var/tmp/pbs.5076255.sched01/tmpux3k924y/120tsqzh4i4.sdf

>  <i_m_source_file_index>  (372) 
40

>  <i_lp_mmshare_version>  (372) 
48012

>  <i_f3d_flags>  (372) 
0

>  <s_epik_input>  (372) 
W09IXVtDQEBIXTFbQ0BIXShPMilDKFtDSDNdKShbQ0gzXSlDKD1PKVtDQEhdMltDQF0zKFtDSDNdKVtDSDJdW0NAQEhdKFtPSF0pW0NASF0oW0NAQEhdNFtDQEBdMShDMzU2KVtPSF0pW0NIMl1bQ0BASF0oT0M1PU8pQyg9TylPW0NASF00Ng==

>  <s_epik_cmdline>  (372) 
J2VwaWtfcHl0aG9uJywgJy1waHQnLCAnMi4wJywgJy1waCcsICc3LjAnLCAnLXRuJywgJzgnLCAnLW1hJywgJzIwMCcsICctaW1hZScsICc8aW5maWxlLm1hZT4nLCAnLW9tYWUnLCAnPG91dGZpbGUubWFlPic=

>  <r_lp_tautomer_probability>  (372) 
1

>  <r_epik_Ionization_Penalty>  (372) 
2.57546e-06

>  <r_epik_Ionization_Penalty_Charging>  (372) 
0

>  <r_epik_Ionization_Penalty_Neutral>  (372) 
2.57546e-06

>  <r_epik_State_Penalty>  (372) 
-0

>  <r_epik_Charging_Adjusted_Penalty>  (372) 
0

>  <i_epik_Tot_Q>  (372) 
0

>  <i_epik_Tot_abs_Q>  (372) 
0

>  <s_epik_Chemistry_Notes>  (372) 
This compound has an ester and may undergo hydrolysis at high or low pH.

>  <s_lp_Force_Field>  (372) 
OPLS3e

>  <r_lp_Energy>  (372) 
256.754

>  <b_lp_Chiralities_Consistent>  (372) 
1

>  <s_lp_Variant>  (372) 
118:0-1

>  <s_i_glide_gridfile>  (372) 
pfpi4k_grid

>  <i_i_glide_lignum>  (372) 
40

>  <i_i_glide_rotatable_bonds>  (372) 
3

>  <r_i_docking_score>  (372) 
-2.98989

>  <r_i_glide_ligand_efficiency>  (372) 
-0.1031

>  <r_i_glide_ligand_efficiency_sa>  (372) 
-0.316755

>  <r_i_glide_ligand_efficiency_ln>  (372) 
-0.68461

>  <r_i_glide_gscore>  (372) 
-2.98989

>  <r_i_glide_lipo>  (372) 
-0.344285

>  <r_i_glide_hbond>  (372) 
-0.0498348

>  <r_i_glide_metal>  (372) 
-0

>  <r_i_glide_rewards>  (372) 
-0.624551

>  <r_i_glide_evdw>  (372) 
-17.7158

>  <r_i_glide_ecoul>  (372) 
-6.88018

>  <r_i_glide_erotb>  (372) 
0

>  <r_i_glide_esite>  (372) 
-0.053404

>  <r_i_glide_emodel>  (372) 
-25.2751

>  <r_i_glide_energy>  (372) 
-24.596

>  <r_i_glide_einternal>  (372) 
1.9897

>  <r_i_glide_intrahb_reward>  (372) 
-0

>  <i_i_glide_confnum>  (372) 
2

>  <i_i_glide_posenum>  (372) 
1

>  <r_i_glide_eff_state_penalty>  (372) 
0

>  <ligand_id>  (372) 
118

>  <original_smiles>  (372) 
CC1(C)C(=O)C2OC1C(O)C1(O)C3C4CC5OC(=O)C1(C3OC5=O)C2(C)CC4O

>  <smiles>  (372) 
[H]OC1([H])C([H])([H])C2(C([H])([H])[H])C3([H])OC([H])(C([H])(O[H])C4(O[H])C5([H])C6([H])OC(=O)C([H])(OC(=O)C642)C([H])([H])C15[H])C(C([H])([H])[H])(C([H])([H])[H])C3=O

$$$$
