0:0:0
     RDKit          3D

 41 42  0  0  1  0  0  0  0  0999 V2000
   -6.4989    8.7484    0.5412 C   0  0  0  0  0  0  0  0  0  0  0  0
   -6.3470    7.2439    0.8081 C   0  0  0  0  0  0  0  0  0  0  0  0
   -4.9929    6.8970    1.4465 C   0  0  0  0  0  0  0  0  0  0  0  0
   -4.8166    5.3824    1.6679 C   0  0  0  0  0  0  0  0  0  0  0  0
   -3.4558    5.0245    2.2819 C   0  0  0  0  0  0  0  0  0  0  0  0
   -3.2731    3.5329    2.5848 C   0  0  0  0  0  0  0  0  0  0  0  0
   -1.9496    3.2409    3.3183 C   0  0  0  0  0  0  0  0  0  0  0  0
   -1.7455    1.7442    3.5338 C   0  0  0  0  0  0  0  0  0  0  0  0
   -0.5833    1.5286    4.3117 O   0  0  0  0  0  0  0  0  0  0  0  0
   -0.0178    0.3192    4.1259 C   0  0  0  0  0  0  0  0  0  0  0  0
   -0.4211   -0.8609    4.7265 C   0  0  0  0  0  0  0  0  0  0  0  0
   -1.5144   -1.1291    5.6754 C   0  0  0  0  0  0  0  0  0  0  0  0
   -2.1814   -0.1646    6.1033 O   0  0  0  0  0  0  0  0  0  0  0  0
   -1.7564   -2.2867    6.0791 O   0  0  0  0  0  0  0  0  0  0  0  0
    0.5431   -2.2421    4.2672 S   0  0  0  0  0  0  0  0  0  0  0  0
    1.5302   -1.2586    3.2051 C   0  0  0  0  0  0  0  0  0  0  0  0
    2.6131   -1.6441    2.3892 C   0  0  0  0  0  0  0  0  0  0  0  0
    3.3152   -0.7637    1.6465 N   0  0  0  0  0  0  0  0  0  0  0  0
    2.9248    0.5280    1.6809 C   0  0  0  0  0  0  0  0  0  0  0  0
    1.8473    0.9956    2.4554 C   0  0  0  0  0  0  0  0  0  0  0  0
    1.1110    0.1014    3.2511 C   0  0  0  0  0  0  0  0  0  0  0  0
   -7.4565    8.9804    0.0879 H   0  0  0  0  0  0  0  0  0  0  0  0
   -5.7360    9.1082   -0.1474 H   0  0  0  0  0  0  0  0  0  0  0  0
   -6.4384    9.3271    1.4612 H   0  0  0  0  0  0  0  0  0  0  0  0
   -7.1528    6.8974    1.4579 H   0  0  0  0  0  0  0  0  0  0  0  0
   -6.4565    6.6948   -0.1284 H   0  0  0  0  0  0  0  0  0  0  0  0
   -4.1884    7.2660    0.8081 H   0  0  0  0  0  0  0  0  0  0  0  0
   -4.9014    7.4313    2.3934 H   0  0  0  0  0  0  0  0  0  0  0  0
   -5.6152    5.0209    2.3199 H   0  0  0  0  0  0  0  0  0  0  0  0
   -4.9241    4.8587    0.7167 H   0  0  0  0  0  0  0  0  0  0  0  0
   -2.6368    5.4465    1.6989 H   0  0  0  0  0  0  0  0  0  0  0  0
   -3.3847    5.4954    3.2353 H   0  0  0  0  0  0  0  0  0  0  0  0
   -4.1032    3.1780    3.2004 H   0  0  0  0  0  0  0  0  0  0  0  0
   -3.3258    2.9508    1.6697 H   0  0  0  0  0  0  0  0  0  0  0  0
   -1.1029    3.6372    2.7536 H   0  0  0  0  0  0  0  0  0  0  0  0
   -1.9373    3.7423    4.2887 H   0  0  0  0  0  0  0  0  0  0  0  0
   -2.5865    1.3358    4.0799 H   0  0  0  0  0  0  0  0  0  0  0  0
   -1.6762    1.2401    2.5690 H   0  0  0  0  0  0  0  0  0  0  0  0
    2.9360   -2.6757    2.3372 H   0  0  0  0  0  0  0  0  0  0  0  0
    3.4836    1.2134    1.0587 H   0  0  0  0  0  0  0  0  0  0  0  0
    1.5630    2.0371    2.4371 H   0  0  0  0  0  0  0  0  0  0  0  0
  1  2  1  0
  1 22  1  0
  1 23  1  0
  1 24  1  0
  2  3  1  0
  2 25  1  0
  2 26  1  0
  3  4  1  0
  3 27  1  0
  3 28  1  0
  4  5  1  0
  4 29  1  0
  4 30  1  0
  5  6  1  0
  5 31  1  0
  5 32  1  0
  6  7  1  0
  6 33  1  0
  6 34  1  0
  7  8  1  0
  7 35  1  0
  7 36  1  0
  8  9  1  0
  8 37  1  0
  8 38  1  0
  9 10  1  0
 10 21  1  0
 10 11  2  0
 11 12  1  0
 11 15  1  0
 12 13  2  0
 12 14  1  0
 15 16  1  0
 16 21  2  0
 16 17  1  0
 17 18  2  0
 17 39  1  0
 18 19  1  0
 19 20  2  0
 19 40  1  0
 20 21  1  0
 20 41  1  0
M  CHG  1  14  -1
M  END
>  <i_m_ct_stereo_status>  (1) 
1

>  <s_m_source_file>  (1) 
/var/tmp/pbs.5076255.sched01/tmpkni74bsw/0nq93mkxh.sdf

>  <i_m_source_file_index>  (1) 
1

>  <i_lp_mmshare_version>  (1) 
48012

>  <i_f3d_flags>  (1) 
0

>  <s_epik_input>  (1) 
W0NIM11bQ0gyXVtDSDJdW0NIMl1bQ0gyXVtDSDJdW0NIMl1bQ0gyXU9jKGMoczEpQyg9TylbT0hdKWMoYzEyKVtjSF1bY0hdbltjSF0y

>  <s_epik_cmdline>  (1) 
J2VwaWtfcHl0aG9uJywgJy1waHQnLCAnMi4wJywgJy1waCcsICc3LjAnLCAnLXRuJywgJzgnLCAnLW1hJywgJzIwMCcsICctaW1hZScsICc8aW5maWxlLm1hZT4nLCAnLW9tYWUnLCAnPG91dGZpbGUubWFlPic=

>  <r_epik_Ionization_Penalty>  (1) 
0.000829899

>  <r_epik_Ionization_Penalty_Charging>  (1) 
0.000140089

>  <r_epik_Ionization_Penalty_Neutral>  (1) 
0.000689809

>  <r_epik_State_Penalty>  (1) 
0.000438559

>  <r_epik_Charging_Adjusted_Penalty>  (1) 
0.000578648

>  <i_epik_Tot_Q>  (1) 
-1

>  <i_epik_Tot_abs_Q>  (1) 
1

>  <s_lp_Force_Field>  (1) 
OPLS3e

>  <r_lp_Energy>  (1) 
23.3465

>  <b_lp_Chiralities_Consistent>  (1) 
1

>  <s_lp_Variant>  (1) 
0:0-1

>  <s_i_glide_gridfile>  (1) 
pfpi4k_grid

>  <i_i_glide_lignum>  (1) 
1

>  <i_i_glide_rotatable_bonds>  (1) 
9

>  <r_i_docking_score>  (1) 
-2.86127

>  <r_i_glide_ligand_efficiency>  (1) 
-0.136251

>  <r_i_glide_ligand_efficiency_sa>  (1) 
-0.375906

>  <r_i_glide_ligand_efficiency_ln>  (1) 
-0.707444

>  <r_i_glide_gscore>  (1) 
-2.86127

>  <r_i_glide_lipo>  (1) 
-1.02192

>  <r_i_glide_hbond>  (1) 
-0.195629

>  <r_i_glide_metal>  (1) 
-0

>  <r_i_glide_rewards>  (1) 
-1.31999

>  <r_i_glide_evdw>  (1) 
-20.552

>  <r_i_glide_ecoul>  (1) 
-4.06351

>  <r_i_glide_erotb>  (1) 
1.37727

>  <r_i_glide_esite>  (1) 
-0.0638798

>  <r_i_glide_emodel>  (1) 
-31.8279

>  <r_i_glide_energy>  (1) 
-24.6155

>  <r_i_glide_einternal>  (1) 
0.996495

>  <r_i_glide_intrahb_reward>  (1) 
-0

>  <i_i_glide_confnum>  (1) 
1

>  <i_i_glide_posenum>  (1) 
1

>  <r_i_glide_eff_state_penalty>  (1) 
0

>  <ligand_id>  (1) 
0

>  <original_smiles>  (1) 
CCCCCCCCOc1c(C(=O)O)sc2cnccc12

>  <smiles>  (1) 
[H]c1nc([H])c2sc(C(=O)[O-])c(OC([H])([H])C([H])([H])C([H])([H])C([H])([H])C([H])([H])C([H])([H])C([H])([H])C([H])([H])[H])c2c1[H]

$$$$
0:0:1
     RDKit          3D

 41 42  0  0  1  0  0  0  0  0999 V2000
    3.6465    0.2857   -5.5095 C   0  0  0  0  0  0  0  0  0  0  0  0
    2.5530   -0.2668   -4.6020 C   0  0  0  0  0  0  0  0  0  0  0  0
    2.8069   -1.7068   -4.1214 C   0  0  0  0  0  0  0  0  0  0  0  0
    3.8288   -1.7849   -2.9840 C   0  0  0  0  0  0  0  0  0  0  0  0
    3.9314   -3.2034   -2.4189 C   0  0  0  0  0  0  0  0  0  0  0  0
    4.8729   -3.2880   -1.2010 C   0  0  0  0  0  0  0  0  0  0  0  0
    4.7968   -4.6336   -0.4624 C   0  0  0  0  0  0  0  0  0  0  0  0
    3.4507   -4.8681    0.2497 C   0  0  0  0  0  0  0  0  0  0  0  0
    3.2905   -6.2600    0.4780 O   0  0  0  0  0  0  0  0  0  0  0  0
    3.0467   -6.5956    1.7572 C   0  0  0  0  0  0  0  0  0  0  0  0
    1.7889   -6.7530    2.3074 C   0  0  0  0  0  0  0  0  0  0  0  0
    0.4364   -6.6057    1.7003 C   0  0  0  0  0  0  0  0  0  0  0  0
    0.3398   -6.2573    0.5000 O   0  0  0  0  0  0  0  0  0  0  0  0
   -0.5858   -6.6729    2.4259 O   0  0  0  0  0  0  0  0  0  0  0  0
    1.8509   -7.1145    4.0191 S   0  0  0  0  0  0  0  0  0  0  0  0
    3.6117   -7.1358    4.0087 C   0  0  0  0  0  0  0  0  0  0  0  0
    4.5120   -7.3982    5.0601 C   0  0  0  0  0  0  0  0  0  0  0  0
    5.8498   -7.3832    4.8872 N   0  0  0  0  0  0  0  0  0  0  0  0
    6.3316   -7.1119    3.6582 C   0  0  0  0  0  0  0  0  0  0  0  0
    5.5039   -6.8331    2.5566 C   0  0  0  0  0  0  0  0  0  0  0  0
    4.0968   -6.8432    2.7024 C   0  0  0  0  0  0  0  0  0  0  0  0
    3.4124    1.3081   -5.8026 H   0  0  0  0  0  0  0  0  0  0  0  0
    3.7330   -0.3123   -6.4160 H   0  0  0  0  0  0  0  0  0  0  0  0
    4.6080    0.2926   -4.9991 H   0  0  0  0  0  0  0  0  0  0  0  0
    2.4252    0.3887   -3.7417 H   0  0  0  0  0  0  0  0  0  0  0  0
    1.6060   -0.2288   -5.1403 H   0  0  0  0  0  0  0  0  0  0  0  0
    1.8587   -2.1400   -3.7942 H   0  0  0  0  0  0  0  0  0  0  0  0
    3.1441   -2.3448   -4.9351 H   0  0  0  0  0  0  0  0  0  0  0  0
    4.8054   -1.4506   -3.3340 H   0  0  0  0  0  0  0  0  0  0  0  0
    3.5175   -1.1078   -2.1865 H   0  0  0  0  0  0  0  0  0  0  0  0
    2.9182   -3.5060   -2.1559 H   0  0  0  0  0  0  0  0  0  0  0  0
    4.2613   -3.9047   -3.1884 H   0  0  0  0  0  0  0  0  0  0  0  0
    5.8970   -3.1238   -1.5422 H   0  0  0  0  0  0  0  0  0  0  0  0
    4.6587   -2.4853   -0.4942 H   0  0  0  0  0  0  0  0  0  0  0  0
    5.0029   -5.4424   -1.1668 H   0  0  0  0  0  0  0  0  0  0  0  0
    5.5987   -4.6783    0.2774 H   0  0  0  0  0  0  0  0  0  0  0  0
    3.4043   -4.2590    1.1601 H   0  0  0  0  0  0  0  0  0  0  0  0
    2.5935   -4.5839   -0.3546 H   0  0  0  0  0  0  0  0  0  0  0  0
    4.1487   -7.6248    6.0506 H   0  0  0  0  0  0  0  0  0  0  0  0
    7.4063   -7.1144    3.5392 H   0  0  0  0  0  0  0  0  0  0  0  0
    5.9254   -6.6260    1.5857 H   0  0  0  0  0  0  0  0  0  0  0  0
  1  2  1  0
  1 22  1  0
  1 23  1  0
  1 24  1  0
  2  3  1  0
  2 25  1  0
  2 26  1  0
  3  4  1  0
  3 27  1  0
  3 28  1  0
  4  5  1  0
  4 29  1  0
  4 30  1  0
  5  6  1  0
  5 31  1  0
  5 32  1  0
  6  7  1  0
  6 33  1  0
  6 34  1  0
  7  8  1  0
  7 35  1  0
  7 36  1  0
  8  9  1  0
  8 37  1  0
  8 38  1  0
  9 10  1  0
 10 21  1  0
 10 11  2  0
 11 12  1  0
 11 15  1  0
 12 13  2  0
 12 14  1  0
 15 16  1  0
 16 21  2  0
 16 17  1  0
 17 18  2  0
 17 39  1  0
 18 19  1  0
 19 20  2  0
 19 40  1  0
 20 21  1  0
 20 41  1  0
M  CHG  1  14  -1
M  END
>  <i_m_ct_stereo_status>  (2) 
1

>  <s_m_source_file>  (2) 
/var/tmp/pbs.5076255.sched01/tmpkni74bsw/0nq93mkxh.sdf

>  <i_m_source_file_index>  (2) 
1

>  <i_lp_mmshare_version>  (2) 
48012

>  <i_f3d_flags>  (2) 
0

>  <s_epik_input>  (2) 
W0NIM11bQ0gyXVtDSDJdW0NIMl1bQ0gyXVtDSDJdW0NIMl1bQ0gyXU9jKGMoczEpQyg9TylbT0hdKWMoYzEyKVtjSF1bY0hdbltjSF0y

>  <s_epik_cmdline>  (2) 
J2VwaWtfcHl0aG9uJywgJy1waHQnLCAnMi4wJywgJy1waCcsICc3LjAnLCAnLXRuJywgJzgnLCAnLW1hJywgJzIwMCcsICctaW1hZScsICc8aW5maWxlLm1hZT4nLCAnLW9tYWUnLCAnPG91dGZpbGUubWFlPic=

>  <r_epik_Ionization_Penalty>  (2) 
0.000829899

>  <r_epik_Ionization_Penalty_Charging>  (2) 
0.000140089

>  <r_epik_Ionization_Penalty_Neutral>  (2) 
0.000689809

>  <r_epik_State_Penalty>  (2) 
0.000438559

>  <r_epik_Charging_Adjusted_Penalty>  (2) 
0.000578648

>  <i_epik_Tot_Q>  (2) 
-1

>  <i_epik_Tot_abs_Q>  (2) 
1

>  <s_lp_Force_Field>  (2) 
OPLS3e

>  <r_lp_Energy>  (2) 
23.3465

>  <b_lp_Chiralities_Consistent>  (2) 
1

>  <s_lp_Variant>  (2) 
0:0-1

>  <s_i_glide_gridfile>  (2) 
pfpi4k_grid

>  <i_i_glide_lignum>  (2) 
1

>  <i_i_glide_rotatable_bonds>  (2) 
9

>  <r_i_docking_score>  (2) 
-2.76186

>  <r_i_glide_ligand_efficiency>  (2) 
-0.131517

>  <r_i_glide_ligand_efficiency_sa>  (2) 
-0.362846

>  <r_i_glide_ligand_efficiency_ln>  (2) 
-0.682864

>  <r_i_glide_gscore>  (2) 
-2.76186

>  <r_i_glide_lipo>  (2) 
-0.371777

>  <r_i_glide_hbond>  (2) 
-0.433555

>  <r_i_glide_metal>  (2) 
-0

>  <r_i_glide_rewards>  (2) 
-1.36166

>  <r_i_glide_evdw>  (2) 
-19.4884

>  <r_i_glide_ecoul>  (2) 
-5.98479

>  <r_i_glide_erotb>  (2) 
1.37727

>  <r_i_glide_esite>  (2) 
-0.1

>  <r_i_glide_emodel>  (2) 
-30.1273

>  <r_i_glide_energy>  (2) 
-25.4732

>  <r_i_glide_einternal>  (2) 
4.92748

>  <r_i_glide_intrahb_reward>  (2) 
-0

>  <i_i_glide_confnum>  (2) 
4

>  <i_i_glide_posenum>  (2) 
7

>  <r_i_glide_eff_state_penalty>  (2) 
0

>  <ligand_id>  (2) 
0

>  <original_smiles>  (2) 
CCCCCCCCOc1c(C(=O)O)sc2cnccc12

>  <smiles>  (2) 
[H]c1nc([H])c2sc(C(=O)[O-])c(OC([H])([H])C([H])([H])C([H])([H])C([H])([H])C([H])([H])C([H])([H])C([H])([H])C([H])([H])[H])c2c1[H]

$$$$
0:0:2
     RDKit          3D

 41 42  0  0  1  0  0  0  0  0999 V2000
   -2.9848    3.2987    5.1668 C   0  0  0  0  0  0  0  0  0  0  0  0
   -2.8808    3.3482    3.6364 C   0  0  0  0  0  0  0  0  0  0  0  0
   -1.4321    3.3204    3.1362 C   0  0  0  0  0  0  0  0  0  0  0  0
   -0.8091    1.9170    3.1712 C   0  0  0  0  0  0  0  0  0  0  0  0
    0.6390    1.8974    2.6587 C   0  0  0  0  0  0  0  0  0  0  0  0
    1.1925    0.4750    2.5092 C   0  0  0  0  0  0  0  0  0  0  0  0
    2.6165    0.4584    1.9377 C   0  0  0  0  0  0  0  0  0  0  0  0
    3.0541   -0.9495    1.5440 C   0  0  0  0  0  0  0  0  0  0  0  0
    4.2805   -0.8646    0.8273 O   0  0  0  0  0  0  0  0  0  0  0  0
    4.5954   -1.9940    0.1587 C   0  0  0  0  0  0  0  0  0  0  0  0
    5.0931   -3.1459    0.7419 C   0  0  0  0  0  0  0  0  0  0  0  0
    5.4406   -3.4591    2.1486 C   0  0  0  0  0  0  0  0  0  0  0  0
    5.3791   -2.5475    3.0057 O   0  0  0  0  0  0  0  0  0  0  0  0
    5.8101   -4.6186    2.4375 O   0  0  0  0  0  0  0  0  0  0  0  0
    5.3464   -4.4366   -0.4088 S   0  0  0  0  0  0  0  0  0  0  0  0
    4.7934   -3.4373   -1.7434 C   0  0  0  0  0  0  0  0  0  0  0  0
    4.6817   -3.7633   -3.1103 C   0  0  0  0  0  0  0  0  0  0  0  0
    4.2141   -2.8884   -4.0237 N   0  0  0  0  0  0  0  0  0  0  0  0
    3.8422   -1.6647   -3.5974 C   0  0  0  0  0  0  0  0  0  0  0  0
    3.9451   -1.2546   -2.2586 C   0  0  0  0  0  0  0  0  0  0  0  0
    4.4187   -2.1472   -1.2695 C   0  0  0  0  0  0  0  0  0  0  0  0
   -4.0234    3.3307    5.4919 H   0  0  0  0  0  0  0  0  0  0  0  0
   -2.4653    4.1399    5.6240 H   0  0  0  0  0  0  0  0  0  0  0  0
   -2.5447    2.3811    5.5595 H   0  0  0  0  0  0  0  0  0  0  0  0
   -3.4534    2.5397    3.1844 H   0  0  0  0  0  0  0  0  0  0  0  0
   -3.3488    4.2593    3.2694 H   0  0  0  0  0  0  0  0  0  0  0  0
   -1.4285    3.6731    2.1064 H   0  0  0  0  0  0  0  0  0  0  0  0
   -0.8204    4.0268    3.7010 H   0  0  0  0  0  0  0  0  0  0  0  0
   -0.8320    1.5218    4.1870 H   0  0  0  0  0  0  0  0  0  0  0  0
   -1.4195    1.2501    2.5603 H   0  0  0  0  0  0  0  0  0  0  0  0
    0.6909    2.3871    1.6863 H   0  0  0  0  0  0  0  0  0  0  0  0
    1.2763    2.4743    3.3301 H   0  0  0  0  0  0  0  0  0  0  0  0
    1.1731   -0.0428    3.4698 H   0  0  0  0  0  0  0  0  0  0  0  0
    0.5398   -0.0872    1.8398 H   0  0  0  0  0  0  0  0  0  0  0  0
    2.6681    1.1051    1.0612 H   0  0  0  0  0  0  0  0  0  0  0  0
    3.3185    0.8704    2.6663 H   0  0  0  0  0  0  0  0  0  0  0  0
    3.1677   -1.5514    2.4452 H   0  0  0  0  0  0  0  0  0  0  0  0
    2.2938   -1.4281    0.9231 H   0  0  0  0  0  0  0  0  0  0  0  0
    4.9606   -4.7407   -3.4796 H   0  0  0  0  0  0  0  0  0  0  0  0
    3.4592   -0.9861   -4.3488 H   0  0  0  0  0  0  0  0  0  0  0  0
    3.6426   -0.2636   -1.9671 H   0  0  0  0  0  0  0  0  0  0  0  0
  1  2  1  0
  1 22  1  0
  1 23  1  0
  1 24  1  0
  2  3  1  0
  2 25  1  0
  2 26  1  0
  3  4  1  0
  3 27  1  0
  3 28  1  0
  4  5  1  0
  4 29  1  0
  4 30  1  0
  5  6  1  0
  5 31  1  0
  5 32  1  0
  6  7  1  0
  6 33  1  0
  6 34  1  0
  7  8  1  0
  7 35  1  0
  7 36  1  0
  8  9  1  0
  8 37  1  0
  8 38  1  0
  9 10  1  0
 10 21  1  0
 10 11  2  0
 11 12  1  0
 11 15  1  0
 12 13  2  0
 12 14  1  0
 15 16  1  0
 16 21  2  0
 16 17  1  0
 17 18  2  0
 17 39  1  0
 18 19  1  0
 19 20  2  0
 19 40  1  0
 20 21  1  0
 20 41  1  0
M  CHG  1  14  -1
M  END
>  <i_m_ct_stereo_status>  (3) 
1

>  <s_m_source_file>  (3) 
/var/tmp/pbs.5076255.sched01/tmpkni74bsw/0nq93mkxh.sdf

>  <i_m_source_file_index>  (3) 
1

>  <i_lp_mmshare_version>  (3) 
48012

>  <i_f3d_flags>  (3) 
0

>  <s_epik_input>  (3) 
W0NIM11bQ0gyXVtDSDJdW0NIMl1bQ0gyXVtDSDJdW0NIMl1bQ0gyXU9jKGMoczEpQyg9TylbT0hdKWMoYzEyKVtjSF1bY0hdbltjSF0y

>  <s_epik_cmdline>  (3) 
J2VwaWtfcHl0aG9uJywgJy1waHQnLCAnMi4wJywgJy1waCcsICc3LjAnLCAnLXRuJywgJzgnLCAnLW1hJywgJzIwMCcsICctaW1hZScsICc8aW5maWxlLm1hZT4nLCAnLW9tYWUnLCAnPG91dGZpbGUubWFlPic=

>  <r_epik_Ionization_Penalty>  (3) 
0.000829899

>  <r_epik_Ionization_Penalty_Charging>  (3) 
0.000140089

>  <r_epik_Ionization_Penalty_Neutral>  (3) 
0.000689809

>  <r_epik_State_Penalty>  (3) 
0.000438559

>  <r_epik_Charging_Adjusted_Penalty>  (3) 
0.000578648

>  <i_epik_Tot_Q>  (3) 
-1

>  <i_epik_Tot_abs_Q>  (3) 
1

>  <s_lp_Force_Field>  (3) 
OPLS3e

>  <r_lp_Energy>  (3) 
23.3465

>  <b_lp_Chiralities_Consistent>  (3) 
1

>  <s_lp_Variant>  (3) 
0:0-1

>  <s_i_glide_gridfile>  (3) 
pfpi4k_grid

>  <i_i_glide_lignum>  (3) 
1

>  <i_i_glide_rotatable_bonds>  (3) 
9

>  <r_i_docking_score>  (3) 
-2.1664

>  <r_i_glide_ligand_efficiency>  (3) 
-0.103162

>  <r_i_glide_ligand_efficiency_sa>  (3) 
-0.284615

>  <r_i_glide_ligand_efficiency_ln>  (3) 
-0.535637

>  <r_i_glide_gscore>  (3) 
-2.1664

>  <r_i_glide_lipo>  (3) 
-0.360078

>  <r_i_glide_hbond>  (3) 
-0.179494

>  <r_i_glide_metal>  (3) 
-0

>  <r_i_glide_rewards>  (3) 
-1.37071

>  <r_i_glide_evdw>  (3) 
-24.9005

>  <r_i_glide_ecoul>  (3) 
-2.58905

>  <r_i_glide_erotb>  (3) 
1.37727

>  <r_i_glide_esite>  (3) 
0

>  <r_i_glide_emodel>  (3) 
-31.8834

>  <r_i_glide_energy>  (3) 
-27.4896

>  <r_i_glide_einternal>  (3) 
2.68414

>  <r_i_glide_intrahb_reward>  (3) 
-0

>  <i_i_glide_confnum>  (3) 
1

>  <i_i_glide_posenum>  (3) 
5

>  <r_i_glide_eff_state_penalty>  (3) 
0

>  <ligand_id>  (3) 
0

>  <original_smiles>  (3) 
CCCCCCCCOc1c(C(=O)O)sc2cnccc12

>  <smiles>  (3) 
[H]c1nc([H])c2sc(C(=O)[O-])c(OC([H])([H])C([H])([H])C([H])([H])C([H])([H])C([H])([H])C([H])([H])C([H])([H])C([H])([H])[H])c2c1[H]

$$$$
1:0:0
     RDKit          3D

 80 85  0  0  1  0  0  0  0  0999 V2000
    2.4687   -9.4074    7.2285 C   0  0  0  0  0  0  0  0  0  0  0  0
    2.1598   -7.9405    6.8671 C   0  0  2  0  0  0  0  0  0  0  0  0
    1.3416   -7.2484    7.9811 C   0  0  1  0  0  0  0  0  0  0  0  0
    1.9637   -7.3387    9.2472 O   0  0  0  0  0  0  0  0  0  0  0  0
    1.1443   -5.7654    7.6587 C   0  0  0  0  0  0  0  0  0  0  0  0
    0.4327   -5.6121    6.3115 C   0  0  0  0  0  0  0  0  0  0  0  0
    1.1371   -6.3027    5.0973 C   0  0  2  0  0  0  0  0  0  0  0  0
    0.0612   -6.2593    3.9916 C   0  0  0  0  0  0  0  0  0  0  0  0
    1.4249   -7.7888    5.4875 C   0  0  1  0  0  0  0  0  0  0  0  0
    2.1502   -8.5007    4.3277 C   0  0  0  0  0  0  0  0  0  0  0  0
    3.5182   -7.8739    4.0271 C   0  0  0  0  0  0  0  0  0  0  0  0
    3.5653   -6.3271    3.7864 C   0  0  2  0  0  0  0  0  0  0  0  0
    4.9588   -5.9056    4.3681 C   0  0  0  0  0  0  0  0  0  0  0  0
    2.4984   -5.5838    4.6974 C   0  0  1  0  0  0  0  0  0  0  0  0
    2.4562   -4.0697    4.3830 C   0  0  0  0  0  0  0  0  0  0  0  0
    2.3752   -3.7118    2.9027 C   0  0  0  0  0  0  0  0  0  0  0  0
    3.5042   -4.3549    2.0940 C   0  0  0  0  0  0  0  0  0  0  0  0
    4.3991   -3.6365    1.3490 C   0  0  0  0  0  0  0  0  0  0  0  0
    4.3751   -2.1082    1.2023 C   0  0  1  0  0  0  0  0  0  0  0  0
    5.3311   -1.5118    2.0621 O   0  0  0  0  0  0  0  0  0  0  0  0
    4.6140   -1.6259   -0.2378 C   0  0  2  0  0  0  0  0  0  0  0  0
    3.5055   -1.7720   -1.0879 O   0  0  0  0  0  0  0  0  0  0  0  0
    4.0534   -1.8393   -2.3709 C   0  0  0  0  0  0  0  0  0  0  0  0
    3.4408   -3.0376   -3.1025 C   0  0  0  0  0  0  0  0  0  0  0  0
    3.7743   -0.5215   -3.0986 C   0  0  0  0  0  0  0  0  0  0  0  0
    5.4371   -2.0182   -2.2823 O   0  0  0  0  0  0  0  0  0  0  0  0
    5.7101   -2.3724   -0.9751 C   0  0  2  0  0  0  0  0  0  0  0  0
    5.5645   -3.7485   -0.8145 O   0  0  0  0  0  0  0  0  0  0  0  0
    5.4892   -4.2970    0.5003 C   0  0  1  0  0  0  0  0  0  0  0  0
    6.8779   -4.1945    1.1700 C   0  0  0  0  0  0  0  0  0  0  0  0
    5.1219   -5.7537    0.1983 C   0  0  0  0  0  0  0  0  0  0  0  0
    4.7415   -6.5218    1.4573 C   0  0  0  0  0  0  0  0  0  0  0  0
    3.5293   -5.9068    2.2294 C   0  0  1  0  0  0  0  0  0  0  0  0
    2.2986   -6.4459    1.4568 C   0  0  0  0  0  0  0  0  0  0  0  0
    1.5642  -10.0158    7.2382 H   0  0  0  0  0  0  0  0  0  0  0  0
    2.9339   -9.4879    8.2107 H   0  0  0  0  0  0  0  0  0  0  0  0
    3.1733   -9.8576    6.5297 H   0  0  0  0  0  0  0  0  0  0  0  0
    3.1242   -7.4379    6.8148 H   0  0  0  0  0  0  0  0  0  0  0  0
    0.3680   -7.7322    8.0638 H   0  0  0  0  0  0  0  0  0  0  0  0
    2.8530   -7.0329    9.1707 H   0  0  0  0  0  0  0  0  0  0  0  0
    0.5405   -5.2982    8.4370 H   0  0  0  0  0  0  0  0  0  0  0  0
    2.0961   -5.2347    7.6591 H   0  0  0  0  0  0  0  0  0  0  0  0
   -0.5550   -6.0548    6.4475 H   0  0  0  0  0  0  0  0  0  0  0  0
    0.2330   -4.5605    6.1167 H   0  0  0  0  0  0  0  0  0  0  0  0
    0.2576   -6.9092    3.1474 H   0  0  0  0  0  0  0  0  0  0  0  0
   -0.0652   -5.2415    3.6370 H   0  0  0  0  0  0  0  0  0  0  0  0
   -0.9101   -6.5906    4.3610 H   0  0  0  0  0  0  0  0  0  0  0  0
    0.4629   -8.2915    5.6016 H   0  0  0  0  0  0  0  0  0  0  0  0
    2.2782   -9.5589    4.5515 H   0  0  0  0  0  0  0  0  0  0  0  0
    1.5398   -8.5275    3.4308 H   0  0  0  0  0  0  0  0  0  0  0  0
    4.1548   -8.1256    4.8755 H   0  0  0  0  0  0  0  0  0  0  0  0
    3.9663   -8.4114    3.1945 H   0  0  0  0  0  0  0  0  0  0  0  0
    5.2512   -4.8968    4.0785 H   0  0  0  0  0  0  0  0  0  0  0  0
    5.7622   -6.5802    4.0737 H   0  0  0  0  0  0  0  0  0  0  0  0
    4.9880   -5.9490    5.4567 H   0  0  0  0  0  0  0  0  0  0  0  0
    2.9624   -5.5603    5.6767 H   0  0  0  0  0  0  0  0  0  0  0  0
    1.6618   -3.5613    4.9216 H   0  0  0  0  0  0  0  0  0  0  0  0
    3.3753   -3.6200    4.7623 H   0  0  0  0  0  0  0  0  0  0  0  0
    1.4121   -3.9974    2.4925 H   0  0  0  0  0  0  0  0  0  0  0  0
    2.3625   -2.6286    2.8610 H   0  0  0  0  0  0  0  0  0  0  0  0
    3.4210   -1.6741    1.4757 H   0  0  0  0  0  0  0  0  0  0  0  0
    6.1958   -1.8054    1.8226 H   0  0  0  0  0  0  0  0  0  0  0  0
    4.8710   -0.5636   -0.2334 H   0  0  0  0  0  0  0  0  0  0  0  0
    3.6591   -3.9404   -2.5413 H   0  0  0  0  0  0  0  0  0  0  0  0
    3.8695   -3.1263   -4.1005 H   0  0  0  0  0  0  0  0  0  0  0  0
    2.3582   -2.9196   -3.1842 H   0  0  0  0  0  0  0  0  0  0  0  0
    4.2257    0.3045   -2.5512 H   0  0  0  0  0  0  0  0  0  0  0  0
    2.6958   -0.3560   -3.1409 H   0  0  0  0  0  0  0  0  0  0  0  0
    4.1791   -0.5510   -4.1107 H   0  0  0  0  0  0  0  0  0  0  0  0
    6.7134   -2.0573   -0.6922 H   0  0  0  0  0  0  0  0  0  0  0  0
    6.8699   -4.6325    2.1687 H   0  0  0  0  0  0  0  0  0  0  0  0
    7.2136   -3.1646    1.2756 H   0  0  0  0  0  0  0  0  0  0  0  0
    7.6327   -4.7151    0.5836 H   0  0  0  0  0  0  0  0  0  0  0  0
    4.3111   -5.7841   -0.5292 H   0  0  0  0  0  0  0  0  0  0  0  0
    5.9656   -6.2388   -0.2825 H   0  0  0  0  0  0  0  0  0  0  0  0
    4.5372   -7.5566    1.1813 H   0  0  0  0  0  0  0  0  0  0  0  0
    5.6502   -6.5754    2.0404 H   0  0  0  0  0  0  0  0  0  0  0  0
    2.1667   -7.5186    1.5815 H   0  0  0  0  0  0  0  0  0  0  0  0
    2.3942   -6.2749    0.3864 H   0  0  0  0  0  0  0  0  0  0  0  0
    1.3736   -5.9534    1.7138 H   0  0  0  0  0  0  0  0  0  0  0  0
  1  2  1  0
  1 35  1  0
  1 36  1  0
  1 37  1  0
  2  9  1  0
  2  3  1  0
  2 38  1  6
  3  4  1  0
  3  5  1  0
  3 39  1  1
  4 40  1  0
  5  6  1  0
  5 41  1  0
  5 42  1  0
  6  7  1  0
  6 43  1  0
  6 44  1  0
  7 14  1  0
  7  8  1  6
  7  9  1  0
  8 45  1  0
  8 46  1  0
  8 47  1  0
  9 10  1  0
  9 48  1  1
 10 11  1  0
 10 49  1  0
 10 50  1  0
 11 12  1  0
 11 51  1  0
 11 52  1  0
 12 33  1  0
 12 13  1  1
 12 14  1  0
 13 53  1  0
 13 54  1  0
 13 55  1  0
 14 15  1  0
 14 56  1  1
 15 16  1  0
 15 57  1  0
 15 58  1  0
 16 17  1  0
 16 59  1  0
 16 60  1  0
 17 33  1  0
 17 18  2  0
 18 29  1  0
 18 19  1  0
 19 20  1  0
 19 21  1  0
 19 61  1  1
 20 62  1  0
 21 27  1  0
 21 22  1  0
 21 63  1  1
 22 23  1  0
 23 24  1  0
 23 25  1  0
 23 26  1  0
 24 64  1  0
 24 65  1  0
 24 66  1  0
 25 67  1  0
 25 68  1  0
 25 69  1  0
 26 27  1  0
 27 28  1  0
 27 70  1  1
 28 29  1  0
 29 30  1  1
 29 31  1  0
 30 71  1  0
 30 72  1  0
 30 73  1  0
 31 32  1  0
 31 74  1  0
 31 75  1  0
 32 33  1  0
 32 76  1  0
 32 77  1  0
 33 34  1  6
 34 78  1  0
 34 79  1  0
 34 80  1  0
M  END
>  <i_m_ct_stereo_status>  (4) 
1

>  <s_m_source_file>  (4) 
/var/tmp/pbs.5076255.sched01/tmpkni74bsw/0nq93mkxh.sdf

>  <i_m_source_file_index>  (4) 
2

>  <i_lp_mmshare_version>  (4) 
48012

>  <i_f3d_flags>  (4) 
0

>  <s_epik_input>  (4) 
W0NIMl0xW0NIMl1bQ0BIXShbT0hdKVtDQEBIXShbQ0gzXSlbQ0BASF0oW0NAQF0xMltDSDNdKVtDSDJdW0NIMl1bQ0BdMyhbQ0gzXSlbQ0BIXTJbQ0gyXVtDSDJdQzQ9QzVbQ0BAXShbQ0gzXSkoW0NIMl1bQ0gyXVtDQEBdMzRbQ0gzXSlPW0NAQEhdNltDQEhdKFtDQEBIXTVbT0hdKU9DKE82KShbQ0gzXSlbQ0gzXQ==

>  <s_epik_cmdline>  (4) 
J2VwaWtfcHl0aG9uJywgJy1waHQnLCAnMi4wJywgJy1waCcsICc3LjAnLCAnLXRuJywgJzgnLCAnLW1hJywgJzIwMCcsICctaW1hZScsICc8aW5maWxlLm1hZT4nLCAnLW9tYWUnLCAnPG91dGZpbGUubWFlPic=

>  <r_lp_tautomer_probability>  (4) 
1

>  <r_epik_Ionization_Penalty>  (4) 
2.98363e-06

>  <r_epik_Ionization_Penalty_Charging>  (4) 
0

>  <r_epik_Ionization_Penalty_Neutral>  (4) 
2.98363e-06

>  <r_epik_State_Penalty>  (4) 
-0

>  <r_epik_Charging_Adjusted_Penalty>  (4) 
0

>  <i_epik_Tot_Q>  (4) 
0

>  <i_epik_Tot_abs_Q>  (4) 
0

>  <s_epik_Chemistry_Notes>  (4) 
This compound contains an acetal/aminal-like group ( X-CH(R)-Y where X, Y are N, S, or O) that may be acid/base labile, releasing an aldehyde.

>  <s_lp_Force_Field>  (4) 
OPLS3e

>  <r_lp_Energy>  (4) 
86.0366

>  <b_lp_Chiralities_Consistent>  (4) 
1

>  <s_lp_Variant>  (4) 
1:0-1

>  <s_i_glide_gridfile>  (4) 
pfpi4k_grid

>  <i_i_glide_lignum>  (4) 
2

>  <i_i_glide_rotatable_bonds>  (4) 
2

>  <r_i_docking_score>  (4) 
-2.33516

>  <r_i_glide_ligand_efficiency>  (4) 
-0.0686812

>  <r_i_glide_ligand_efficiency_sa>  (4) 
-0.2225

>  <r_i_glide_ligand_efficiency_ln>  (4) 
-0.515902

>  <r_i_glide_gscore>  (4) 
-2.33516

>  <r_i_glide_lipo>  (4) 
-0.565122

>  <r_i_glide_hbond>  (4) 
0

>  <r_i_glide_metal>  (4) 
-0

>  <r_i_glide_rewards>  (4) 
-0.172687

>  <r_i_glide_evdw>  (4) 
-32.3553

>  <r_i_glide_ecoul>  (4) 
0.405159

>  <r_i_glide_erotb>  (4) 
0

>  <r_i_glide_esite>  (4) 
-0.0403605

>  <r_i_glide_emodel>  (4) 
-36.3337

>  <r_i_glide_energy>  (4) 
-31.9501

>  <r_i_glide_einternal>  (4) 
0.0376413

>  <r_i_glide_intrahb_reward>  (4) 
-0

>  <i_i_glide_confnum>  (4) 
1

>  <i_i_glide_posenum>  (4) 
22

>  <r_i_glide_eff_state_penalty>  (4) 
0

>  <ligand_id>  (4) 
1

>  <original_smiles>  (4) 
CC1C(O)CCC2(C)C1CCC1(C)C2CCC2=C3C(O)C4OC(C)(C)OC4OC3(C)CCC21C

>  <smiles>  (4) 
[H]OC1([H])C2=C3C([H])([H])C([H])([H])C4([H])C5(C([H])([H])[H])C([H])([H])C([H])([H])C([H])(O[H])C([H])(C([H])([H])[H])C5([H])C([H])([H])C([H])([H])C4(C([H])([H])[H])C3(C([H])([H])[H])C([H])([H])C([H])([H])C2(C([H])([H])[H])OC2([H])OC(C([H])([H])[H])(C([H])([H])[H])OC21[H]

$$$$
1:0:1
     RDKit          3D

 80 85  0  0  1  0  0  0  0  0999 V2000
    2.4843   -9.2478    7.3224 C   0  0  0  0  0  0  0  0  0  0  0  0
    2.1989   -7.7770    6.9483 C   0  0  2  0  0  0  0  0  0  0  0  0
    1.4214   -7.0551    8.0682 C   0  0  1  0  0  0  0  0  0  0  0  0
    2.0993   -7.1430    9.3013 O   0  0  0  0  0  0  0  0  0  0  0  0
    1.2519   -5.5708    7.7411 C   0  0  0  0  0  0  0  0  0  0  0  0
    0.5182   -5.4114    6.4071 C   0  0  0  0  0  0  0  0  0  0  0  0
    1.1821   -6.1296    5.1849 C   0  0  2  0  0  0  0  0  0  0  0  0
    0.0881   -6.0762    4.0971 C   0  0  0  0  0  0  0  0  0  0  0  0
    1.4424   -7.6191    5.5834 C   0  0  1  0  0  0  0  0  0  0  0  0
    2.1270   -8.3596    4.4179 C   0  0  0  0  0  0  0  0  0  0  0  0
    3.5023   -7.7675    4.0824 C   0  0  0  0  0  0  0  0  0  0  0  0
    3.5804   -6.2240    3.8259 C   0  0  2  0  0  0  0  0  0  0  0  0
    4.9960   -5.8300    4.3733 C   0  0  0  0  0  0  0  0  0  0  0  0
    2.5509   -5.4472    4.7516 C   0  0  1  0  0  0  0  0  0  0  0  0
    2.5351   -3.9358    4.4215 C   0  0  0  0  0  0  0  0  0  0  0  0
    2.4264   -3.5916    2.9390 C   0  0  0  0  0  0  0  0  0  0  0  0
    3.5239   -4.2701    2.1135 C   0  0  0  0  0  0  0  0  0  0  0  0
    4.4176   -3.5804    1.3428 C   0  0  0  0  0  0  0  0  0  0  0  0
    4.4244   -2.0549    1.1817 C   0  0  1  0  0  0  0  0  0  0  0  0
    5.4154   -1.4830    2.0140 O   0  0  0  0  0  0  0  0  0  0  0  0
    4.6518   -1.5890   -0.2649 C   0  0  2  0  0  0  0  0  0  0  0  0
    3.5229   -1.7148   -1.0915 O   0  0  0  0  0  0  0  0  0  0  0  0
    4.0405   -1.8091   -2.3847 C   0  0  0  0  0  0  0  0  0  0  0  0
    3.3835   -2.9989   -3.0907 C   0  0  0  0  0  0  0  0  0  0  0  0
    3.7774   -0.4932   -3.1209 C   0  0  0  0  0  0  0  0  0  0  0  0
    5.4221   -2.0204   -2.3211 O   0  0  0  0  0  0  0  0  0  0  0  0
    5.7143   -2.3685   -1.0161 C   0  0  2  0  0  0  0  0  0  0  0  0
    5.5371   -3.7389   -0.8414 O   0  0  0  0  0  0  0  0  0  0  0  0
    5.4796   -4.2727    0.4804 C   0  0  1  0  0  0  0  0  0  0  0  0
    6.8839   -4.1927    1.1209 C   0  0  0  0  0  0  0  0  0  0  0  0
    5.0746   -5.7239    0.1996 C   0  0  0  0  0  0  0  0  0  0  0  0
    4.7025   -6.4697    1.4744 C   0  0  0  0  0  0  0  0  0  0  0  0
    3.5194   -5.8204    2.2648 C   0  0  1  0  0  0  0  0  0  0  0  0
    2.2614   -6.3405    1.5237 C   0  0  0  0  0  0  0  0  0  0  0  0
    1.5710   -9.8437    7.3613 H   0  0  0  0  0  0  0  0  0  0  0  0
    2.9794   -9.3307    8.2897 H   0  0  0  0  0  0  0  0  0  0  0  0
    3.1634   -9.7163    6.6112 H   0  0  0  0  0  0  0  0  0  0  0  0
    3.1725   -7.2939    6.8774 H   0  0  0  0  0  0  0  0  0  0  0  0
    0.4404   -7.5188    8.1886 H   0  0  0  0  0  0  0  0  0  0  0  0
    2.2093   -8.0590    9.5094 H   0  0  0  0  0  0  0  0  0  0  0  0
    0.6808   -5.0817    8.5307 H   0  0  0  0  0  0  0  0  0  0  0  0
    2.2184   -5.0675    7.7203 H   0  0  0  0  0  0  0  0  0  0  0  0
   -0.4764   -5.8303    6.5693 H   0  0  0  0  0  0  0  0  0  0  0  0
    0.3394   -4.3569    6.2085 H   0  0  0  0  0  0  0  0  0  0  0  0
    0.2500   -6.7443    3.2615 H   0  0  0  0  0  0  0  0  0  0  0  0
   -0.0237   -5.0637    3.7197 H   0  0  0  0  0  0  0  0  0  0  0  0
   -0.8834   -6.3764    4.4926 H   0  0  0  0  0  0  0  0  0  0  0  0
    0.4709   -8.0968    5.7242 H   0  0  0  0  0  0  0  0  0  0  0  0
    2.2360   -9.4176    4.6516 H   0  0  0  0  0  0  0  0  0  0  0  0
    1.4967   -8.3833    3.5354 H   0  0  0  0  0  0  0  0  0  0  0  0
    4.1490   -8.0248    4.9224 H   0  0  0  0  0  0  0  0  0  0  0  0
    3.9225   -8.3238    3.2482 H   0  0  0  0  0  0  0  0  0  0  0  0
    5.3064   -4.8316    4.0672 H   0  0  0  0  0  0  0  0  0  0  0  0
    5.7771   -6.5262    4.0699 H   0  0  0  0  0  0  0  0  0  0  0  0
    5.0474   -5.8629    5.4616 H   0  0  0  0  0  0  0  0  0  0  0  0
    3.0359   -5.4249    5.7207 H   0  0  0  0  0  0  0  0  0  0  0  0
    1.7667   -3.4032    4.9744 H   0  0  0  0  0  0  0  0  0  0  0  0
    3.4738   -3.5047    4.7751 H   0  0  0  0  0  0  0  0  0  0  0  0
    1.4456   -3.8552    2.5548 H   0  0  0  0  0  0  0  0  0  0  0  0
    2.4390   -2.5089    2.8862 H   0  0  0  0  0  0  0  0  0  0  0  0
    3.4896   -1.5900    1.4691 H   0  0  0  0  0  0  0  0  0  0  0  0
    5.1623   -1.6146    2.9158 H   0  0  0  0  0  0  0  0  0  0  0  0
    4.9357   -0.5340   -0.2740 H   0  0  0  0  0  0  0  0  0  0  0  0
    3.5875   -3.9008   -2.5236 H   0  0  0  0  0  0  0  0  0  0  0  0
    3.7894   -3.1118   -4.0965 H   0  0  0  0  0  0  0  0  0  0  0  0
    2.3025   -2.8567   -3.1535 H   0  0  0  0  0  0  0  0  0  0  0  0
    4.2592    0.3288   -2.5937 H   0  0  0  0  0  0  0  0  0  0  0  0
    2.7019   -0.3043   -3.1431 H   0  0  0  0  0  0  0  0  0  0  0  0
    4.1594   -0.5441   -4.1415 H   0  0  0  0  0  0  0  0  0  0  0  0
    6.7291   -2.0774   -0.7497 H   0  0  0  0  0  0  0  0  0  0  0  0
    6.8891   -4.6226    2.1223 H   0  0  0  0  0  0  0  0  0  0  0  0
    7.2364   -3.1664    1.2166 H   0  0  0  0  0  0  0  0  0  0  0  0
    7.6179   -4.7301    0.5228 H   0  0  0  0  0  0  0  0  0  0  0  0
    4.2479   -5.7431   -0.5097 H   0  0  0  0  0  0  0  0  0  0  0  0
    5.8943   -6.2348   -0.2977 H   0  0  0  0  0  0  0  0  0  0  0  0
    4.4690   -7.5023    1.2137 H   0  0  0  0  0  0  0  0  0  0  0  0
    5.6215   -6.5380    2.0394 H   0  0  0  0  0  0  0  0  0  0  0  0
    2.1064   -7.4071    1.6680 H   0  0  0  0  0  0  0  0  0  0  0  0
    2.3388   -6.1935    0.4477 H   0  0  0  0  0  0  0  0  0  0  0  0
    1.3550   -5.8203    1.7925 H   0  0  0  0  0  0  0  0  0  0  0  0
  1  2  1  0
  1 35  1  0
  1 36  1  0
  1 37  1  0
  2  9  1  0
  2  3  1  0
  2 38  1  6
  3  4  1  0
  3  5  1  0
  3 39  1  1
  4 40  1  0
  5  6  1  0
  5 41  1  0
  5 42  1  0
  6  7  1  0
  6 43  1  0
  6 44  1  0
  7 14  1  0
  7  8  1  6
  7  9  1  0
  8 45  1  0
  8 46  1  0
  8 47  1  0
  9 10  1  0
  9 48  1  1
 10 11  1  0
 10 49  1  0
 10 50  1  0
 11 12  1  0
 11 51  1  0
 11 52  1  0
 12 33  1  0
 12 13  1  1
 12 14  1  0
 13 53  1  0
 13 54  1  0
 13 55  1  0
 14 15  1  0
 14 56  1  1
 15 16  1  0
 15 57  1  0
 15 58  1  0
 16 17  1  0
 16 59  1  0
 16 60  1  0
 17 33  1  0
 17 18  2  0
 18 29  1  0
 18 19  1  0
 19 20  1  0
 19 21  1  0
 19 61  1  1
 20 62  1  0
 21 27  1  0
 21 22  1  0
 21 63  1  1
 22 23  1  0
 23 24  1  0
 23 25  1  0
 23 26  1  0
 24 64  1  0
 24 65  1  0
 24 66  1  0
 25 67  1  0
 25 68  1  0
 25 69  1  0
 26 27  1  0
 27 28  1  0
 27 70  1  1
 28 29  1  0
 29 30  1  1
 29 31  1  0
 30 71  1  0
 30 72  1  0
 30 73  1  0
 31 32  1  0
 31 74  1  0
 31 75  1  0
 32 33  1  0
 32 76  1  0
 32 77  1  0
 33 34  1  6
 34 78  1  0
 34 79  1  0
 34 80  1  0
M  END
>  <i_m_ct_stereo_status>  (5) 
1

>  <s_m_source_file>  (5) 
/var/tmp/pbs.5076255.sched01/tmpkni74bsw/0nq93mkxh.sdf

>  <i_m_source_file_index>  (5) 
2

>  <i_lp_mmshare_version>  (5) 
48012

>  <i_f3d_flags>  (5) 
0

>  <s_epik_input>  (5) 
W0NIMl0xW0NIMl1bQ0BIXShbT0hdKVtDQEBIXShbQ0gzXSlbQ0BASF0oW0NAQF0xMltDSDNdKVtDSDJdW0NIMl1bQ0BdMyhbQ0gzXSlbQ0BIXTJbQ0gyXVtDSDJdQzQ9QzVbQ0BAXShbQ0gzXSkoW0NIMl1bQ0gyXVtDQEBdMzRbQ0gzXSlPW0NAQEhdNltDQEhdKFtDQEBIXTVbT0hdKU9DKE82KShbQ0gzXSlbQ0gzXQ==

>  <s_epik_cmdline>  (5) 
J2VwaWtfcHl0aG9uJywgJy1waHQnLCAnMi4wJywgJy1waCcsICc3LjAnLCAnLXRuJywgJzgnLCAnLW1hJywgJzIwMCcsICctaW1hZScsICc8aW5maWxlLm1hZT4nLCAnLW9tYWUnLCAnPG91dGZpbGUubWFlPic=

>  <r_lp_tautomer_probability>  (5) 
1

>  <r_epik_Ionization_Penalty>  (5) 
2.98363e-06

>  <r_epik_Ionization_Penalty_Charging>  (5) 
0

>  <r_epik_Ionization_Penalty_Neutral>  (5) 
2.98363e-06

>  <r_epik_State_Penalty>  (5) 
-0

>  <r_epik_Charging_Adjusted_Penalty>  (5) 
0

>  <i_epik_Tot_Q>  (5) 
0

>  <i_epik_Tot_abs_Q>  (5) 
0

>  <s_epik_Chemistry_Notes>  (5) 
This compound contains an acetal/aminal-like group ( X-CH(R)-Y where X, Y are N, S, or O) that may be acid/base labile, releasing an aldehyde.

>  <s_lp_Force_Field>  (5) 
OPLS3e

>  <r_lp_Energy>  (5) 
86.0366

>  <b_lp_Chiralities_Consistent>  (5) 
1

>  <s_lp_Variant>  (5) 
1:0-1

>  <s_i_glide_gridfile>  (5) 
pfpi4k_grid

>  <i_i_glide_lignum>  (5) 
2

>  <i_i_glide_rotatable_bonds>  (5) 
2

>  <r_i_docking_score>  (5) 
-2.32671

>  <r_i_glide_ligand_efficiency>  (5) 
-0.0684326

>  <r_i_glide_ligand_efficiency_sa>  (5) 
-0.221695

>  <r_i_glide_ligand_efficiency_ln>  (5) 
-0.514035

>  <r_i_glide_gscore>  (5) 
-2.32671

>  <r_i_glide_lipo>  (5) 
-0.565092

>  <r_i_glide_hbond>  (5) 
0

>  <r_i_glide_metal>  (5) 
-0

>  <r_i_glide_rewards>  (5) 
-0.172687

>  <r_i_glide_evdw>  (5) 
-32.4786

>  <r_i_glide_ecoul>  (5) 
0.522904

>  <r_i_glide_erotb>  (5) 
0

>  <r_i_glide_esite>  (5) 
-0.0434361

>  <r_i_glide_emodel>  (5) 
-36.0514

>  <r_i_glide_energy>  (5) 
-31.9557

>  <r_i_glide_einternal>  (5) 
0.69569

>  <r_i_glide_intrahb_reward>  (5) 
-0

>  <i_i_glide_confnum>  (5) 
1

>  <i_i_glide_posenum>  (5) 
15

>  <r_i_glide_eff_state_penalty>  (5) 
0

>  <ligand_id>  (5) 
1

>  <original_smiles>  (5) 
CC1C(O)CCC2(C)C1CCC1(C)C2CCC2=C3C(O)C4OC(C)(C)OC4OC3(C)CCC21C

>  <smiles>  (5) 
[H]OC1([H])C2=C3C([H])([H])C([H])([H])C4([H])C5(C([H])([H])[H])C([H])([H])C([H])([H])C([H])(O[H])C([H])(C([H])([H])[H])C5([H])C([H])([H])C([H])([H])C4(C([H])([H])[H])C3(C([H])([H])[H])C([H])([H])C([H])([H])C2(C([H])([H])[H])OC2([H])OC(C([H])([H])[H])(C([H])([H])[H])OC21[H]

$$$$
1:0:2
     RDKit          3D

 80 85  0  0  1  0  0  0  0  0999 V2000
    2.2626   -9.0490    7.7832 C   0  0  0  0  0  0  0  0  0  0  0  0
    2.2196   -7.5486    7.4219 C   0  0  2  0  0  0  0  0  0  0  0  0
    1.7806   -6.6937    8.6318 C   0  0  1  0  0  0  0  0  0  0  0  0
    2.5837   -6.9214    9.7733 O   0  0  0  0  0  0  0  0  0  0  0  0
    1.8496   -5.2038    8.2935 C   0  0  0  0  0  0  0  0  0  0  0  0
    0.9651   -4.8990    7.0792 C   0  0  0  0  0  0  0  0  0  0  0  0
    1.2828   -5.7220    5.7891 C   0  0  2  0  0  0  0  0  0  0  0  0
    0.0646   -5.4455    4.8797 C   0  0  0  0  0  0  0  0  0  0  0  0
    1.3088   -7.2362    6.1810 C   0  0  1  0  0  0  0  0  0  0  0  0
    1.6532   -8.0908    4.9449 C   0  0  0  0  0  0  0  0  0  0  0  0
    3.0497   -7.7753    4.3942 C   0  0  0  0  0  0  0  0  0  0  0  0
    3.3836   -6.2754    4.0898 C   0  0  2  0  0  0  0  0  0  0  0  0
    4.9142   -6.1674    4.4105 C   0  0  0  0  0  0  0  0  0  0  0  0
    2.6754   -5.3188    5.1391 C   0  0  1  0  0  0  0  0  0  0  0  0
    2.9030   -3.8322    4.7782 C   0  0  0  0  0  0  0  0  0  0  0  0
    2.6406   -3.4663    3.3205 C   0  0  0  0  0  0  0  0  0  0  0  0
    3.4508   -4.3403    2.3570 C   0  0  0  0  0  0  0  0  0  0  0  0
    4.3341   -3.8324    1.4452 C   0  0  0  0  0  0  0  0  0  0  0  0
    4.6086   -2.3373    1.2478 C   0  0  1  0  0  0  0  0  0  0  0  0
    5.8023   -1.9691    1.9106 O   0  0  0  0  0  0  0  0  0  0  0  0
    4.7071   -1.9149   -0.2252 C   0  0  2  0  0  0  0  0  0  0  0  0
    3.4638   -1.8114   -0.8683 O   0  0  0  0  0  0  0  0  0  0  0  0
    3.7522   -1.9984   -2.2211 C   0  0  0  0  0  0  0  0  0  0  0  0
    2.7663   -3.0217   -2.7897 C   0  0  0  0  0  0  0  0  0  0  0  0
    3.6416   -0.6515   -2.9373 C   0  0  0  0  0  0  0  0  0  0  0  0
    5.0605   -2.4781   -2.3630 O   0  0  0  0  0  0  0  0  0  0  0  0
    5.4749   -2.8818   -1.1087 C   0  0  2  0  0  0  0  0  0  0  0  0
    5.0664   -4.1923   -0.8745 O   0  0  0  0  0  0  0  0  0  0  0  0
    5.1032   -4.7131    0.4530 C   0  0  1  0  0  0  0  0  0  0  0  0
    6.5757   -4.9068    0.8842 C   0  0  0  0  0  0  0  0  0  0  0  0
    4.3924   -6.0574    0.2718 C   0  0  0  0  0  0  0  0  0  0  0  0
    4.0738   -6.7243    1.6033 C   0  0  0  0  0  0  0  0  0  0  0  0
    3.1709   -5.8607    2.5450 C   0  0  1  0  0  0  0  0  0  0  0  0
    1.7384   -6.1245    2.0132 C   0  0  0  0  0  0  0  0  0  0  0  0
    1.2690   -9.4559    7.9681 H   0  0  0  0  0  0  0  0  0  0  0  0
    2.8649   -9.2261    8.6751 H   0  0  0  0  0  0  0  0  0  0  0  0
    2.7282   -9.6388    6.9939 H   0  0  0  0  0  0  0  0  0  0  0  0
    3.2447   -7.2691    7.1890 H   0  0  0  0  0  0  0  0  0  0  0  0
    0.7561   -6.9551    8.8987 H   0  0  0  0  0  0  0  0  0  0  0  0
    3.4875   -6.7732    9.5434 H   0  0  0  0  0  0  0  0  0  0  0  0
    1.5025   -4.6167    9.1437 H   0  0  0  0  0  0  0  0  0  0  0  0
    2.8764   -4.8897    8.1127 H   0  0  0  0  0  0  0  0  0  0  0  0
   -0.0560   -5.1183    7.3975 H   0  0  0  0  0  0  0  0  0  0  0  0
    0.9623   -3.8291    6.8839 H   0  0  0  0  0  0  0  0  0  0  0  0
   -0.0289   -6.1277    4.0443 H   0  0  0  0  0  0  0  0  0  0  0  0
    0.0729   -4.4258    4.4968 H   0  0  0  0  0  0  0  0  0  0  0  0
   -0.8701   -5.5689    5.4279 H   0  0  0  0  0  0  0  0  0  0  0  0
    0.2954   -7.5180    6.4762 H   0  0  0  0  0  0  0  0  0  0  0  0
    1.5897   -9.1520    5.1842 H   0  0  0  0  0  0  0  0  0  0  0  0
    0.9054   -7.9853    4.1657 H   0  0  0  0  0  0  0  0  0  0  0  0
    3.7558   -8.1606    5.1288 H   0  0  0  0  0  0  0  0  0  0  0  0
    3.2197   -8.3956    3.5163 H   0  0  0  0  0  0  0  0  0  0  0  0
    5.3607   -5.2456    4.0381 H   0  0  0  0  0  0  0  0  0  0  0  0
    5.4912   -7.0002    4.0104 H   0  0  0  0  0  0  0  0  0  0  0  0
    5.1184   -6.2164    5.4800 H   0  0  0  0  0  0  0  0  0  0  0  0
    3.2949   -5.3969    6.0251 H   0  0  0  0  0  0  0  0  0  0  0  0
    2.3419   -3.1641    5.4269 H   0  0  0  0  0  0  0  0  0  0  0  0
    3.9494   -3.5939    4.9802 H   0  0  0  0  0  0  0  0  0  0  0  0
    1.5800   -3.5314    3.0943 H   0  0  0  0  0  0  0  0  0  0  0  0
    2.8547   -2.4060    3.2431 H   0  0  0  0  0  0  0  0  0  0  0  0
    3.8320   -1.7025    1.6591 H   0  0  0  0  0  0  0  0  0  0  0  0
    5.6706   -2.0713    2.8415 H   0  0  0  0  0  0  0  0  0  0  0  0
    5.1827   -0.9332   -0.2996 H   0  0  0  0  0  0  0  0  0  0  0  0
    2.8477   -3.9310   -2.2091 H   0  0  0  0  0  0  0  0  0  0  0  0
    2.9923   -3.2265   -3.8380 H   0  0  0  0  0  0  0  0  0  0  0  0
    1.7416   -2.6548   -2.7068 H   0  0  0  0  0  0  0  0  0  0  0  0
    4.3406    0.0597   -2.5026 H   0  0  0  0  0  0  0  0  0  0  0  0
    2.6294   -0.2662   -2.8047 H   0  0  0  0  0  0  0  0  0  0  0  0
    3.8486   -0.7689   -4.0012 H   0  0  0  0  0  0  0  0  0  0  0  0
    6.5541   -2.7886   -1.0113 H   0  0  0  0  0  0  0  0  0  0  0  0
    6.6475   -5.3292    1.8863 H   0  0  0  0  0  0  0  0  0  0  0  0
    7.1291   -3.9681    0.8956 H   0  0  0  0  0  0  0  0  0  0  0  0
    7.0924   -5.5770    0.1992 H   0  0  0  0  0  0  0  0  0  0  0  0
    3.4816   -5.9083   -0.3079 H   0  0  0  0  0  0  0  0  0  0  0  0
    5.0123   -6.7158   -0.3325 H   0  0  0  0  0  0  0  0  0  0  0  0
    3.6075   -7.6890    1.4046 H   0  0  0  0  0  0  0  0  0  0  0  0
    5.0358   -6.9722    2.0279 H   0  0  0  0  0  0  0  0  0  0  0  0
    1.4045   -7.1405    2.2062 H   0  0  0  0  0  0  0  0  0  0  0  0
    1.6828   -5.9907    0.9348 H   0  0  0  0  0  0  0  0  0  0  0  0
    1.0029   -5.4376    2.4037 H   0  0  0  0  0  0  0  0  0  0  0  0
  1  2  1  0
  1 35  1  0
  1 36  1  0
  1 37  1  0
  2  9  1  0
  2  3  1  0
  2 38  1  6
  3  4  1  0
  3  5  1  0
  3 39  1  1
  4 40  1  0
  5  6  1  0
  5 41  1  0
  5 42  1  0
  6  7  1  0
  6 43  1  0
  6 44  1  0
  7 14  1  0
  7  8  1  6
  7  9  1  0
  8 45  1  0
  8 46  1  0
  8 47  1  0
  9 10  1  0
  9 48  1  1
 10 11  1  0
 10 49  1  0
 10 50  1  0
 11 12  1  0
 11 51  1  0
 11 52  1  0
 12 33  1  0
 12 13  1  1
 12 14  1  0
 13 53  1  0
 13 54  1  0
 13 55  1  0
 14 15  1  0
 14 56  1  1
 15 16  1  0
 15 57  1  0
 15 58  1  0
 16 17  1  0
 16 59  1  0
 16 60  1  0
 17 33  1  0
 17 18  2  0
 18 29  1  0
 18 19  1  0
 19 20  1  0
 19 21  1  0
 19 61  1  1
 20 62  1  0
 21 27  1  0
 21 22  1  0
 21 63  1  1
 22 23  1  0
 23 24  1  0
 23 25  1  0
 23 26  1  0
 24 64  1  0
 24 65  1  0
 24 66  1  0
 25 67  1  0
 25 68  1  0
 25 69  1  0
 26 27  1  0
 27 28  1  0
 27 70  1  6
 28 29  1  0
 29 30  1  1
 29 31  1  0
 30 71  1  0
 30 72  1  0
 30 73  1  0
 31 32  1  0
 31 74  1  0
 31 75  1  0
 32 33  1  0
 32 76  1  0
 32 77  1  0
 33 34  1  6
 34 78  1  0
 34 79  1  0
 34 80  1  0
M  END
>  <i_m_ct_stereo_status>  (6) 
1

>  <s_m_source_file>  (6) 
/var/tmp/pbs.5076255.sched01/tmpkni74bsw/0nq93mkxh.sdf

>  <i_m_source_file_index>  (6) 
2

>  <i_lp_mmshare_version>  (6) 
48012

>  <i_f3d_flags>  (6) 
0

>  <s_epik_input>  (6) 
W0NIMl0xW0NIMl1bQ0BIXShbT0hdKVtDQEBIXShbQ0gzXSlbQ0BASF0oW0NAQF0xMltDSDNdKVtDSDJdW0NIMl1bQ0BdMyhbQ0gzXSlbQ0BIXTJbQ0gyXVtDSDJdQzQ9QzVbQ0BAXShbQ0gzXSkoW0NIMl1bQ0gyXVtDQEBdMzRbQ0gzXSlPW0NAQEhdNltDQEhdKFtDQEBIXTVbT0hdKU9DKE82KShbQ0gzXSlbQ0gzXQ==

>  <s_epik_cmdline>  (6) 
J2VwaWtfcHl0aG9uJywgJy1waHQnLCAnMi4wJywgJy1waCcsICc3LjAnLCAnLXRuJywgJzgnLCAnLW1hJywgJzIwMCcsICctaW1hZScsICc8aW5maWxlLm1hZT4nLCAnLW9tYWUnLCAnPG91dGZpbGUubWFlPic=

>  <r_lp_tautomer_probability>  (6) 
1

>  <r_epik_Ionization_Penalty>  (6) 
2.98363e-06

>  <r_epik_Ionization_Penalty_Charging>  (6) 
0

>  <r_epik_Ionization_Penalty_Neutral>  (6) 
2.98363e-06

>  <r_epik_State_Penalty>  (6) 
-0

>  <r_epik_Charging_Adjusted_Penalty>  (6) 
0

>  <i_epik_Tot_Q>  (6) 
0

>  <i_epik_Tot_abs_Q>  (6) 
0

>  <s_epik_Chemistry_Notes>  (6) 
This compound contains an acetal/aminal-like group ( X-CH(R)-Y where X, Y are N, S, or O) that may be acid/base labile, releasing an aldehyde.

>  <s_lp_Force_Field>  (6) 
OPLS3e

>  <r_lp_Energy>  (6) 
86.0366

>  <b_lp_Chiralities_Consistent>  (6) 
1

>  <s_lp_Variant>  (6) 
1:0-1

>  <s_i_glide_gridfile>  (6) 
pfpi4k_grid

>  <i_i_glide_lignum>  (6) 
2

>  <i_i_glide_rotatable_bonds>  (6) 
2

>  <r_i_docking_score>  (6) 
-2.04834

>  <r_i_glide_ligand_efficiency>  (6) 
-0.0602454

>  <r_i_glide_ligand_efficiency_sa>  (6) 
-0.195172

>  <r_i_glide_ligand_efficiency_ln>  (6) 
-0.452536

>  <r_i_glide_gscore>  (6) 
-2.04834

>  <r_i_glide_lipo>  (6) 
-0.422079

>  <r_i_glide_hbond>  (6) 
0

>  <r_i_glide_metal>  (6) 
-0

>  <r_i_glide_rewards>  (6) 
-0.190257

>  <r_i_glide_evdw>  (6) 
-31.362

>  <r_i_glide_ecoul>  (6) 
1.07934

>  <r_i_glide_erotb>  (6) 
0

>  <r_i_glide_esite>  (6) 
-0.0298054

>  <r_i_glide_emodel>  (6) 
-33.9647

>  <r_i_glide_energy>  (6) 
-30.2827

>  <r_i_glide_einternal>  (6) 
0.340499

>  <r_i_glide_intrahb_reward>  (6) 
-0

>  <i_i_glide_confnum>  (6) 
2

>  <i_i_glide_posenum>  (6) 
7

>  <r_i_glide_eff_state_penalty>  (6) 
0

>  <ligand_id>  (6) 
1

>  <original_smiles>  (6) 
CC1C(O)CCC2(C)C1CCC1(C)C2CCC2=C3C(O)C4OC(C)(C)OC4OC3(C)CCC21C

>  <smiles>  (6) 
[H]OC1([H])C2=C3C([H])([H])C([H])([H])C4([H])C5(C([H])([H])[H])C([H])([H])C([H])([H])C([H])(O[H])C([H])(C([H])([H])[H])C5([H])C([H])([H])C([H])([H])C4(C([H])([H])[H])C3(C([H])([H])[H])C([H])([H])C([H])([H])C2(C([H])([H])[H])OC2([H])OC(C([H])([H])[H])(C([H])([H])[H])OC21[H]

$$$$
2:0:0
     RDKit          3D

 58 64  0  0  1  0  0  0  0  0999 V2000
    3.4848   -2.5472   -1.0929 C   0  0  0  0  0  0  0  0  0  0  0  0
    4.3876   -3.4090   -0.2183 C   0  0  0  0  0  0  0  0  0  0  0  0
    5.3770   -4.1599   -0.6568 C   0  0  0  0  0  0  0  0  0  0  0  0
    6.0731   -4.8679    0.4776 C   0  0  0  0  0  0  0  0  0  0  0  0
    5.0380   -4.7945    1.6283 C   0  0  1  0  0  0  0  0  0  0  0  0
    4.1958   -5.9540    1.3721 O   0  0  0  0  0  0  0  0  0  0  0  0
    4.8122   -6.6845    2.4763 C   0  0  2  0  0  0  0  0  0  0  0  0
    3.8765   -7.5373    3.3805 C   0  0  1  0  0  0  0  0  0  0  0  0
    4.0978   -7.2695    4.9027 C   0  0  0  0  0  0  0  0  0  0  0  0
    5.3041   -6.3675    5.2683 C   0  0  0  0  0  0  0  0  0  0  0  0
    5.3101   -5.0188    4.5227 C   0  0  1  0  0  0  0  0  0  0  0  0
    5.4536   -5.3970    3.0012 C   0  0  2  0  0  0  0  0  0  0  0  0
    4.3595   -3.8900    5.1440 C   0  0  2  0  0  0  0  0  0  0  0  0
    3.3650   -4.2429    6.2949 C   0  0  0  0  0  0  0  0  0  0  0  0
    1.9179   -3.9567    5.8183 C   0  0  0  0  0  0  0  0  0  0  0  0
    2.0317   -3.2012    4.5095 C   0  0  1  0  0  0  0  0  0  0  0  0
    3.4990   -3.0621    4.2187 C   0  0  1  0  0  0  0  0  0  0  0  0
    3.8924   -1.5801    4.2740 C   0  0  0  0  0  0  0  0  0  0  0  0
    2.5850   -3.7898    3.2411 C   0  0  1  0  0  0  0  0  0  0  0  0
    2.6213   -5.1833    3.4301 O   0  0  0  0  0  0  0  0  0  0  0  0
    1.7574   -6.0859    2.9510 C   0  0  0  0  0  0  0  0  0  0  0  0
    0.6316   -5.8569    2.4791 O   0  0  0  0  0  0  0  0  0  0  0  0
    2.3472   -7.5050    3.0273 C   0  0  1  0  0  0  0  0  0  0  0  0
    2.0046   -8.3363    1.7818 C   0  0  0  0  0  0  0  0  0  0  0  0
    2.7636   -3.3686    1.7895 C   0  0  1  0  0  0  0  0  0  0  0  0
    2.2330   -2.0608    1.5995 O   0  0  0  0  0  0  0  0  0  0  0  0
    4.2369   -3.4893    1.2851 C   0  0  2  0  0  0  0  0  0  0  0  0
    5.0317   -2.4420    1.7648 O   0  0  0  0  0  0  0  0  0  0  0  0
    3.5005   -1.5103   -0.7619 H   0  0  0  0  0  0  0  0  0  0  0  0
    2.4586   -2.9101   -1.0458 H   0  0  0  0  0  0  0  0  0  0  0  0
    3.7996   -2.5797   -2.1384 H   0  0  0  0  0  0  0  0  0  0  0  0
    5.7154   -4.2356   -1.6861 H   0  0  0  0  0  0  0  0  0  0  0  0
    6.3821   -5.8785    0.2029 H   0  0  0  0  0  0  0  0  0  0  0  0
    6.9698   -4.2912    0.7140 H   0  0  0  0  0  0  0  0  0  0  0  0
    5.6131   -7.3092    2.0894 H   0  0  0  0  0  0  0  0  0  0  0  0
    4.1742   -8.5817    3.2523 H   0  0  0  0  0  0  0  0  0  0  0  0
    3.1830   -6.8609    5.3332 H   0  0  0  0  0  0  0  0  0  0  0  0
    4.2102   -8.2269    5.4183 H   0  0  0  0  0  0  0  0  0  0  0  0
    5.3706   -6.2356    6.3477 H   0  0  0  0  0  0  0  0  0  0  0  0
    6.2089   -6.9176    4.9994 H   0  0  0  0  0  0  0  0  0  0  0  0
    6.2923   -4.6238    4.7844 H   0  0  0  0  0  0  0  0  0  0  0  0
    6.5132   -5.5766    2.8597 H   0  0  0  0  0  0  0  0  0  0  0  0
    5.0679   -3.1961    5.6077 H   0  0  0  0  0  0  0  0  0  0  0  0
    3.4626   -5.2347    6.7304 H   0  0  0  0  0  0  0  0  0  0  0  0
    3.5678   -3.5551    7.1169 H   0  0  0  0  0  0  0  0  0  0  0  0
    1.3571   -4.8759    5.6549 H   0  0  0  0  0  0  0  0  0  0  0  0
    1.3632   -3.3660    6.5500 H   0  0  0  0  0  0  0  0  0  0  0  0
    1.3797   -2.3437    4.3997 H   0  0  0  0  0  0  0  0  0  0  0  0
    3.3014   -0.9858    3.5846 H   0  0  0  0  0  0  0  0  0  0  0  0
    4.9464   -1.4285    4.0474 H   0  0  0  0  0  0  0  0  0  0  0  0
    3.7103   -1.1747    5.2700 H   0  0  0  0  0  0  0  0  0  0  0  0
    1.8305   -7.9893    3.8552 H   0  0  0  0  0  0  0  0  0  0  0  0
    0.9263   -8.4506    1.6759 H   0  0  0  0  0  0  0  0  0  0  0  0
    2.4174   -9.3414    1.8555 H   0  0  0  0  0  0  0  0  0  0  0  0
    2.3979   -7.8791    0.8908 H   0  0  0  0  0  0  0  0  0  0  0  0
    2.1508   -4.0287    1.1755 H   0  0  0  0  0  0  0  0  0  0  0  0
    2.1141   -1.8661    0.6815 H   0  0  0  0  0  0  0  0  0  0  0  0
    4.5534   -1.6347    1.6493 H   0  0  0  0  0  0  0  0  0  0  0  0
  1  2  1  0
  1 29  1  0
  1 30  1  0
  1 31  1  0
  2 27  1  0
  2  3  2  0
  3  4  1  0
  3 32  1  0
  5  4  1  6
  4 33  1  0
  4 34  1  0
  5 12  1  0
  5 27  1  0
  5  6  1  0
  6  7  1  0
  7 12  1  0
  7  8  1  0
  7 35  1  6
  8 23  1  0
  8  9  1  0
  8 36  1  1
  9 10  1  0
  9 37  1  0
  9 38  1  0
 10 11  1  0
 10 39  1  0
 10 40  1  0
 11 12  1  0
 11 13  1  0
 11 41  1  1
 12 42  1  6
 13 17  1  0
 13 14  1  0
 13 43  1  1
 14 15  1  0
 14 44  1  0
 14 45  1  0
 15 16  1  0
 15 46  1  0
 15 47  1  0
 16 19  1  0
 16 17  1  0
 16 48  1  6
 17 18  1  6
 17 19  1  0
 18 49  1  0
 18 50  1  0
 18 51  1  0
 19 20  1  6
 19 25  1  0
 20 21  1  0
 21 22  2  0
 21 23  1  0
 23 24  1  0
 23 52  1  1
 24 53  1  0
 24 54  1  0
 24 55  1  0
 25 26  1  0
 25 27  1  0
 25 56  1  6
 26 57  1  0
 27 28  1  1
 28 58  1  0
M  END
>  <i_m_ct_stereo_status>  (7) 
1

>  <s_m_source_file>  (7) 
/var/tmp/pbs.5076255.sched01/tmpkni74bsw/0nq93mkxh.sdf

>  <i_m_source_file_index>  (7) 
3

>  <i_lp_mmshare_version>  (7) 
48012

>  <i_f3d_flags>  (7) 
0

>  <s_epik_input>  (7) 
W0NIMl0xW0NIXT1DKFtDSDNdKVtDQEBdMihbT0hdKVtDQEhdKFtPSF0pW0NAQF0oW0NASF0zW0NIMl1bQ0gyXTQpKE9DKD1PKVtDQEhdNVtDSDNdKVtDQF0zKFtDSDNdKVtDQEBIXTRbQ0BIXTZbQ0gyXVtDSDJdW0NAQEhdNVtDQEBIXShPNylbQ0BIXTZbQ0BdMTI3

>  <s_epik_cmdline>  (7) 
J2VwaWtfcHl0aG9uJywgJy1waHQnLCAnMi4wJywgJy1waCcsICc3LjAnLCAnLXRuJywgJzgnLCAnLW1hJywgJzIwMCcsICctaW1hZScsICc8aW5maWxlLm1hZT4nLCAnLW9tYWUnLCAnPG91dGZpbGUubWFlPic=

>  <r_lp_tautomer_probability>  (7) 
1

>  <r_epik_Ionization_Penalty>  (7) 
4.41401e-07

>  <r_epik_Ionization_Penalty_Charging>  (7) 
0

>  <r_epik_Ionization_Penalty_Neutral>  (7) 
4.41401e-07

>  <r_epik_State_Penalty>  (7) 
-0

>  <r_epik_Charging_Adjusted_Penalty>  (7) 
0

>  <i_epik_Tot_Q>  (7) 
0

>  <i_epik_Tot_abs_Q>  (7) 
0

>  <s_epik_Chemistry_Notes>  (7) 
This compound has an ester and may undergo hydrolysis at high or low pH.

>  <s_lp_Force_Field>  (7) 
OPLS3e

>  <r_lp_Energy>  (7) 
111.673

>  <b_lp_Chiralities_Consistent>  (7) 
1

>  <s_lp_Variant>  (7) 
2:0-1

>  <s_i_glide_gridfile>  (7) 
pfpi4k_grid

>  <i_i_glide_lignum>  (7) 
3

>  <i_i_glide_rotatable_bonds>  (7) 
2

>  <r_i_docking_score>  (7) 
-2.55443

>  <r_i_glide_ligand_efficiency>  (7) 
-0.0912297

>  <r_i_glide_ligand_efficiency_sa>  (7) 
-0.277027

>  <r_i_glide_ligand_efficiency_ln>  (7) 
-0.589638

>  <r_i_glide_gscore>  (7) 
-2.55443

>  <r_i_glide_lipo>  (7) 
-0.261289

>  <r_i_glide_hbond>  (7) 
-0.102673

>  <r_i_glide_metal>  (7) 
-0

>  <r_i_glide_rewards>  (7) 
-0.773991

>  <r_i_glide_evdw>  (7) 
-19.8119

>  <r_i_glide_ecoul>  (7) 
-2.7279

>  <r_i_glide_erotb>  (7) 
0

>  <r_i_glide_esite>  (7) 
-0.0166996

>  <r_i_glide_emodel>  (7) 
-26.0912

>  <r_i_glide_energy>  (7) 
-22.5398

>  <r_i_glide_einternal>  (7) 
0.366504

>  <r_i_glide_intrahb_reward>  (7) 
-0

>  <i_i_glide_confnum>  (7) 
2

>  <i_i_glide_posenum>  (7) 
31

>  <r_i_glide_eff_state_penalty>  (7) 
0

>  <ligand_id>  (7) 
2

>  <original_smiles>  (7) 
CC1=CCC23OC4C5CCC(C42)C2CCC4C2(C)C4(OC(=O)C5C)C(O)C13O

>  <smiles>  (7) 
[H]OC1([H])C2(O[H])C(C([H])([H])[H])=C([H])C([H])([H])C23OC2([H])C4([H])C([H])([H])C([H])([H])C([H])(C23[H])C2([H])C([H])([H])C([H])([H])C3([H])C1(OC(=O)C4([H])C([H])([H])[H])C23C([H])([H])[H]

$$$$
2:0:1
     RDKit          3D

 58 64  0  0  1  0  0  0  0  0999 V2000
    2.7923   -1.5634   -2.7277 C   0  0  0  0  0  0  0  0  0  0  0  0
    3.8877   -2.4186   -2.1740 C   0  0  0  0  0  0  0  0  0  0  0  0
    4.5643   -3.2651   -2.9082 C   0  0  0  0  0  0  0  0  0  0  0  0
    5.5556   -3.9717   -2.0886 C   0  0  0  0  0  0  0  0  0  0  0  0
    5.0888   -3.8086   -0.6423 C   0  0  1  0  0  0  0  0  0  0  0  0
    4.1407   -4.9053   -0.3954 O   0  0  0  0  0  0  0  0  0  0  0  0
    5.1307   -5.6466    0.3775 C   0  0  2  0  0  0  0  0  0  0  0  0
    4.6079   -6.3743    1.6726 C   0  0  1  0  0  0  0  0  0  0  0  0
    5.4506   -6.0684    2.9385 C   0  0  0  0  0  0  0  0  0  0  0  0
    6.7262   -5.2794    2.6602 C   0  0  0  0  0  0  0  0  0  0  0  0
    6.4762   -3.9574    1.8756 C   0  0  1  0  0  0  0  0  0  0  0  0
    6.0341   -4.3998    0.4522 C   0  0  2  0  0  0  0  0  0  0  0  0
    5.7945   -2.7774    2.7423 C   0  0  2  0  0  0  0  0  0  0  0  0
    5.4383   -2.9231    4.2399 C   0  0  0  0  0  0  0  0  0  0  0  0
    3.9987   -2.4716    4.4012 C   0  0  0  0  0  0  0  0  0  0  0  0
    3.6131   -1.7753    3.1049 C   0  0  1  0  0  0  0  0  0  0  0  0
    4.8116   -1.8308    2.2138 C   0  0  1  0  0  0  0  0  0  0  0  0
    5.3672   -0.3792    1.9592 C   0  0  0  0  0  0  0  0  0  0  0  0
    3.5400   -2.5285    1.7774 C   0  0  1  0  0  0  0  0  0  0  0  0
    3.6160   -3.9309    1.9641 O   0  0  0  0  0  0  0  0  0  0  0  0
    2.5964   -4.7508    2.1179 C   0  0  0  0  0  0  0  0  0  0  0  0
    1.4886   -4.4648    2.4179 O   0  0  0  0  0  0  0  0  0  0  0  0
    3.0982   -6.2149    2.0154 C   0  0  1  0  0  0  0  0  0  0  0  0
    2.1587   -7.0126    1.1205 C   0  0  0  0  0  0  0  0  0  0  0  0
    3.2453   -2.1693    0.3495 C   0  0  1  0  0  0  0  0  0  0  0  0
    2.8844   -0.8213    0.4222 O   0  0  0  0  0  0  0  0  0  0  0  0
    4.3735   -2.4223   -0.7213 C   0  0  2  0  0  0  0  0  0  0  0  0
    5.4173   -1.4575   -0.6691 O   0  0  0  0  0  0  0  0  0  0  0  0
    2.9556   -0.5266   -2.4339 H   0  0  0  0  0  0  0  0  0  0  0  0
    1.8605   -1.9657   -2.3388 H   0  0  0  0  0  0  0  0  0  0  0  0
    2.7030   -1.6411   -3.8078 H   0  0  0  0  0  0  0  0  0  0  0  0
    4.4312   -3.4692   -3.9574 H   0  0  0  0  0  0  0  0  0  0  0  0
    5.4151   -5.0058   -2.3980 H   0  0  0  0  0  0  0  0  0  0  0  0
    6.5514   -3.5323   -2.2709 H   0  0  0  0  0  0  0  0  0  0  0  0
    5.6109   -6.3877   -0.2581 H   0  0  0  0  0  0  0  0  0  0  0  0
    4.7453   -7.4479    1.5194 H   0  0  0  0  0  0  0  0  0  0  0  0
    4.8485   -5.5204    3.6591 H   0  0  0  0  0  0  0  0  0  0  0  0
    5.6985   -6.9941    3.4600 H   0  0  0  0  0  0  0  0  0  0  0  0
    7.2404   -5.1004    3.6006 H   0  0  0  0  0  0  0  0  0  0  0  0
    7.4111   -5.9173    2.0998 H   0  0  0  0  0  0  0  0  0  0  0  0
    7.4965   -3.5957    1.6972 H   0  0  0  0  0  0  0  0  0  0  0  0
    6.9546   -4.6918   -0.0629 H   0  0  0  0  0  0  0  0  0  0  0  0
    6.6146   -2.0778    2.7461 H   0  0  0  0  0  0  0  0  0  0  0  0
    5.6900   -3.8825    4.6754 H   0  0  0  0  0  0  0  0  0  0  0  0
    6.0424   -2.2301    4.8266 H   0  0  0  0  0  0  0  0  0  0  0  0
    3.3867   -3.3521    4.5628 H   0  0  0  0  0  0  0  0  0  0  0  0
    3.9127   -1.8015    5.2554 H   0  0  0  0  0  0  0  0  0  0  0  0
    3.1012   -0.8104    3.1997 H   0  0  0  0  0  0  0  0  0  0  0  0
    4.6382    0.3172    1.5274 H   0  0  0  0  0  0  0  0  0  0  0  0
    6.2587   -0.3480    1.3251 H   0  0  0  0  0  0  0  0  0  0  0  0
    5.6859    0.0701    2.9023 H   0  0  0  0  0  0  0  0  0  0  0  0
    2.9426   -6.5920    3.0240 H   0  0  0  0  0  0  0  0  0  0  0  0
    1.1316   -7.0223    1.4684 H   0  0  0  0  0  0  0  0  0  0  0  0
    2.4959   -8.0488    1.0563 H   0  0  0  0  0  0  0  0  0  0  0  0
    2.1662   -6.5881    0.1203 H   0  0  0  0  0  0  0  0  0  0  0  0
    2.3688   -2.7543    0.0771 H   0  0  0  0  0  0  0  0  0  0  0  0
    2.0656   -0.7475   -0.0827 H   0  0  0  0  0  0  0  0  0  0  0  0
    5.5909   -1.3105    0.2509 H   0  0  0  0  0  0  0  0  0  0  0  0
  1  2  1  0
  1 29  1  0
  1 30  1  0
  1 31  1  0
  2 27  1  0
  2  3  2  0
  3  4  1  0
  3 32  1  0
  5  4  1  6
  4 33  1  0
  4 34  1  0
  5 12  1  0
  5 27  1  0
  5  6  1  0
  6  7  1  0
  7 12  1  0
  7  8  1  0
  7 35  1  6
  8 23  1  0
  8  9  1  0
  8 36  1  6
  9 10  1  0
  9 37  1  0
  9 38  1  0
 10 11  1  0
 10 39  1  0
 10 40  1  0
 11 12  1  0
 11 13  1  0
 11 41  1  6
 12 42  1  6
 13 17  1  0
 13 14  1  0
 13 43  1  1
 14 15  1  0
 14 44  1  0
 14 45  1  0
 15 16  1  0
 15 46  1  0
 15 47  1  0
 16 19  1  0
 16 17  1  0
 16 48  1  1
 17 18  1  6
 17 19  1  0
 18 49  1  0
 18 50  1  0
 18 51  1  0
 19 20  1  1
 19 25  1  0
 20 21  1  0
 21 22  2  0
 21 23  1  0
 23 24  1  0
 23 52  1  1
 24 53  1  0
 24 54  1  0
 24 55  1  0
 25 26  1  0
 25 27  1  0
 25 56  1  6
 26 57  1  0
 27 28  1  6
 28 58  1  0
M  END
>  <i_m_ct_stereo_status>  (8) 
1

>  <s_m_source_file>  (8) 
/var/tmp/pbs.5076255.sched01/tmpkni74bsw/0nq93mkxh.sdf

>  <i_m_source_file_index>  (8) 
3

>  <i_lp_mmshare_version>  (8) 
48012

>  <i_f3d_flags>  (8) 
0

>  <s_epik_input>  (8) 
W0NIMl0xW0NIXT1DKFtDSDNdKVtDQEBdMihbT0hdKVtDQEhdKFtPSF0pW0NAQF0oW0NASF0zW0NIMl1bQ0gyXTQpKE9DKD1PKVtDQEhdNVtDSDNdKVtDQF0zKFtDSDNdKVtDQEBIXTRbQ0BIXTZbQ0gyXVtDSDJdW0NAQEhdNVtDQEBIXShPNylbQ0BIXTZbQ0BdMTI3

>  <s_epik_cmdline>  (8) 
J2VwaWtfcHl0aG9uJywgJy1waHQnLCAnMi4wJywgJy1waCcsICc3LjAnLCAnLXRuJywgJzgnLCAnLW1hJywgJzIwMCcsICctaW1hZScsICc8aW5maWxlLm1hZT4nLCAnLW9tYWUnLCAnPG91dGZpbGUubWFlPic=

>  <r_lp_tautomer_probability>  (8) 
1

>  <r_epik_Ionization_Penalty>  (8) 
4.41401e-07

>  <r_epik_Ionization_Penalty_Charging>  (8) 
0

>  <r_epik_Ionization_Penalty_Neutral>  (8) 
4.41401e-07

>  <r_epik_State_Penalty>  (8) 
-0

>  <r_epik_Charging_Adjusted_Penalty>  (8) 
0

>  <i_epik_Tot_Q>  (8) 
0

>  <i_epik_Tot_abs_Q>  (8) 
0

>  <s_epik_Chemistry_Notes>  (8) 
This compound has an ester and may undergo hydrolysis at high or low pH.

>  <s_lp_Force_Field>  (8) 
OPLS3e

>  <r_lp_Energy>  (8) 
111.673

>  <b_lp_Chiralities_Consistent>  (8) 
1

>  <s_lp_Variant>  (8) 
2:0-1

>  <s_i_glide_gridfile>  (8) 
pfpi4k_grid

>  <i_i_glide_lignum>  (8) 
3

>  <i_i_glide_rotatable_bonds>  (8) 
2

>  <r_i_docking_score>  (8) 
-1.65563

>  <r_i_glide_ligand_efficiency>  (8) 
-0.0591297

>  <r_i_glide_ligand_efficiency_sa>  (8) 
-0.179552

>  <r_i_glide_ligand_efficiency_ln>  (8) 
-0.382168

>  <r_i_glide_gscore>  (8) 
-1.65563

>  <r_i_glide_lipo>  (8) 
-0.749078

>  <r_i_glide_hbond>  (8) 
0

>  <r_i_glide_metal>  (8) 
-0

>  <r_i_glide_rewards>  (8) 
-0.773991

>  <r_i_glide_evdw>  (8) 
3.24449

>  <r_i_glide_ecoul>  (8) 
-3.99372

>  <r_i_glide_erotb>  (8) 
0

>  <r_i_glide_esite>  (8) 
-0.0101278

>  <r_i_glide_emodel>  (8) 
2.05968

>  <r_i_glide_energy>  (8) 
-0.749232

>  <r_i_glide_einternal>  (8) 
1.63453

>  <r_i_glide_intrahb_reward>  (8) 
-0

>  <i_i_glide_confnum>  (8) 
2

>  <i_i_glide_posenum>  (8) 
2

>  <r_i_glide_eff_state_penalty>  (8) 
0

>  <ligand_id>  (8) 
2

>  <original_smiles>  (8) 
CC1=CCC23OC4C5CCC(C42)C2CCC4C2(C)C4(OC(=O)C5C)C(O)C13O

>  <smiles>  (8) 
[H]OC1([H])C2(O[H])C(C([H])([H])[H])=C([H])C([H])([H])C23OC2([H])C4([H])C([H])([H])C([H])([H])C([H])(C23[H])C2([H])C([H])([H])C([H])([H])C3([H])C1(OC(=O)C4([H])C([H])([H])[H])C23C([H])([H])[H]

$$$$
3:0:0
     RDKit          3D

 70 76  0  0  1  0  0  0  0  0999 V2000
    4.6274   -8.0657    3.8256 C   0  0  0  0  0  0  0  0  0  0  0  0
    4.1166   -7.7008    2.4190 C   0  0  0  0  0  0  0  0  0  0  0  0
    5.3025   -7.8112    1.4250 C   0  0  0  0  0  0  0  0  0  0  0  0
    3.0922   -8.7660    1.9534 C   0  0  0  0  0  0  0  0  0  0  0  0
    1.7809   -8.7510    2.7404 C   0  0  0  0  0  0  0  0  0  0  0  0
    1.0984   -7.3822    2.6256 C   0  0  1  0  0  0  0  0  0  0  0  0
   -0.1517   -7.4501    3.2865 O   0  0  0  0  0  0  0  0  0  0  0  0
    1.9912   -6.2088    3.1400 C   0  0  1  0  0  0  0  0  0  0  0  0
    1.3888   -5.0384    2.4745 O   0  0  0  0  0  0  0  0  0  0  0  0
    1.6604   -3.6525    2.8930 C   0  0  2  0  0  0  0  0  0  0  0  0
    2.2946   -2.8325    1.7541 C   0  0  0  0  0  0  0  0  0  0  0  0
    3.8184   -2.6002    1.7281 C   0  0  2  0  0  0  0  0  0  0  0  0
    4.2172   -1.3758    0.8055 C   0  0  0  0  0  0  0  0  0  0  0  0
    3.7668   -1.5385   -0.6682 C   0  0  0  0  0  0  0  0  0  0  0  0
    3.5611   -0.0680    1.3246 C   0  0  0  0  0  0  0  0  0  0  0  0
    5.7500   -1.1562    0.8083 C   0  0  1  0  0  0  0  0  0  0  0  0
    6.1831   -0.7519    2.0935 O   0  0  0  0  0  0  0  0  0  0  0  0
    6.4965   -2.4251    0.3748 C   0  0  1  0  0  0  0  0  0  0  0  0
    7.8805   -2.1453    0.3541 O   0  0  0  0  0  0  0  0  0  0  0  0
    6.1578   -3.6277    1.2731 C   0  0  0  0  0  0  0  0  0  0  0  0
    4.6411   -3.9228    1.4933 C   0  0  2  0  0  0  0  0  0  0  0  0
    4.2733   -4.4774    0.2486 O   0  0  0  0  0  0  0  0  0  0  0  0
    4.4994   -5.0249    2.6346 C   0  0  1  0  0  0  0  0  0  0  0  0
    4.5769   -4.4682    4.1610 C   0  0  1  0  0  0  0  0  0  0  0  0
    5.4093   -3.3425    4.3612 O   0  0  0  0  0  0  0  0  0  0  0  0
    3.2505   -4.2796    4.9601 C   0  0  1  0  0  0  0  0  0  0  0  0
    3.2092   -4.9146    6.2417 O   0  0  0  0  0  0  0  0  0  0  0  0
    2.6238   -6.3198    5.9029 O   0  0  0  0  0  0  0  0  0  0  0  0
    1.8546   -6.0139    4.7610 C   0  0  2  0  0  0  0  0  0  0  0  0
    0.6620   -5.1767    5.2349 C   0  0  0  0  0  0  0  0  0  0  0  0
    0.7932   -3.8430    5.1441 C   0  0  0  0  0  0  0  0  0  0  0  0
    2.0532   -3.3866    4.4243 C   0  0  2  0  0  0  0  0  0  0  0  0
    2.7925   -5.2424    4.2533 O   0  0  0  0  0  0  0  0  0  0  0  0
    3.4522   -6.2778    2.3662 C   0  0  1  0  0  0  0  0  0  0  0  0
    5.0377   -9.0793    3.8486 H   0  0  0  0  0  0  0  0  0  0  0  0
    3.8298   -8.0334    4.5662 H   0  0  0  0  0  0  0  0  0  0  0  0
    5.4144   -7.3917    4.1685 H   0  0  0  0  0  0  0  0  0  0  0  0
    5.0384   -7.3984    0.4513 H   0  0  0  0  0  0  0  0  0  0  0  0
    5.5939   -8.8534    1.2647 H   0  0  0  0  0  0  0  0  0  0  0  0
    6.2063   -7.3016    1.7670 H   0  0  0  0  0  0  0  0  0  0  0  0
    2.8574   -8.6005    0.9015 H   0  0  0  0  0  0  0  0  0  0  0  0
    3.5350   -9.7657    1.9944 H   0  0  0  0  0  0  0  0  0  0  0  0
    1.1295   -9.5271    2.3383 H   0  0  0  0  0  0  0  0  0  0  0  0
    1.9610   -9.0219    3.7829 H   0  0  0  0  0  0  0  0  0  0  0  0
    0.8882   -7.2164    1.5682 H   0  0  0  0  0  0  0  0  0  0  0  0
   -0.0537   -7.9507    4.0898 H   0  0  0  0  0  0  0  0  0  0  0  0
    0.6491   -3.2530    2.8716 H   0  0  0  0  0  0  0  0  0  0  0  0
    1.9784   -3.2549    0.7993 H   0  0  0  0  0  0  0  0  0  0  0  0
    1.7911   -1.8695    1.8003 H   0  0  0  0  0  0  0  0  0  0  0  0
    4.0423   -2.2312    2.7193 H   0  0  0  0  0  0  0  0  0  0  0  0
    4.0185   -0.6543   -1.2582 H   0  0  0  0  0  0  0  0  0  0  0  0
    2.6905   -1.6792   -0.7469 H   0  0  0  0  0  0  0  0  0  0  0  0
    4.2064   -2.3934   -1.1754 H   0  0  0  0  0  0  0  0  0  0  0  0
    4.0334    0.8167    0.8931 H   0  0  0  0  0  0  0  0  0  0  0  0
    3.6431    0.0219    2.4087 H   0  0  0  0  0  0  0  0  0  0  0  0
    2.5008    0.0019    1.0689 H   0  0  0  0  0  0  0  0  0  0  0  0
    5.9906   -0.3485    0.1125 H   0  0  0  0  0  0  0  0  0  0  0  0
    6.9308   -0.1602    1.9827 H   0  0  0  0  0  0  0  0  0  0  0  0
    6.2477   -2.6766   -0.6561 H   0  0  0  0  0  0  0  0  0  0  0  0
    8.1624   -2.0019    1.2477 H   0  0  0  0  0  0  0  0  0  0  0  0
    6.6537   -4.5106    0.8630 H   0  0  0  0  0  0  0  0  0  0  0  0
    6.6070   -3.4586    2.2428 H   0  0  0  0  0  0  0  0  0  0  0  0
    3.3334   -4.5890    0.2404 H   0  0  0  0  0  0  0  0  0  0  0  0
    5.4617   -5.5157    2.5728 H   0  0  0  0  0  0  0  0  0  0  0  0
    5.1092   -5.2456    4.7063 H   0  0  0  0  0  0  0  0  0  0  0  0
    5.0289   -2.5900    3.9259 H   0  0  0  0  0  0  0  0  0  0  0  0
   -0.2054   -5.6605    5.6748 H   0  0  0  0  0  0  0  0  0  0  0  0
    0.0507   -3.1262    5.4470 H   0  0  0  0  0  0  0  0  0  0  0  0
    2.2212   -2.3256    4.6248 H   0  0  0  0  0  0  0  0  0  0  0  0
    3.1504   -6.2272    1.3310 H   0  0  0  0  0  0  0  0  0  0  0  0
  1  2  1  0
  1 35  1  0
  1 36  1  0
  1 37  1  0
  2 34  1  0
  2  3  1  0
  2  4  1  0
  3 38  1  0
  3 39  1  0
  3 40  1  0
  4  5  1  0
  4 41  1  0
  4 42  1  0
  5  6  1  0
  5 43  1  0
  5 44  1  0
  6  7  1  0
  6  8  1  0
  6 45  1  6
  7 46  1  0
  8 29  1  0
  8 34  1  0
  8  9  1  6
  9 10  1  0
 10 32  1  0
 10 11  1  0
 10 47  1  1
 11 12  1  0
 11 48  1  0
 11 49  1  0
 12 21  1  0
 12 13  1  0
 12 50  1  1
 13 14  1  0
 13 15  1  0
 13 16  1  0
 14 51  1  0
 14 52  1  0
 14 53  1  0
 15 54  1  0
 15 55  1  0
 15 56  1  0
 16 17  1  0
 16 18  1  0
 16 57  1  6
 17 58  1  0
 18 19  1  0
 18 20  1  0
 18 59  1  6
 19 60  1  0
 20 21  1  0
 20 61  1  0
 20 62  1  0
 21 22  1  6
 21 23  1  0
 22 63  1  0
 23 24  1  0
 23 34  1  0
 23 64  1  6
 24 25  1  0
 24 26  1  0
 24 65  1  1
 25 66  1  0
 26 32  1  0
 26 33  1  0
 26 27  1  1
 27 28  1  0
 29 28  1  6
 29 30  1  0
 29 33  1  0
 30 31  2  0
 30 67  1  0
 31 32  1  0
 31 68  1  0
 32 69  1  6
 34 70  1  6
M  END
>  <i_m_ct_stereo_status>  (9) 
1

>  <s_m_source_file>  (9) 
/var/tmp/pbs.5076255.sched01/tmpkni74bsw/0nq93mkxh.sdf

>  <i_m_source_file_index>  (9) 
4

>  <i_lp_mmshare_version>  (9) 
48012

>  <i_f3d_flags>  (9) 
0

>  <s_epik_input>  (9) 
W09IXVtDQEBIXTFbQ0gyXVtDSDJdQyhbQ0gzXSkoW0NIM10pW0NAQEhdMltDQEhdKFtDQEhdM1tPSF0pW0NAXShbT0hdKShbQ0gyXVtDQEhdKFtPSF0pW0NASF0oW09IXSlDNChbQ0gzXSlbQ0gzXSlbQ0BASF00W0NIMl1bQ0BASF0oTzUpW0NAQEhdKFtDSF09W0NIXTYpW0NAXTMoTzcpT09bQ0BAXTY3W0NAXTEyNQ==

>  <s_epik_cmdline>  (9) 
J2VwaWtfcHl0aG9uJywgJy1waHQnLCAnMi4wJywgJy1waCcsICc3LjAnLCAnLXRuJywgJzgnLCAnLW1hJywgJzIwMCcsICctaW1hZScsICc8aW5maWxlLm1hZT4nLCAnLW9tYWUnLCAnPG91dGZpbGUubWFlPic=

>  <r_lp_tautomer_probability>  (9) 
1

>  <r_epik_Ionization_Penalty>  (9) 
1.79354e-06

>  <r_epik_Ionization_Penalty_Charging>  (9) 
0

>  <r_epik_Ionization_Penalty_Neutral>  (9) 
1.79354e-06

>  <r_epik_State_Penalty>  (9) 
-0

>  <r_epik_Charging_Adjusted_Penalty>  (9) 
0

>  <i_epik_Tot_Q>  (9) 
0

>  <i_epik_Tot_abs_Q>  (9) 
0

>  <s_lp_Force_Field>  (9) 
OPLS3e

>  <r_lp_Energy>  (9) 
218.347

>  <b_lp_Chiralities_Consistent>  (9) 
1

>  <s_lp_Variant>  (9) 
3:0-1

>  <s_i_glide_gridfile>  (9) 
pfpi4k_grid

>  <i_i_glide_lignum>  (9) 
4

>  <i_i_glide_rotatable_bonds>  (9) 
5

>  <r_i_docking_score>  (9) 
-2.75362

>  <r_i_glide_ligand_efficiency>  (9) 
-0.080989

>  <r_i_glide_ligand_efficiency_sa>  (9) 
-0.262373

>  <r_i_glide_ligand_efficiency_ln>  (9) 
-0.608353

>  <r_i_glide_gscore>  (9) 
-2.75362

>  <r_i_glide_lipo>  (9) 
-0.422628

>  <r_i_glide_hbond>  (9) 
-0.0130967

>  <r_i_glide_metal>  (9) 
-0

>  <r_i_glide_rewards>  (9) 
-0.132628

>  <r_i_glide_evdw>  (9) 
-26.0291

>  <r_i_glide_ecoul>  (9) 
-5.88495

>  <r_i_glide_erotb>  (9) 
0

>  <r_i_glide_esite>  (9) 
-0.00107336

>  <r_i_glide_emodel>  (9) 
-36.6571

>  <r_i_glide_energy>  (9) 
-31.9141

>  <r_i_glide_einternal>  (9) 
1.18309

>  <r_i_glide_intrahb_reward>  (9) 
-0

>  <i_i_glide_confnum>  (9) 
1

>  <i_i_glide_posenum>  (9) 
16

>  <r_i_glide_eff_state_penalty>  (9) 
0

>  <ligand_id>  (9) 
3

>  <original_smiles>  (9) 
CC1(C)CCC(O)C23OC4CC5C(C)(C)C(O)C(O)CC5(O)C(C(O)C56OOC2(C=CC45)O6)C13

>  <smiles>  (9) 
[H]OC1([H])C([H])([H])C2(O[H])C3([H])C([H])(O[H])C45OOC6(O4)C([H])=C([H])C5([H])C([H])(OC64C([H])(O[H])C([H])([H])C([H])([H])C(C([H])([H])[H])(C([H])([H])[H])C34[H])C([H])([H])C2([H])C(C([H])([H])[H])(C([H])([H])[H])C1([H])O[H]

$$$$
3:0:1
     RDKit          3D

 70 76  0  0  1  0  0  0  0  0999 V2000
    4.3465   -9.2009    3.8352 C   0  0  0  0  0  0  0  0  0  0  0  0
    3.7672   -8.8501    2.4487 C   0  0  0  0  0  0  0  0  0  0  0  0
    4.8746   -9.0869    1.3865 C   0  0  0  0  0  0  0  0  0  0  0  0
    2.6426   -9.8530    2.1004 C   0  0  0  0  0  0  0  0  0  0  0  0
    1.3992   -9.7161    2.9766 C   0  0  0  0  0  0  0  0  0  0  0  0
    0.8017   -8.3133    2.8437 C   0  0  1  0  0  0  0  0  0  0  0  0
   -0.3693   -8.2925    3.6389 O   0  0  0  0  0  0  0  0  0  0  0  0
    1.7987   -7.1742    3.2329 C   0  0  1  0  0  0  0  0  0  0  0  0
    1.2099   -5.9901    2.5689 O   0  0  0  0  0  0  0  0  0  0  0  0
    1.6311   -4.6230    2.8976 C   0  0  2  0  0  0  0  0  0  0  0  0
    2.2729   -3.9152    1.6912 C   0  0  0  0  0  0  0  0  0  0  0  0
    3.7990   -3.7836    1.5617 C   0  0  2  0  0  0  0  0  0  0  0  0
    4.2063   -2.6268    0.5531 C   0  0  0  0  0  0  0  0  0  0  0  0
    3.6169   -2.8047   -0.8729 C   0  0  0  0  0  0  0  0  0  0  0  0
    3.6899   -1.2495    1.0599 C   0  0  0  0  0  0  0  0  0  0  0  0
    5.7492   -2.5286    0.4385 C   0  0  1  0  0  0  0  0  0  0  0  0
    6.2832   -2.1148    1.6743 O   0  0  0  0  0  0  0  0  0  0  0  0
    6.3877   -3.8659    0.0351 C   0  0  1  0  0  0  0  0  0  0  0  0
    7.7902   -3.7239   -0.0571 O   0  0  0  0  0  0  0  0  0  0  0  0
    6.0346   -4.9943    1.0130 C   0  0  0  0  0  0  0  0  0  0  0  0
    4.5145   -5.1659    1.3326 C   0  0  2  0  0  0  0  0  0  0  0  0
    4.0298   -5.7586    0.1455 O   0  0  0  0  0  0  0  0  0  0  0  0
    4.3552   -6.2155    2.5238 C   0  0  1  0  0  0  0  0  0  0  0  0
    4.5741   -5.6164    4.0149 C   0  0  1  0  0  0  0  0  0  0  0  0
    5.4736   -4.5356    4.1036 O   0  0  0  0  0  0  0  0  0  0  0  0
    3.3217   -5.2853    4.8857 C   0  0  1  0  0  0  0  0  0  0  0  0
    3.3241   -5.8639    6.1902 O   0  0  0  0  0  0  0  0  0  0  0  0
    2.6187   -7.2354    5.9536 O   0  0  0  0  0  0  0  0  0  0  0  0
    1.7921   -6.9177    4.8540 C   0  0  2  0  0  0  0  0  0  0  0  0
    0.6986   -5.9699    5.3742 C   0  0  0  0  0  0  0  0  0  0  0  0
    0.9192   -4.6553    5.2101 C   0  0  0  0  0  0  0  0  0  0  0  0
    2.1518   -4.3244    4.3867 C   0  0  2  0  0  0  0  0  0  0  0  0
    2.7424   -6.2362    4.2522 O   0  0  0  0  0  0  0  0  0  0  0  0
    3.2009   -7.3836    2.3715 C   0  0  1  0  0  0  0  0  0  0  0  0
    4.6798  -10.2394    3.8738 H   0  0  0  0  0  0  0  0  0  0  0  0
    3.6071   -9.0803    4.6283 H   0  0  0  0  0  0  0  0  0  0  0  0
    5.2040   -8.5802    4.0956 H   0  0  0  0  0  0  0  0  0  0  0  0
    4.5794   -8.7025    0.4103 H   0  0  0  0  0  0  0  0  0  0  0  0
    5.0755  -10.1530    1.2638 H   0  0  0  0  0  0  0  0  0  0  0  0
    5.8356   -8.6370    1.6486 H   0  0  0  0  0  0  0  0  0  0  0  0
    2.3450   -9.7125    1.0587 H   0  0  0  0  0  0  0  0  0  0  0  0
    3.0152  -10.8777    2.1607 H   0  0  0  0  0  0  0  0  0  0  0  0
    0.6716  -10.4602    2.6563 H   0  0  0  0  0  0  0  0  0  0  0  0
    1.6265   -9.9488    4.0168 H   0  0  0  0  0  0  0  0  0  0  0  0
    0.5090   -8.1833    1.7994 H   0  0  0  0  0  0  0  0  0  0  0  0
   -0.8188   -9.1253    3.5512 H   0  0  0  0  0  0  0  0  0  0  0  0
    0.6481   -4.1490    2.8880 H   0  0  0  0  0  0  0  0  0  0  0  0
    1.8856   -4.3672    0.7782 H   0  0  0  0  0  0  0  0  0  0  0  0
    1.8463   -2.9136    1.7211 H   0  0  0  0  0  0  0  0  0  0  0  0
    4.1174   -3.3906    2.5211 H   0  0  0  0  0  0  0  0  0  0  0  0
    3.9040   -1.9670   -1.5121 H   0  0  0  0  0  0  0  0  0  0  0  0
    2.5265   -2.8301   -0.8687 H   0  0  0  0  0  0  0  0  0  0  0  0
    3.9564   -3.7038   -1.3821 H   0  0  0  0  0  0  0  0  0  0  0  0
    4.1907   -0.4180    0.5588 H   0  0  0  0  0  0  0  0  0  0  0  0
    3.8458   -1.1269    2.1331 H   0  0  0  0  0  0  0  0  0  0  0  0
    2.6238   -1.1093    0.8715 H   0  0  0  0  0  0  0  0  0  0  0  0
    6.0164   -1.7707   -0.3012 H   0  0  0  0  0  0  0  0  0  0  0  0
    5.9629   -1.2439    1.8608 H   0  0  0  0  0  0  0  0  0  0  0  0
    6.0518   -4.1360   -0.9661 H   0  0  0  0  0  0  0  0  0  0  0  0
    8.1102   -3.4726    0.7978 H   0  0  0  0  0  0  0  0  0  0  0  0
    6.4242   -5.9259    0.5993 H   0  0  0  0  0  0  0  0  0  0  0  0
    6.6021   -4.8305    1.9265 H   0  0  0  0  0  0  0  0  0  0  0  0
    4.0655   -5.1368   -0.5648 H   0  0  0  0  0  0  0  0  0  0  0  0
    5.2730   -6.7790    2.4181 H   0  0  0  0  0  0  0  0  0  0  0  0
    5.0867   -6.4057    4.5621 H   0  0  0  0  0  0  0  0  0  0  0  0
    6.3069   -4.8128    3.7494 H   0  0  0  0  0  0  0  0  0  0  0  0
   -0.1615   -6.3733    5.8940 H   0  0  0  0  0  0  0  0  0  0  0  0
    0.2580   -3.8713    5.5381 H   0  0  0  0  0  0  0  0  0  0  0  0
    2.4210   -3.2742    4.5297 H   0  0  0  0  0  0  0  0  0  0  0  0
    2.8345   -7.3470    1.3532 H   0  0  0  0  0  0  0  0  0  0  0  0
  1  2  1  0
  1 35  1  0
  1 36  1  0
  1 37  1  0
  2 34  1  0
  2  3  1  0
  2  4  1  0
  3 38  1  0
  3 39  1  0
  3 40  1  0
  4  5  1  0
  4 41  1  0
  4 42  1  0
  5  6  1  0
  5 43  1  0
  5 44  1  0
  6  7  1  0
  6  8  1  0
  6 45  1  6
  7 46  1  0
  8 29  1  0
  8 34  1  0
  8  9  1  6
  9 10  1  0
 10 32  1  0
 10 11  1  0
 10 47  1  1
 11 12  1  0
 11 48  1  0
 11 49  1  0
 12 21  1  0
 12 13  1  0
 12 50  1  1
 13 14  1  0
 13 15  1  0
 13 16  1  0
 14 51  1  0
 14 52  1  0
 14 53  1  0
 15 54  1  0
 15 55  1  0
 15 56  1  0
 16 17  1  0
 16 18  1  0
 16 57  1  6
 17 58  1  0
 18 19  1  0
 18 20  1  0
 18 59  1  6
 19 60  1  0
 20 21  1  0
 20 61  1  0
 20 62  1  0
 21 22  1  6
 21 23  1  0
 22 63  1  0
 23 24  1  0
 23 34  1  0
 23 64  1  6
 24 25  1  0
 24 26  1  0
 24 65  1  1
 25 66  1  0
 26 32  1  0
 26 33  1  0
 26 27  1  1
 27 28  1  0
 29 28  1  6
 29 30  1  0
 29 33  1  0
 30 31  2  0
 30 67  1  0
 31 32  1  0
 31 68  1  0
 32 69  1  6
 34 70  1  6
M  END
>  <i_m_ct_stereo_status>  (10) 
1

>  <s_m_source_file>  (10) 
/var/tmp/pbs.5076255.sched01/tmpkni74bsw/0nq93mkxh.sdf

>  <i_m_source_file_index>  (10) 
4

>  <i_lp_mmshare_version>  (10) 
48012

>  <i_f3d_flags>  (10) 
0

>  <s_epik_input>  (10) 
W09IXVtDQEBIXTFbQ0gyXVtDSDJdQyhbQ0gzXSkoW0NIM10pW0NAQEhdMltDQEhdKFtDQEhdM1tPSF0pW0NAXShbT0hdKShbQ0gyXVtDQEhdKFtPSF0pW0NASF0oW09IXSlDNChbQ0gzXSlbQ0gzXSlbQ0BASF00W0NIMl1bQ0BASF0oTzUpW0NAQEhdKFtDSF09W0NIXTYpW0NAXTMoTzcpT09bQ0BAXTY3W0NAXTEyNQ==

>  <s_epik_cmdline>  (10) 
J2VwaWtfcHl0aG9uJywgJy1waHQnLCAnMi4wJywgJy1waCcsICc3LjAnLCAnLXRuJywgJzgnLCAnLW1hJywgJzIwMCcsICctaW1hZScsICc8aW5maWxlLm1hZT4nLCAnLW9tYWUnLCAnPG91dGZpbGUubWFlPic=

>  <r_lp_tautomer_probability>  (10) 
1

>  <r_epik_Ionization_Penalty>  (10) 
1.79354e-06

>  <r_epik_Ionization_Penalty_Charging>  (10) 
0

>  <r_epik_Ionization_Penalty_Neutral>  (10) 
1.79354e-06

>  <r_epik_State_Penalty>  (10) 
-0

>  <r_epik_Charging_Adjusted_Penalty>  (10) 
0

>  <i_epik_Tot_Q>  (10) 
0

>  <i_epik_Tot_abs_Q>  (10) 
0

>  <s_lp_Force_Field>  (10) 
OPLS3e

>  <r_lp_Energy>  (10) 
218.347

>  <b_lp_Chiralities_Consistent>  (10) 
1

>  <s_lp_Variant>  (10) 
3:0-1

>  <s_i_glide_gridfile>  (10) 
pfpi4k_grid

>  <i_i_glide_lignum>  (10) 
4

>  <i_i_glide_rotatable_bonds>  (10) 
5

>  <r_i_docking_score>  (10) 
-2.53888

>  <r_i_glide_ligand_efficiency>  (10) 
-0.0746729

>  <r_i_glide_ligand_efficiency_sa>  (10) 
-0.241911

>  <r_i_glide_ligand_efficiency_ln>  (10) 
-0.56091

>  <r_i_glide_gscore>  (10) 
-2.53888

>  <r_i_glide_lipo>  (10) 
-0.325665

>  <r_i_glide_hbond>  (10) 
0

>  <r_i_glide_metal>  (10) 
-0

>  <r_i_glide_rewards>  (10) 
-0.132628

>  <r_i_glide_evdw>  (10) 
-28.7729

>  <r_i_glide_ecoul>  (10) 
-4.26568

>  <r_i_glide_erotb>  (10) 
0

>  <r_i_glide_esite>  (10) 
-0.00209237

>  <r_i_glide_emodel>  (10) 
-37.4143

>  <r_i_glide_energy>  (10) 
-33.0385

>  <r_i_glide_einternal>  (10) 
1.47487

>  <r_i_glide_intrahb_reward>  (10) 
-0

>  <i_i_glide_confnum>  (10) 
2

>  <i_i_glide_posenum>  (10) 
12

>  <r_i_glide_eff_state_penalty>  (10) 
0

>  <ligand_id>  (10) 
3

>  <original_smiles>  (10) 
CC1(C)CCC(O)C23OC4CC5C(C)(C)C(O)C(O)CC5(O)C(C(O)C56OOC2(C=CC45)O6)C13

>  <smiles>  (10) 
[H]OC1([H])C([H])([H])C2(O[H])C3([H])C([H])(O[H])C45OOC6(O4)C([H])=C([H])C5([H])C([H])(OC64C([H])(O[H])C([H])([H])C([H])([H])C(C([H])([H])[H])(C([H])([H])[H])C34[H])C([H])([H])C2([H])C(C([H])([H])[H])(C([H])([H])[H])C1([H])O[H]

$$$$
3:0:2
     RDKit          3D

 70 76  0  0  1  0  0  0  0  0999 V2000
    4.3532   -9.2013    3.8341 C   0  0  0  0  0  0  0  0  0  0  0  0
    3.7717   -8.8500    2.4486 C   0  0  0  0  0  0  0  0  0  0  0  0
    4.8807   -9.0855    1.3877 C   0  0  0  0  0  0  0  0  0  0  0  0
    2.6491   -9.8521    2.0996 C   0  0  0  0  0  0  0  0  0  0  0  0
    1.4062   -9.7191    2.9741 C   0  0  0  0  0  0  0  0  0  0  0  0
    0.8063   -8.3182    2.8399 C   0  0  1  0  0  0  0  0  0  0  0  0
   -0.3610   -8.3005    3.6414 O   0  0  0  0  0  0  0  0  0  0  0  0
    1.8009   -7.1765    3.2300 C   0  0  1  0  0  0  0  0  0  0  0  0
    1.2120   -5.9939    2.5649 O   0  0  0  0  0  0  0  0  0  0  0  0
    1.6293   -4.6261    2.8970 C   0  0  2  0  0  0  0  0  0  0  0  0
    2.2704   -3.9194    1.6900 C   0  0  0  0  0  0  0  0  0  0  0  0
    3.7962   -3.7849    1.5616 C   0  0  2  0  0  0  0  0  0  0  0  0
    4.2047   -2.6277    0.5554 C   0  0  0  0  0  0  0  0  0  0  0  0
    3.6144   -2.8058   -0.8713 C   0  0  0  0  0  0  0  0  0  0  0  0
    3.6839   -1.2527    1.0592 C   0  0  0  0  0  0  0  0  0  0  0  0
    5.7492   -2.5235    0.4399 C   0  0  1  0  0  0  0  0  0  0  0  0
    6.2942   -2.0662    1.6535 O   0  0  0  0  0  0  0  0  0  0  0  0
    6.3883   -3.8620    0.0422 C   0  0  1  0  0  0  0  0  0  0  0  0
    7.7913   -3.7239   -0.0532 O   0  0  0  0  0  0  0  0  0  0  0  0
    6.0367   -4.9917    1.0188 C   0  0  0  0  0  0  0  0  0  0  0  0
    4.5152   -5.1672    1.3340 C   0  0  2  0  0  0  0  0  0  0  0  0
    4.0348   -5.7623    0.1467 O   0  0  0  0  0  0  0  0  0  0  0  0
    4.3572   -6.2144    2.5257 C   0  0  1  0  0  0  0  0  0  0  0  0
    4.5755   -5.6151    4.0156 C   0  0  1  0  0  0  0  0  0  0  0  0
    5.4858   -4.5414    4.0849 O   0  0  0  0  0  0  0  0  0  0  0  0
    3.3217   -5.2856    4.8867 C   0  0  1  0  0  0  0  0  0  0  0  0
    3.3227   -5.8662    6.1898 O   0  0  0  0  0  0  0  0  0  0  0  0
    2.6219   -7.2383    5.9477 O   0  0  0  0  0  0  0  0  0  0  0  0
    1.7953   -6.9196    4.8502 C   0  0  2  0  0  0  0  0  0  0  0  0
    0.6995   -5.9758    5.3720 C   0  0  0  0  0  0  0  0  0  0  0  0
    0.9176   -4.6608    5.2101 C   0  0  0  0  0  0  0  0  0  0  0  0
    2.1505   -4.3274    4.3870 C   0  0  2  0  0  0  0  0  0  0  0  0
    2.7441   -6.2326    4.2496 O   0  0  0  0  0  0  0  0  0  0  0  0
    3.2038   -7.3849    2.3730 C   0  0  1  0  0  0  0  0  0  0  0  0
    4.6878  -10.2380    3.8711 H   0  0  0  0  0  0  0  0  0  0  0  0
    3.6131   -9.0804    4.6274 H   0  0  0  0  0  0  0  0  0  0  0  0
    5.2098   -8.5773    4.0936 H   0  0  0  0  0  0  0  0  0  0  0  0
    4.5860   -8.7013    0.4112 H   0  0  0  0  0  0  0  0  0  0  0  0
    5.0831  -10.1501    1.2667 H   0  0  0  0  0  0  0  0  0  0  0  0
    5.8415   -8.6324    1.6521 H   0  0  0  0  0  0  0  0  0  0  0  0
    2.3527   -9.7142    1.0586 H   0  0  0  0  0  0  0  0  0  0  0  0
    3.0229  -10.8801    2.1612 H   0  0  0  0  0  0  0  0  0  0  0  0
    0.6793  -10.4645    2.6535 H   0  0  0  0  0  0  0  0  0  0  0  0
    1.6320   -9.9500    4.0150 H   0  0  0  0  0  0  0  0  0  0  0  0
    0.5133   -8.1882    1.7961 H   0  0  0  0  0  0  0  0  0  0  0  0
   -0.8051   -9.1355    3.5617 H   0  0  0  0  0  0  0  0  0  0  0  0
    0.6462   -4.1533    2.8942 H   0  0  0  0  0  0  0  0  0  0  0  0
    1.8835   -4.3734    0.7768 H   0  0  0  0  0  0  0  0  0  0  0  0
    1.8422   -2.9181    1.7208 H   0  0  0  0  0  0  0  0  0  0  0  0
    4.1004   -3.3849    2.5203 H   0  0  0  0  0  0  0  0  0  0  0  0
    3.9015   -1.9656   -1.5075 H   0  0  0  0  0  0  0  0  0  0  0  0
    2.5235   -2.8306   -0.8684 H   0  0  0  0  0  0  0  0  0  0  0  0
    3.9555   -3.7031   -1.3834 H   0  0  0  0  0  0  0  0  0  0  0  0
    4.1894   -0.4240    0.5583 H   0  0  0  0  0  0  0  0  0  0  0  0
    3.8462   -1.1264    2.1307 H   0  0  0  0  0  0  0  0  0  0  0  0
    2.6175   -1.1121    0.8708 H   0  0  0  0  0  0  0  0  0  0  0  0
    6.0058   -1.7756   -0.3160 H   0  0  0  0  0  0  0  0  0  0  0  0
    6.1167   -2.7016    2.3334 H   0  0  0  0  0  0  0  0  0  0  0  0
    6.0539   -4.1387   -0.9580 H   0  0  0  0  0  0  0  0  0  0  0  0
    8.1212   -3.4703    0.7945 H   0  0  0  0  0  0  0  0  0  0  0  0
    6.4246   -5.9234    0.6042 H   0  0  0  0  0  0  0  0  0  0  0  0
    6.6040   -4.8356    1.9337 H   0  0  0  0  0  0  0  0  0  0  0  0
    4.0604   -5.1416   -0.5646 H   0  0  0  0  0  0  0  0  0  0  0  0
    5.2758   -6.7761    2.4218 H   0  0  0  0  0  0  0  0  0  0  0  0
    5.0904   -6.4041    4.5611 H   0  0  0  0  0  0  0  0  0  0  0  0
    5.0553   -3.7755    3.7416 H   0  0  0  0  0  0  0  0  0  0  0  0
   -0.1600   -6.3861    5.8905 H   0  0  0  0  0  0  0  0  0  0  0  0
    0.2561   -3.8771    5.5367 H   0  0  0  0  0  0  0  0  0  0  0  0
    2.4148   -3.2760    4.5343 H   0  0  0  0  0  0  0  0  0  0  0  0
    2.8395   -7.3485    1.3543 H   0  0  0  0  0  0  0  0  0  0  0  0
  1  2  1  0
  1 35  1  0
  1 36  1  0
  1 37  1  0
  2 34  1  0
  2  3  1  0
  2  4  1  0
  3 38  1  0
  3 39  1  0
  3 40  1  0
  4  5  1  0
  4 41  1  0
  4 42  1  0
  5  6  1  0
  5 43  1  0
  5 44  1  0
  6  7  1  0
  6  8  1  0
  6 45  1  6
  7 46  1  0
  8 29  1  0
  8 34  1  0
  8  9  1  6
  9 10  1  0
 10 32  1  0
 10 11  1  0
 10 47  1  1
 11 12  1  0
 11 48  1  0
 11 49  1  0
 12 21  1  0
 12 13  1  0
 12 50  1  1
 13 14  1  0
 13 15  1  0
 13 16  1  0
 14 51  1  0
 14 52  1  0
 14 53  1  0
 15 54  1  0
 15 55  1  0
 15 56  1  0
 16 17  1  0
 16 18  1  0
 16 57  1  6
 17 58  1  0
 18 19  1  0
 18 20  1  0
 18 59  1  6
 19 60  1  0
 20 21  1  0
 20 61  1  0
 20 62  1  0
 21 22  1  6
 21 23  1  0
 22 63  1  0
 23 24  1  0
 23 34  1  0
 23 64  1  6
 24 25  1  0
 24 26  1  0
 24 65  1  1
 25 66  1  0
 26 32  1  0
 26 33  1  0
 26 27  1  1
 27 28  1  0
 29 28  1  6
 29 30  1  0
 29 33  1  0
 30 31  2  0
 30 67  1  0
 31 32  1  0
 31 68  1  0
 32 69  1  6
 34 70  1  6
M  END
>  <i_m_ct_stereo_status>  (11) 
1

>  <s_m_source_file>  (11) 
/var/tmp/pbs.5076255.sched01/tmpkni74bsw/0nq93mkxh.sdf

>  <i_m_source_file_index>  (11) 
4

>  <i_lp_mmshare_version>  (11) 
48012

>  <i_f3d_flags>  (11) 
0

>  <s_epik_input>  (11) 
W09IXVtDQEBIXTFbQ0gyXVtDSDJdQyhbQ0gzXSkoW0NIM10pW0NAQEhdMltDQEhdKFtDQEhdM1tPSF0pW0NAXShbT0hdKShbQ0gyXVtDQEhdKFtPSF0pW0NASF0oW09IXSlDNChbQ0gzXSlbQ0gzXSlbQ0BASF00W0NIMl1bQ0BASF0oTzUpW0NAQEhdKFtDSF09W0NIXTYpW0NAXTMoTzcpT09bQ0BAXTY3W0NAXTEyNQ==

>  <s_epik_cmdline>  (11) 
J2VwaWtfcHl0aG9uJywgJy1waHQnLCAnMi4wJywgJy1waCcsICc3LjAnLCAnLXRuJywgJzgnLCAnLW1hJywgJzIwMCcsICctaW1hZScsICc8aW5maWxlLm1hZT4nLCAnLW9tYWUnLCAnPG91dGZpbGUubWFlPic=

>  <r_lp_tautomer_probability>  (11) 
1

>  <r_epik_Ionization_Penalty>  (11) 
1.79354e-06

>  <r_epik_Ionization_Penalty_Charging>  (11) 
0

>  <r_epik_Ionization_Penalty_Neutral>  (11) 
1.79354e-06

>  <r_epik_State_Penalty>  (11) 
-0

>  <r_epik_Charging_Adjusted_Penalty>  (11) 
0

>  <i_epik_Tot_Q>  (11) 
0

>  <i_epik_Tot_abs_Q>  (11) 
0

>  <s_lp_Force_Field>  (11) 
OPLS3e

>  <r_lp_Energy>  (11) 
218.347

>  <b_lp_Chiralities_Consistent>  (11) 
1

>  <s_lp_Variant>  (11) 
3:0-1

>  <s_i_glide_gridfile>  (11) 
pfpi4k_grid

>  <i_i_glide_lignum>  (11) 
4

>  <i_i_glide_rotatable_bonds>  (11) 
5

>  <r_i_docking_score>  (11) 
-2.51709

>  <r_i_glide_ligand_efficiency>  (11) 
-0.074032

>  <r_i_glide_ligand_efficiency_sa>  (11) 
-0.239835

>  <r_i_glide_ligand_efficiency_ln>  (11) 
-0.556095

>  <r_i_glide_gscore>  (11) 
-2.51709

>  <r_i_glide_lipo>  (11) 
-0.326236

>  <r_i_glide_hbond>  (11) 
0

>  <r_i_glide_metal>  (11) 
-0

>  <r_i_glide_rewards>  (11) 
-0.132628

>  <r_i_glide_evdw>  (11) 
-28.7578

>  <r_i_glide_ecoul>  (11) 
-4.12168

>  <r_i_glide_erotb>  (11) 
0

>  <r_i_glide_esite>  (11) 
-0.00208025

>  <r_i_glide_emodel>  (11) 
-37.4268

>  <r_i_glide_energy>  (11) 
-32.8795

>  <r_i_glide_einternal>  (11) 
0.862964

>  <r_i_glide_intrahb_reward>  (11) 
-0

>  <i_i_glide_confnum>  (11) 
2

>  <i_i_glide_posenum>  (11) 
2

>  <r_i_glide_eff_state_penalty>  (11) 
0

>  <ligand_id>  (11) 
3

>  <original_smiles>  (11) 
CC1(C)CCC(O)C23OC4CC5C(C)(C)C(O)C(O)CC5(O)C(C(O)C56OOC2(C=CC45)O6)C13

>  <smiles>  (11) 
[H]OC1([H])C([H])([H])C2(O[H])C3([H])C([H])(O[H])C45OOC6(O4)C([H])=C([H])C5([H])C([H])(OC64C([H])(O[H])C([H])([H])C([H])([H])C(C([H])([H])[H])(C([H])([H])[H])C34[H])C([H])([H])C2([H])C(C([H])([H])[H])(C([H])([H])[H])C1([H])O[H]

$$$$
4:0:0
     RDKit          3D

 59 62  0  0  1  0  0  0  0  0999 V2000
   -2.2420    2.9358    3.5122 C   0  0  0  0  0  0  0  0  0  0  0  0
   -1.0365    2.8607    4.4765 C   0  0  2  0  0  0  0  0  0  0  0  0
    0.0026    3.9280    4.0773 C   0  0  0  0  0  0  0  0  0  0  0  0
    1.3206    3.7922    4.8041 C   0  0  0  0  0  0  0  0  0  0  0  0
    1.6853    2.7255    5.5440 C   0  0  0  0  0  0  0  0  0  0  0  0
    0.7792    1.5849    5.6530 C   0  0  0  0  0  0  0  0  0  0  0  0
    1.0294    0.6760    6.6171 C   0  0  0  0  0  0  0  0  0  0  0  0
    2.1840    0.7185    7.5975 C   0  0  0  0  0  0  0  0  0  0  0  0
    2.9316    2.0789    7.6819 C   0  0  2  0  0  0  0  0  0  0  0  0
    2.9991    2.7526    6.3079 C   0  0  1  0  0  0  0  0  0  0  0  0
    4.1880    2.0626    5.6330 C   0  0  0  0  0  0  0  0  0  0  0  0
    5.2189    1.8816    6.7698 C   0  0  2  0  0  0  0  0  0  0  0  0
    6.2346    0.6979    6.6381 C   0  0  0  0  0  0  0  0  0  0  0  0
    5.5831   -0.6863    6.4094 C   0  0  0  0  0  0  0  0  0  0  0  0
    7.2026    0.9418    5.4630 C   0  0  0  0  0  0  0  0  0  0  0  0
    7.0619    0.6887    7.9410 C   0  0  0  0  0  0  0  0  0  0  0  0
    6.2220    0.3633    9.1875 C   0  0  0  0  0  0  0  0  0  0  0  0
    4.7648    0.8807    9.1596 C   0  0  0  0  0  0  0  0  0  0  0  0
    4.4348    2.0031    8.1217 C   0  0  2  0  0  0  0  0  0  0  0  0
    4.7880    3.3502    8.8103 C   0  0  0  0  0  0  0  0  0  0  0  0
   -0.3923    1.4479    4.6530 C   0  0  0  0  0  0  0  0  0  0  0  0
   -1.4701    0.4491    5.1503 C   0  0  0  0  0  0  0  0  0  0  0  0
    0.1835    0.9176    3.3191 C   0  0  0  0  0  0  0  0  0  0  0  0
   -1.9912    2.6057    2.5047 H   0  0  0  0  0  0  0  0  0  0  0  0
   -2.6079    3.9583    3.4246 H   0  0  0  0  0  0  0  0  0  0  0  0
   -3.0841    2.3395    3.8552 H   0  0  0  0  0  0  0  0  0  0  0  0
   -1.4111    3.1535    5.4581 H   0  0  0  0  0  0  0  0  0  0  0  0
    0.2099    3.8881    3.0076 H   0  0  0  0  0  0  0  0  0  0  0  0
   -0.3932    4.9199    4.2910 H   0  0  0  0  0  0  0  0  0  0  0  0
    1.9953    4.6314    4.7083 H   0  0  0  0  0  0  0  0  0  0  0  0
    0.4205   -0.2065    6.7249 H   0  0  0  0  0  0  0  0  0  0  0  0
    1.8051    0.4543    8.5865 H   0  0  0  0  0  0  0  0  0  0  0  0
    2.8458   -0.0788    7.2696 H   0  0  0  0  0  0  0  0  0  0  0  0
    2.3620    2.7165    8.3586 H   0  0  0  0  0  0  0  0  0  0  0  0
    3.2621    3.7986    6.4633 H   0  0  0  0  0  0  0  0  0  0  0  0
    3.8828    1.1118    5.1968 H   0  0  0  0  0  0  0  0  0  0  0  0
    4.5966    2.6760    4.8313 H   0  0  0  0  0  0  0  0  0  0  0  0
    5.8378    2.7767    6.7129 H   0  0  0  0  0  0  0  0  0  0  0  0
    6.3428   -1.4692    6.4147 H   0  0  0  0  0  0  0  0  0  0  0  0
    5.0655   -0.7451    5.4504 H   0  0  0  0  0  0  0  0  0  0  0  0
    4.8650   -0.9510    7.1828 H   0  0  0  0  0  0  0  0  0  0  0  0
    7.9507    0.1520    5.4153 H   0  0  0  0  0  0  0  0  0  0  0  0
    7.7323    1.8902    5.5630 H   0  0  0  0  0  0  0  0  0  0  0  0
    6.6774    0.9463    4.5090 H   0  0  0  0  0  0  0  0  0  0  0  0
    7.8949   -0.0112    7.8671 H   0  0  0  0  0  0  0  0  0  0  0  0
    7.5197    1.6696    8.0771 H   0  0  0  0  0  0  0  0  0  0  0  0
    6.1762   -0.7220    9.2879 H   0  0  0  0  0  0  0  0  0  0  0  0
    6.7384    0.7155   10.0808 H   0  0  0  0  0  0  0  0  0  0  0  0
    4.1269    0.0097    9.0311 H   0  0  0  0  0  0  0  0  0  0  0  0
    4.5072    1.2260   10.1617 H   0  0  0  0  0  0  0  0  0  0  0  0
    5.8260    3.3883    9.1326 H   0  0  0  0  0  0  0  0  0  0  0  0
    4.1699    3.5167    9.6928 H   0  0  0  0  0  0  0  0  0  0  0  0
    4.6279    4.2077    8.1603 H   0  0  0  0  0  0  0  0  0  0  0  0
   -2.3085    0.3794    4.4594 H   0  0  0  0  0  0  0  0  0  0  0  0
   -1.8713    0.7618    6.1162 H   0  0  0  0  0  0  0  0  0  0  0  0
   -1.0790   -0.5645    5.2388 H   0  0  0  0  0  0  0  0  0  0  0  0
   -0.5847    0.7889    2.5551 H   0  0  0  0  0  0  0  0  0  0  0  0
    0.6627   -0.0516    3.4651 H   0  0  0  0  0  0  0  0  0  0  0  0
    0.9445    1.5865    2.9102 H   0  0  0  0  0  0  0  0  0  0  0  0
  1  2  1  0
  1 24  1  0
  1 25  1  0
  1 26  1  0
  2 21  1  0
  2  3  1  0
  2 27  1  1
  3  4  1  0
  3 28  1  0
  3 29  1  0
  4  5  2  0
  4 30  1  0
  5 10  1  0
  5  6  1  0
  6  7  2  0
  6 21  1  0
  7  8  1  0
  7 31  1  0
  8  9  1  0
  8 32  1  0
  8 33  1  0
  9 19  1  0
  9 10  1  0
  9 34  1  1
 10 11  1  0
 10 35  1  1
 11 12  1  0
 11 36  1  0
 11 37  1  0
 12 19  1  0
 12 13  1  0
 12 38  1  1
 13 14  1  0
 13 15  1  0
 13 16  1  0
 14 39  1  0
 14 40  1  0
 14 41  1  0
 15 42  1  0
 15 43  1  0
 15 44  1  0
 16 17  1  0
 16 45  1  0
 16 46  1  0
 17 18  1  0
 17 47  1  0
 17 48  1  0
 18 19  1  0
 18 49  1  0
 18 50  1  0
 19 20  1  1
 20 51  1  0
 20 52  1  0
 20 53  1  0
 21 22  1  0
 21 23  1  0
 22 54  1  0
 22 55  1  0
 22 56  1  0
 23 57  1  0
 23 58  1  0
 23 59  1  0
M  END
>  <i_m_ct_stereo_status>  (12) 
1

>  <s_m_source_file>  (12) 
/var/tmp/pbs.5076255.sched01/tmpkni74bsw/0nq93mkxh.sdf

>  <i_m_source_file_index>  (12) 
5

>  <i_lp_mmshare_version>  (12) 
48012

>  <i_f3d_flags>  (12) 
0

>  <s_epik_input>  (12) 
W0NIXT0xW0NIMl1bQ0BASF0oW0NIM10pQyhbQ0gzXSkoW0NIM10pQyg9W0NIXVtDSDJdMilDMVtDQEBIXShbQ0BASF0yW0NAXTM0W0NIM10pW0NIMl1bQ0BASF0zQyhbQ0gzXSkoW0NIM10pW0NIMl1bQ0gyXVtDSDJdNA==

>  <s_epik_cmdline>  (12) 
J2VwaWtfcHl0aG9uJywgJy1waHQnLCAnMi4wJywgJy1waCcsICc3LjAnLCAnLXRuJywgJzgnLCAnLW1hJywgJzIwMCcsICctaW1hZScsICc8aW5maWxlLm1hZT4nLCAnLW9tYWUnLCAnPG91dGZpbGUubWFlPic=

>  <r_lp_tautomer_probability>  (12) 
1

>  <r_epik_Ionization_Penalty>  (12) 
0

>  <r_epik_Ionization_Penalty_Charging>  (12) 
0

>  <r_epik_Ionization_Penalty_Neutral>  (12) 
0

>  <r_epik_State_Penalty>  (12) 
-0

>  <r_epik_Charging_Adjusted_Penalty>  (12) 
0

>  <i_epik_Tot_Q>  (12) 
0

>  <i_epik_Tot_abs_Q>  (12) 
0

>  <s_lp_Force_Field>  (12) 
OPLS3e

>  <r_lp_Energy>  (12) 
50.2487

>  <b_lp_Chiralities_Consistent>  (12) 
1

>  <s_lp_Variant>  (12) 
4:0-1

>  <s_i_glide_gridfile>  (12) 
pfpi4k_grid

>  <i_i_glide_lignum>  (12) 
5

>  <i_i_glide_rotatable_bonds>  (12) 
0

>  <r_i_docking_score>  (12) 
-2.426

>  <r_i_glide_ligand_efficiency>  (12) 
-0.105478

>  <r_i_glide_ligand_efficiency_sa>  (12) 
-0.299967

>  <r_i_glide_ligand_efficiency_ln>  (12) 
-0.58663

>  <r_i_glide_gscore>  (12) 
-2.426

>  <r_i_glide_lipo>  (12) 
-0.292837

>  <r_i_glide_hbond>  (12) 
0

>  <r_i_glide_metal>  (12) 
-0

>  <r_i_glide_rewards>  (12) 
-1.27819

>  <r_i_glide_evdw>  (12) 
-17.8067

>  <r_i_glide_ecoul>  (12) 
0.235752

>  <r_i_glide_erotb>  (12) 
0

>  <r_i_glide_esite>  (12) 
0

>  <r_i_glide_emodel>  (12) 
-19.8127

>  <r_i_glide_energy>  (12) 
-17.571

>  <r_i_glide_einternal>  (12) 
0

>  <r_i_glide_intrahb_reward>  (12) 
-0

>  <i_i_glide_confnum>  (12) 
2

>  <i_i_glide_posenum>  (12) 
5

>  <r_i_glide_eff_state_penalty>  (12) 
0

>  <ligand_id>  (12) 
4

>  <original_smiles>  (12) 
CC1CC=C2C(=CCC3C2CC2C(C)(C)CCCC32C)C1(C)C

>  <smiles>  (12) 
[H]C1=C2C(=C([H])C([H])([H])C3([H])C2([H])C([H])([H])C2([H])C(C([H])([H])[H])(C([H])([H])[H])C([H])([H])C([H])([H])C([H])([H])C32C([H])([H])[H])C(C([H])([H])[H])(C([H])([H])[H])C([H])(C([H])([H])[H])C1([H])[H]

$$$$
4:0:1
     RDKit          3D

 59 62  0  0  1  0  0  0  0  0999 V2000
   -2.5802    2.9481    4.3964 C   0  0  0  0  0  0  0  0  0  0  0  0
   -1.2165    3.4746    4.8914 C   0  0  2  0  0  0  0  0  0  0  0  0
   -0.2277    3.5291    3.7085 C   0  0  0  0  0  0  0  0  0  0  0  0
    1.1977    3.8189    4.1213 C   0  0  0  0  0  0  0  0  0  0  0  0
    1.6509    3.7858    5.3915 C   0  0  0  0  0  0  0  0  0  0  0  0
    0.7362    3.4251    6.4717 C   0  0  0  0  0  0  0  0  0  0  0  0
    1.1251    3.6847    7.7370 C   0  0  0  0  0  0  0  0  0  0  0  0
    2.4487    4.3022    8.1477 C   0  0  0  0  0  0  0  0  0  0  0  0
    3.2554    4.9699    6.9992 C   0  0  2  0  0  0  0  0  0  0  0  0
    3.0897    4.1901    5.6893 C   0  0  1  0  0  0  0  0  0  0  0  0
    4.0954    3.0448    5.8271 C   0  0  0  0  0  0  0  0  0  0  0  0
    5.3156    3.6947    6.5191 C   0  0  2  0  0  0  0  0  0  0  0  0
    6.2380    2.7665    7.3770 C   0  0  0  0  0  0  0  0  0  0  0  0
    5.4986    1.9473    8.4624 C   0  0  0  0  0  0  0  0  0  0  0  0
    6.9759    1.7591    6.4694 C   0  0  0  0  0  0  0  0  0  0  0  0
    7.2956    3.6838    8.0293 C   0  0  0  0  0  0  0  0  0  0  0  0
    6.6927    4.6831    9.0286 C   0  0  0  0  0  0  0  0  0  0  0  0
    5.2799    5.2041    8.6770 C   0  0  0  0  0  0  0  0  0  0  0  0
    4.8096    5.0145    7.1978 C   0  0  2  0  0  0  0  0  0  0  0  0
    5.3442    6.2426    6.4100 C   0  0  0  0  0  0  0  0  0  0  0  0
   -0.6102    2.7425    6.1298 C   0  0  0  0  0  0  0  0  0  0  0  0
   -1.6198    2.8044    7.3075 C   0  0  0  0  0  0  0  0  0  0  0  0
   -0.3197    1.2556    5.8238 C   0  0  0  0  0  0  0  0  0  0  0  0
   -2.5367    1.8949    4.1123 H   0  0  0  0  0  0  0  0  0  0  0  0
   -2.9072    3.4944    3.5135 H   0  0  0  0  0  0  0  0  0  0  0  0
   -3.3657    3.0654    5.1392 H   0  0  0  0  0  0  0  0  0  0  0  0
   -1.3774    4.5098    5.2002 H   0  0  0  0  0  0  0  0  0  0  0  0
   -0.2288    2.5940    3.1462 H   0  0  0  0  0  0  0  0  0  0  0  0
   -0.5362    4.3156    3.0187 H   0  0  0  0  0  0  0  0  0  0  0  0
    1.8695    4.0786    3.3165 H   0  0  0  0  0  0  0  0  0  0  0  0
    0.5103    3.4119    8.5814 H   0  0  0  0  0  0  0  0  0  0  0  0
    2.2526    5.0384    8.9286 H   0  0  0  0  0  0  0  0  0  0  0  0
    3.0013    3.4795    8.5941 H   0  0  0  0  0  0  0  0  0  0  0  0
    2.8516    5.9733    6.8642 H   0  0  0  0  0  0  0  0  0  0  0  0
    3.4192    4.8341    4.8731 H   0  0  0  0  0  0  0  0  0  0  0  0
    3.6727    2.2331    6.4156 H   0  0  0  0  0  0  0  0  0  0  0  0
    4.3702    2.6361    4.8555 H   0  0  0  0  0  0  0  0  0  0  0  0
    5.9503    4.0226    5.6948 H   0  0  0  0  0  0  0  0  0  0  0  0
    6.2126    1.3863    9.0702 H   0  0  0  0  0  0  0  0  0  0  0  0
    4.8069    1.2234    8.0288 H   0  0  0  0  0  0  0  0  0  0  0  0
    4.9286    2.5689    9.1502 H   0  0  0  0  0  0  0  0  0  0  0  0
    7.6620    1.1434    7.0546 H   0  0  0  0  0  0  0  0  0  0  0  0
    7.5656    2.2587    5.7003 H   0  0  0  0  0  0  0  0  0  0  0  0
    6.2757    1.0851    5.9727 H   0  0  0  0  0  0  0  0  0  0  0  0
    8.0710    3.0937    8.5207 H   0  0  0  0  0  0  0  0  0  0  0  0
    7.8128    4.2376    7.2442 H   0  0  0  0  0  0  0  0  0  0  0  0
    6.6282    4.1923    9.9995 H   0  0  0  0  0  0  0  0  0  0  0  0
    7.3825    5.5147    9.1694 H   0  0  0  0  0  0  0  0  0  0  0  0
    4.5969    4.7456    9.3832 H   0  0  0  0  0  0  0  0  0  0  0  0
    5.2316    6.2612    8.9401 H   0  0  0  0  0  0  0  0  0  0  0  0
    6.4254    6.3361    6.4779 H   0  0  0  0  0  0  0  0  0  0  0  0
    4.9150    7.1719    6.7824 H   0  0  0  0  0  0  0  0  0  0  0  0
    5.0997    6.1979    5.3519 H   0  0  0  0  0  0  0  0  0  0  0  0
   -2.5736    2.3465    7.0500 H   0  0  0  0  0  0  0  0  0  0  0  0
   -1.8157    3.8386    7.5968 H   0  0  0  0  0  0  0  0  0  0  0  0
   -1.2609    2.2628    8.1838 H   0  0  0  0  0  0  0  0  0  0  0  0
   -1.2240    0.7011    5.5790 H   0  0  0  0  0  0  0  0  0  0  0  0
    0.1409    0.7705    6.6856 H   0  0  0  0  0  0  0  0  0  0  0  0
    0.3743    1.1444    4.9891 H   0  0  0  0  0  0  0  0  0  0  0  0
  1  2  1  0
  1 24  1  0
  1 25  1  0
  1 26  1  0
  2 21  1  0
  2  3  1  0
  2 27  1  1
  3  4  1  0
  3 28  1  0
  3 29  1  0
  4  5  2  0
  4 30  1  0
  5 10  1  0
  5  6  1  0
  6  7  2  0
  6 21  1  0
  7  8  1  0
  7 31  1  0
  8  9  1  0
  8 32  1  0
  8 33  1  0
  9 19  1  0
  9 10  1  0
  9 34  1  6
 10 11  1  0
 10 35  1  6
 11 12  1  0
 11 36  1  0
 11 37  1  0
 12 19  1  0
 12 13  1  0
 12 38  1  6
 13 14  1  0
 13 15  1  0
 13 16  1  0
 14 39  1  0
 14 40  1  0
 14 41  1  0
 15 42  1  0
 15 43  1  0
 15 44  1  0
 16 17  1  0
 16 45  1  0
 16 46  1  0
 17 18  1  0
 17 47  1  0
 17 48  1  0
 18 19  1  0
 18 49  1  0
 18 50  1  0
 19 20  1  6
 20 51  1  0
 20 52  1  0
 20 53  1  0
 21 22  1  0
 21 23  1  0
 22 54  1  0
 22 55  1  0
 22 56  1  0
 23 57  1  0
 23 58  1  0
 23 59  1  0
M  END
>  <i_m_ct_stereo_status>  (13) 
1

>  <s_m_source_file>  (13) 
/var/tmp/pbs.5076255.sched01/tmpkni74bsw/0nq93mkxh.sdf

>  <i_m_source_file_index>  (13) 
5

>  <i_lp_mmshare_version>  (13) 
48012

>  <i_f3d_flags>  (13) 
0

>  <s_epik_input>  (13) 
W0NIXT0xW0NIMl1bQ0BASF0oW0NIM10pQyhbQ0gzXSkoW0NIM10pQyg9W0NIXVtDSDJdMilDMVtDQEBIXShbQ0BASF0yW0NAXTM0W0NIM10pW0NIMl1bQ0BASF0zQyhbQ0gzXSkoW0NIM10pW0NIMl1bQ0gyXVtDSDJdNA==

>  <s_epik_cmdline>  (13) 
J2VwaWtfcHl0aG9uJywgJy1waHQnLCAnMi4wJywgJy1waCcsICc3LjAnLCAnLXRuJywgJzgnLCAnLW1hJywgJzIwMCcsICctaW1hZScsICc8aW5maWxlLm1hZT4nLCAnLW9tYWUnLCAnPG91dGZpbGUubWFlPic=

>  <r_lp_tautomer_probability>  (13) 
1

>  <r_epik_Ionization_Penalty>  (13) 
0

>  <r_epik_Ionization_Penalty_Charging>  (13) 
0

>  <r_epik_Ionization_Penalty_Neutral>  (13) 
0

>  <r_epik_State_Penalty>  (13) 
-0

>  <r_epik_Charging_Adjusted_Penalty>  (13) 
0

>  <i_epik_Tot_Q>  (13) 
0

>  <i_epik_Tot_abs_Q>  (13) 
0

>  <s_lp_Force_Field>  (13) 
OPLS3e

>  <r_lp_Energy>  (13) 
50.2487

>  <b_lp_Chiralities_Consistent>  (13) 
1

>  <s_lp_Variant>  (13) 
4:0-1

>  <s_i_glide_gridfile>  (13) 
pfpi4k_grid

>  <i_i_glide_lignum>  (13) 
5

>  <i_i_glide_rotatable_bonds>  (13) 
0

>  <r_i_docking_score>  (13) 
-2.25056

>  <r_i_glide_ligand_efficiency>  (13) 
-0.0978503

>  <r_i_glide_ligand_efficiency_sa>  (13) 
-0.278273

>  <r_i_glide_ligand_efficiency_ln>  (13) 
-0.544205

>  <r_i_glide_gscore>  (13) 
-2.25056

>  <r_i_glide_lipo>  (13) 
-0.137037

>  <r_i_glide_hbond>  (13) 
0

>  <r_i_glide_metal>  (13) 
-0

>  <r_i_glide_rewards>  (13) 
-1.27819

>  <r_i_glide_evdw>  (13) 
-16.21

>  <r_i_glide_ecoul>  (13) 
-0.165542

>  <r_i_glide_erotb>  (13) 
0

>  <r_i_glide_esite>  (13) 
0

>  <r_i_glide_emodel>  (13) 
-18.4462

>  <r_i_glide_energy>  (13) 
-16.3755

>  <r_i_glide_einternal>  (13) 
0

>  <r_i_glide_intrahb_reward>  (13) 
-0

>  <i_i_glide_confnum>  (13) 
1

>  <i_i_glide_posenum>  (13) 
1

>  <r_i_glide_eff_state_penalty>  (13) 
0

>  <ligand_id>  (13) 
4

>  <original_smiles>  (13) 
CC1CC=C2C(=CCC3C2CC2C(C)(C)CCCC32C)C1(C)C

>  <smiles>  (13) 
[H]C1=C2C(=C([H])C([H])([H])C3([H])C2([H])C([H])([H])C2([H])C(C([H])([H])[H])(C([H])([H])[H])C([H])([H])C([H])([H])C([H])([H])C32C([H])([H])[H])C(C([H])([H])[H])(C([H])([H])[H])C([H])(C([H])([H])[H])C1([H])[H]

$$$$
5:0:0
     RDKit          3D

 67 73  0  0  1  0  0  0  0  0999 V2000
    8.0323    0.9556    5.6406 C   0  0  0  0  0  0  0  0  0  0  0  0
    6.5365    0.9794    5.7875 C   0  0  0  0  0  0  0  0  0  0  0  0
    5.6992    0.3317    4.9548 C   0  0  0  0  0  0  0  0  0  0  0  0
    4.1692    0.2788    5.0101 C   0  0  2  0  0  0  0  0  0  0  0  0
    3.6323    1.1265    3.7245 C   0  0  0  0  0  0  0  0  0  0  0  0
    2.1617    1.6795    3.4268 C   0  0  1  0  0  0  0  0  0  0  0  0
    1.3094    0.7747    2.5970 C   0  0  0  0  0  0  0  0  0  0  0  0
    0.6988    1.2610    3.8881 C   0  0  2  0  0  0  0  0  0  0  0  0
   -0.6487    1.8825    3.6189 C   0  0  0  0  0  0  0  0  0  0  0  0
   -1.6340    0.8106    4.1379 C   0  0  0  0  0  0  0  0  0  0  0  0
   -0.8547   -0.2093    4.8473 N   0  0  0  0  0  0  0  0  0  0  0  0
   -1.5668   -0.8208    5.9386 C   0  0  0  0  0  0  0  0  0  0  0  0
    0.3234    0.5396    5.2168 C   0  0  1  0  0  0  0  0  0  0  0  0
    1.5679   -0.0187    5.9367 C   0  0  2  0  0  0  0  0  0  0  0  0
    1.8472   -0.3455    7.3818 C   0  0  0  0  0  0  0  0  0  0  0  0
    0.9654   -1.0165    8.2663 C   0  0  0  0  0  0  0  0  0  0  0  0
    0.2123   -1.5703    8.9589 N   0  0  0  0  0  0  0  0  0  0  0  0
    3.1449   -0.0319    7.5755 C   0  0  0  0  0  0  0  0  0  0  0  0
    3.6566    0.8498    6.4163 C   0  0  2  0  0  0  0  0  0  0  0  0
    2.3753    1.2368    6.0470 N   0  0  0  0  0  0  0  0  0  0  0  0
    1.8853    2.4165    6.8158 C   0  0  0  0  0  0  0  0  0  0  0  0
    2.2020   -1.3293    5.2648 C   0  0  1  0  0  0  0  0  0  0  0  0
    1.3642   -2.2620    3.9348 S   0  0  0  0  0  0  0  0  0  0  0  0
    2.8826   -2.3922    3.0314 C   0  0  0  0  0  0  0  0  0  0  0  0
    3.0731   -2.3975    1.7923 N   0  0  0  0  0  0  0  0  0  0  0  0
    4.3991   -2.0162    1.6078 C   0  0  0  0  0  0  0  0  0  0  0  0
    5.1412   -2.0499    0.4685 C   0  0  0  0  0  0  0  0  0  0  0  0
    7.0084   -1.4584    0.7043 Br  0  0  0  0  0  0  0  0  0  0  0  0
    4.7083   -2.5523   -0.8538 C   0  0  0  0  0  0  0  0  0  0  0  0
    3.3324   -3.1706   -1.0320 C   0  0  0  0  0  0  0  0  0  0  0  0
    5.4547   -2.5010   -1.8398 O   0  0  0  0  0  0  0  0  0  0  0  0
    4.9298   -1.6520    2.8252 O   0  0  0  0  0  0  0  0  0  0  0  0
    4.1079   -2.1642    3.8153 C   0  0  2  0  0  0  0  0  0  0  0  0
    4.6310   -3.3588    4.3621 O   0  0  0  0  0  0  0  0  0  0  0  0
    5.1415   -4.3445    3.4517 C   0  0  0  0  0  0  0  0  0  0  0  0
    3.7187   -1.2067    4.9962 C   0  0  1  0  0  0  0  0  0  0  0  0
    8.4803    0.5464    6.5467 H   0  0  0  0  0  0  0  0  0  0  0  0
    8.4157    1.9661    5.4899 H   0  0  0  0  0  0  0  0  0  0  0  0
    8.3000    0.3496    4.7775 H   0  0  0  0  0  0  0  0  0  0  0  0
    6.1992    1.5739    6.6165 H   0  0  0  0  0  0  0  0  0  0  0  0
    6.1633   -0.2182    4.1517 H   0  0  0  0  0  0  0  0  0  0  0  0
    4.2152    2.0408    3.7419 H   0  0  0  0  0  0  0  0  0  0  0  0
    3.9549    0.6232    2.8160 H   0  0  0  0  0  0  0  0  0  0  0  0
    2.2016    2.7082    3.0877 H   0  0  0  0  0  0  0  0  0  0  0  0
    0.9584    1.2011    1.6582 H   0  0  0  0  0  0  0  0  0  0  0  0
    1.6547   -0.2262    2.4739 H   0  0  0  0  0  0  0  0  0  0  0  0
   -0.7376    2.8069    4.1888 H   0  0  0  0  0  0  0  0  0  0  0  0
   -0.8017    2.1212    2.5666 H   0  0  0  0  0  0  0  0  0  0  0  0
   -2.3723    1.2837    4.7851 H   0  0  0  0  0  0  0  0  0  0  0  0
   -2.1468    0.3419    3.3091 H   0  0  0  0  0  0  0  0  0  0  0  0
   -0.9552   -1.5951    6.4010 H   0  0  0  0  0  0  0  0  0  0  0  0
   -2.4802   -1.2892    5.5789 H   0  0  0  0  0  0  0  0  0  0  0  0
   -1.8163   -0.0662    6.6801 H   0  0  0  0  0  0  0  0  0  0  0  0
   -0.0718    1.3024    5.8883 H   0  0  0  0  0  0  0  0  0  0  0  0
    3.7121   -0.2104    8.4787 H   0  0  0  0  0  0  0  0  0  0  0  0
    4.1918    1.7227    6.7898 H   0  0  0  0  0  0  0  0  0  0  0  0
    2.6496    3.2001    6.8218 H   0  0  0  0  0  0  0  0  0  0  0  0
    1.6495    2.1894    7.8571 H   0  0  0  0  0  0  0  0  0  0  0  0
    1.0235    2.8850    6.3474 H   0  0  0  0  0  0  0  0  0  0  0  0
    2.1570   -2.1378    6.0064 H   0  0  0  0  0  0  0  0  0  0  0  0
    2.5969   -2.4135   -0.7838 H   0  0  0  0  0  0  0  0  0  0  0  0
    3.2076   -4.0164   -0.3595 H   0  0  0  0  0  0  0  0  0  0  0  0
    3.1672   -3.5048   -2.0522 H   0  0  0  0  0  0  0  0  0  0  0  0
    5.4773   -5.2407    3.9807 H   0  0  0  0  0  0  0  0  0  0  0  0
    5.9922   -3.9463    2.9053 H   0  0  0  0  0  0  0  0  0  0  0  0
    4.4029   -4.6742    2.7214 H   0  0  0  0  0  0  0  0  0  0  0  0
    4.2447   -1.6476    5.8448 H   0  0  0  0  0  0  0  0  0  0  0  0
  1  2  1  0
  1 37  1  0
  1 38  1  0
  1 39  1  0
  2  3  2  3
  2 40  1  0
  3  4  1  0
  3 41  1  0
  4 19  1  0
  4 36  1  0
  4  5  1  6
  5  6  1  0
  5 42  1  0
  5 43  1  0
  6  8  1  0
  6  7  1  0
  6 44  1  6
  8  7  1  6
  7 45  1  0
  7 46  1  0
  8 13  1  0
  8  9  1  0
  9 10  1  0
  9 47  1  0
  9 48  1  0
 10 11  1  0
 10 49  1  0
 10 50  1  0
 11 12  1  0
 11 13  1  0
 12 51  1  0
 12 52  1  0
 12 53  1  0
 13 14  1  0
 13 54  1  1
 14 20  1  0
 14 15  1  1
 14 22  1  0
 15 16  1  0
 15 18  2  0
 16 17  3  0
 18 19  1  0
 18 55  1  0
 19 20  1  0
 19 56  1  1
 20 21  1  0
 21 57  1  0
 21 58  1  0
 21 59  1  0
 22 36  1  0
 22 23  1  0
 22 60  1  1
 23 24  1  0
 24 33  1  0
 24 25  2  0
 25 26  1  0
 26 27  2  3
 26 32  1  0
 27 28  1  0
 27 29  1  0
 29 30  1  0
 29 31  2  0
 30 61  1  0
 30 62  1  0
 30 63  1  0
 32 33  1  0
 33 34  1  1
 33 36  1  0
 34 35  1  0
 35 64  1  0
 35 65  1  0
 35 66  1  0
 36 67  1  1
M  END
>  <i_m_ct_stereo_status>  (14) 
1

>  <s_m_source_file>  (14) 
/var/tmp/pbs.5076255.sched01/tmpkni74bsw/0nq93mkxh.sdf

>  <i_m_source_file_index>  (14) 
6

>  <i_lp_mmshare_version>  (14) 
48012

>  <i_f3d_flags>  (14) 
0

>  <s_epik_input>  (14) 
W0NIM10vW0NIXT1bQ0hdL1tDQF0xKFtDSDJdW0NASF0oW0NAXTIzNClbQ0gyXTIpW0NAQEhdNVtDSF09QyhDI04pW0NAXShONVtDSDNdKShbQ0BASF00TihbQ0gzXSlbQ0gyXVtDSDJdMylbQ0BASF02W0NASF0xW0NAQF03KE9bQ0gzXSlDKFM2KT1OL0MoTzcpPUMoL0JyKUMoPU8pW0NIM10=

>  <s_epik_cmdline>  (14) 
J2VwaWtfcHl0aG9uJywgJy1waHQnLCAnMi4wJywgJy1waCcsICc3LjAnLCAnLXRuJywgJzgnLCAnLW1hJywgJzIwMCcsICctaW1hZScsICc8aW5maWxlLm1hZT4nLCAnLW9tYWUnLCAnPG91dGZpbGUubWFlPic=

>  <r_epik_Ionization_Penalty>  (14) 
0.166683

>  <r_epik_Ionization_Penalty_Charging>  (14) 
0

>  <r_epik_Ionization_Penalty_Neutral>  (14) 
0.166683

>  <r_epik_State_Penalty>  (14) 
0.156033

>  <r_epik_Charging_Adjusted_Penalty>  (14) 
0.156033

>  <i_epik_Tot_Q>  (14) 
0

>  <i_epik_Tot_abs_Q>  (14) 
0

>  <s_epik_Chemistry_Notes>  (14) 
This compound has an imine and may undergo hydrolysis.

>  <s_lp_Force_Field>  (14) 
OPLS3e

>  <r_lp_Energy>  (14) 
150.311

>  <b_lp_Chiralities_Consistent>  (14) 
1

>  <s_lp_Variant>  (14) 
5:0-1

>  <s_i_glide_gridfile>  (14) 
pfpi4k_grid

>  <i_i_glide_lignum>  (14) 
6

>  <i_i_glide_rotatable_bonds>  (14) 
4

>  <r_i_docking_score>  (14) 
-1.81836

>  <r_i_glide_ligand_efficiency>  (14) 
-0.0505099

>  <r_i_glide_ligand_efficiency_sa>  (14) 
-0.16678

>  <r_i_glide_ligand_efficiency_ln>  (14) 
-0.396716

>  <r_i_glide_gscore>  (14) 
-1.81836

>  <r_i_glide_lipo>  (14) 
-0.34608

>  <r_i_glide_hbond>  (14) 
-0.114433

>  <r_i_glide_metal>  (14) 
-0

>  <r_i_glide_rewards>  (14) 
-0.000119591

>  <r_i_glide_evdw>  (14) 
-23.6241

>  <r_i_glide_ecoul>  (14) 
-1.21537

>  <r_i_glide_erotb>  (14) 
0.0363478

>  <r_i_glide_esite>  (14) 
-0.0305629

>  <r_i_glide_emodel>  (14) 
-26.1022

>  <r_i_glide_energy>  (14) 
-24.8395

>  <r_i_glide_einternal>  (14) 
2.86882

>  <r_i_glide_intrahb_reward>  (14) 
-0

>  <i_i_glide_confnum>  (14) 
1

>  <i_i_glide_posenum>  (14) 
9

>  <r_i_glide_eff_state_penalty>  (14) 
0

>  <ligand_id>  (14) 
5

>  <original_smiles>  (14) 
CC=CC12CC3CC34CCN(C)C4C3(C(C#N)=CC1N3C)C1SC3=NC(=C(Br)C(C)=O)OC3(OC)C12

>  <smiles>  (14) 
[H]C(=C([H])C12C3([H])C([H])=C(C#N)C(N3C([H])([H])[H])(C3([H])SC4=NC(=C(Br)C(=O)C([H])([H])[H])OC4(OC([H])([H])[H])C31[H])C1([H])N(C([H])([H])[H])C([H])([H])C([H])([H])C13C([H])([H])C3([H])C2([H])[H])C([H])([H])[H]

$$$$
5:0:1
     RDKit          3D

 67 73  0  0  1  0  0  0  0  0999 V2000
    5.3248    3.6205    7.3511 C   0  0  0  0  0  0  0  0  0  0  0  0
    5.1429    2.3552    6.5428 C   0  0  0  0  0  0  0  0  0  0  0  0
    3.9455    1.8748    6.1670 C   0  0  0  0  0  0  0  0  0  0  0  0
    3.6616    0.6111    5.3560 C   0  0  2  0  0  0  0  0  0  0  0  0
    2.4797   -0.1938    6.1481 C   0  0  0  0  0  0  0  0  0  0  0  0
    1.9823   -1.7007    5.9346 C   0  0  1  0  0  0  0  0  0  0  0  0
    0.8295   -1.8426    4.9900 C   0  0  0  0  0  0  0  0  0  0  0  0
    2.0223   -2.7280    4.7195 C   0  0  2  0  0  0  0  0  0  0  0  0
    1.5901   -4.1759    4.6197 C   0  0  0  0  0  0  0  0  0  0  0  0
    1.6609   -4.4619    3.1001 C   0  0  0  0  0  0  0  0  0  0  0  0
    2.3166   -3.3095    2.4684 N   0  0  0  0  0  0  0  0  0  0  0  0
    3.0932   -3.6548    1.2922 C   0  0  0  0  0  0  0  0  0  0  0  0
    3.0719   -2.7577    3.5673 C   0  0  1  0  0  0  0  0  0  0  0  0
    3.9294   -1.4712    3.5372 C   0  0  2  0  0  0  0  0  0  0  0  0
    5.3053   -1.1772    2.9987 C   0  0  0  0  0  0  0  0  0  0  0  0
    5.8235   -1.6188    1.7479 C   0  0  0  0  0  0  0  0  0  0  0  0
    6.2623   -1.9530    0.7263 N   0  0  0  0  0  0  0  0  0  0  0  0
    5.8311   -0.2728    3.8535 C   0  0  0  0  0  0  0  0  0  0  0  0
    5.0087   -0.2319    5.1663 C   0  0  2  0  0  0  0  0  0  0  0  0
    4.4530   -1.4852    4.9471 N   0  0  0  0  0  0  0  0  0  0  0  0
    5.3054   -2.6003    5.4481 C   0  0  0  0  0  0  0  0  0  0  0  0
    3.1696   -0.1700    2.9786 C   0  0  1  0  0  0  0  0  0  0  0  0
    1.5378   -0.2388    2.1676 S   0  0  0  0  0  0  0  0  0  0  0  0
    0.9903    1.1815    3.0695 C   0  0  0  0  0  0  0  0  0  0  0  0
   -0.1543    1.4968    3.4601 N   0  0  0  0  0  0  0  0  0  0  0  0
    0.0485    2.4293    4.4802 C   0  0  0  0  0  0  0  0  0  0  0  0
   -0.8786    3.1221    5.1758 C   0  0  0  0  0  0  0  0  0  0  0  0
   -0.1490    4.2840    6.6109 Br  0  0  0  0  0  0  0  0  0  0  0  0
   -2.3292    3.0893    4.9333 C   0  0  0  0  0  0  0  0  0  0  0  0
   -2.8801    2.8017    3.5402 C   0  0  0  0  0  0  0  0  0  0  0  0
   -3.1231    3.3464    5.8333 O   0  0  0  0  0  0  0  0  0  0  0  0
    1.3952    2.5266    4.7387 O   0  0  0  0  0  0  0  0  0  0  0  0
    2.0601    1.9930    3.6549 C   0  0  2  0  0  0  0  0  0  0  0  0
    2.4184    2.9738    2.7268 O   0  0  0  0  0  0  0  0  0  0  0  0
    2.9630    4.1666    3.2690 C   0  0  0  0  0  0  0  0  0  0  0  0
    3.2694    1.0428    3.9239 C   0  0  1  0  0  0  0  0  0  0  0  0
    5.9242    4.3331    6.7836 H   0  0  0  0  0  0  0  0  0  0  0  0
    5.8407    3.3965    8.2864 H   0  0  0  0  0  0  0  0  0  0  0  0
    4.3639    4.0821    7.5837 H   0  0  0  0  0  0  0  0  0  0  0  0
    6.0610    1.8548    6.2789 H   0  0  0  0  0  0  0  0  0  0  0  0
    3.0694    2.4264    6.4726 H   0  0  0  0  0  0  0  0  0  0  0  0
    2.7755   -0.1724    7.1975 H   0  0  0  0  0  0  0  0  0  0  0  0
    1.5837    0.4242    6.1283 H   0  0  0  0  0  0  0  0  0  0  0  0
    1.8732   -2.2085    6.8898 H   0  0  0  0  0  0  0  0  0  0  0  0
   -0.0664   -2.2938    5.4073 H   0  0  0  0  0  0  0  0  0  0  0  0
    0.5984   -1.0027    4.3744 H   0  0  0  0  0  0  0  0  0  0  0  0
    2.2992   -4.8004    5.1657 H   0  0  0  0  0  0  0  0  0  0  0  0
    0.5988   -4.3552    5.0364 H   0  0  0  0  0  0  0  0  0  0  0  0
    2.2209   -5.3830    2.9307 H   0  0  0  0  0  0  0  0  0  0  0  0
    0.6628   -4.6029    2.6902 H   0  0  0  0  0  0  0  0  0  0  0  0
    3.5158   -2.7592    0.8404 H   0  0  0  0  0  0  0  0  0  0  0  0
    2.4597   -4.1301    0.5455 H   0  0  0  0  0  0  0  0  0  0  0  0
    3.9035   -4.3380    1.5424 H   0  0  0  0  0  0  0  0  0  0  0  0
    3.7820   -3.5520    3.7944 H   0  0  0  0  0  0  0  0  0  0  0  0
    6.7805    0.2308    3.7351 H   0  0  0  0  0  0  0  0  0  0  0  0
    5.6421   -0.2515    6.0536 H   0  0  0  0  0  0  0  0  0  0  0  0
    5.6316   -2.3888    6.4696 H   0  0  0  0  0  0  0  0  0  0  0  0
    6.2026   -2.7713    4.8545 H   0  0  0  0  0  0  0  0  0  0  0  0
    4.7589   -3.5386    5.5219 H   0  0  0  0  0  0  0  0  0  0  0  0
    3.7063    0.1763    2.0880 H   0  0  0  0  0  0  0  0  0  0  0  0
   -2.6049    1.7977    3.2286 H   0  0  0  0  0  0  0  0  0  0  0  0
   -2.4647    3.5059    2.8206 H   0  0  0  0  0  0  0  0  0  0  0  0
   -3.9660    2.8854    3.5188 H   0  0  0  0  0  0  0  0  0  0  0  0
    3.2467    4.8219    2.4450 H   0  0  0  0  0  0  0  0  0  0  0  0
    3.8469    3.9583    3.8697 H   0  0  0  0  0  0  0  0  0  0  0  0
    2.2426    4.7051    3.8893 H   0  0  0  0  0  0  0  0  0  0  0  0
    4.1206    1.6394    3.6078 H   0  0  0  0  0  0  0  0  0  0  0  0
  1  2  1  0
  1 37  1  0
  1 38  1  0
  1 39  1  0
  2  3  2  3
  2 40  1  0
  3  4  1  0
  3 41  1  0
  4 19  1  0
  4 36  1  0
  4  5  1  1
  5  6  1  0
  5 42  1  0
  5 43  1  0
  6  8  1  0
  6  7  1  0
  6 44  1  1
  8  7  1  6
  7 45  1  0
  7 46  1  0
  8 13  1  0
  8  9  1  0
  9 10  1  0
  9 47  1  0
  9 48  1  0
 10 11  1  0
 10 49  1  0
 10 50  1  0
 11 12  1  0
 11 13  1  0
 12 51  1  0
 12 52  1  0
 12 53  1  0
 13 14  1  0
 13 54  1  1
 14 20  1  0
 14 15  1  6
 14 22  1  0
 15 16  1  0
 15 18  2  0
 16 17  3  0
 18 19  1  0
 18 55  1  0
 19 20  1  0
 19 56  1  1
 20 21  1  0
 21 57  1  0
 21 58  1  0
 21 59  1  0
 22 36  1  0
 22 23  1  0
 22 60  1  6
 23 24  1  0
 24 33  1  0
 24 25  2  0
 25 26  1  0
 26 27  2  3
 26 32  1  0
 27 28  1  0
 27 29  1  0
 29 30  1  0
 29 31  2  0
 30 61  1  0
 30 62  1  0
 30 63  1  0
 32 33  1  0
 33 34  1  6
 33 36  1  0
 34 35  1  0
 35 64  1  0
 35 65  1  0
 35 66  1  0
 36 67  1  6
M  END
>  <i_m_ct_stereo_status>  (15) 
1

>  <s_m_source_file>  (15) 
/var/tmp/pbs.5076255.sched01/tmpkni74bsw/0nq93mkxh.sdf

>  <i_m_source_file_index>  (15) 
6

>  <i_lp_mmshare_version>  (15) 
48012

>  <i_f3d_flags>  (15) 
0

>  <s_epik_input>  (15) 
W0NIM10vW0NIXT1bQ0hdL1tDQF0xKFtDSDJdW0NASF0oW0NAXTIzNClbQ0gyXTIpW0NAQEhdNVtDSF09QyhDI04pW0NAXShONVtDSDNdKShbQ0BASF00TihbQ0gzXSlbQ0gyXVtDSDJdMylbQ0BASF02W0NASF0xW0NAQF03KE9bQ0gzXSlDKFM2KT1OL0MoTzcpPUMoL0JyKUMoPU8pW0NIM10=

>  <s_epik_cmdline>  (15) 
J2VwaWtfcHl0aG9uJywgJy1waHQnLCAnMi4wJywgJy1waCcsICc3LjAnLCAnLXRuJywgJzgnLCAnLW1hJywgJzIwMCcsICctaW1hZScsICc8aW5maWxlLm1hZT4nLCAnLW9tYWUnLCAnPG91dGZpbGUubWFlPic=

>  <r_epik_Ionization_Penalty>  (15) 
0.166683

>  <r_epik_Ionization_Penalty_Charging>  (15) 
0

>  <r_epik_Ionization_Penalty_Neutral>  (15) 
0.166683

>  <r_epik_State_Penalty>  (15) 
0.156033

>  <r_epik_Charging_Adjusted_Penalty>  (15) 
0.156033

>  <i_epik_Tot_Q>  (15) 
0

>  <i_epik_Tot_abs_Q>  (15) 
0

>  <s_epik_Chemistry_Notes>  (15) 
This compound has an imine and may undergo hydrolysis.

>  <s_lp_Force_Field>  (15) 
OPLS3e

>  <r_lp_Energy>  (15) 
150.311

>  <b_lp_Chiralities_Consistent>  (15) 
1

>  <s_lp_Variant>  (15) 
5:0-1

>  <s_i_glide_gridfile>  (15) 
pfpi4k_grid

>  <i_i_glide_lignum>  (15) 
6

>  <i_i_glide_rotatable_bonds>  (15) 
4

>  <r_i_docking_score>  (15) 
-1.71252

>  <r_i_glide_ligand_efficiency>  (15) 
-0.04757

>  <r_i_glide_ligand_efficiency_sa>  (15) 
-0.157073

>  <r_i_glide_ligand_efficiency_ln>  (15) 
-0.373625

>  <r_i_glide_gscore>  (15) 
-1.71252

>  <r_i_glide_lipo>  (15) 
-0.279037

>  <r_i_glide_hbond>  (15) 
0

>  <r_i_glide_metal>  (15) 
-0

>  <r_i_glide_rewards>  (15) 
-0.192251

>  <r_i_glide_evdw>  (15) 
-25.877

>  <r_i_glide_ecoul>  (15) 
0.498043

>  <r_i_glide_erotb>  (15) 
0.0363478

>  <r_i_glide_esite>  (15) 
-0.0584352

>  <r_i_glide_emodel>  (15) 
-27.449

>  <r_i_glide_energy>  (15) 
-25.379

>  <r_i_glide_einternal>  (15) 
1.33303

>  <r_i_glide_intrahb_reward>  (15) 
-0

>  <i_i_glide_confnum>  (15) 
2

>  <i_i_glide_posenum>  (15) 
34

>  <r_i_glide_eff_state_penalty>  (15) 
0

>  <ligand_id>  (15) 
5

>  <original_smiles>  (15) 
CC=CC12CC3CC34CCN(C)C4C3(C(C#N)=CC1N3C)C1SC3=NC(=C(Br)C(C)=O)OC3(OC)C12

>  <smiles>  (15) 
[H]C(=C([H])C12C3([H])C([H])=C(C#N)C(N3C([H])([H])[H])(C3([H])SC4=NC(=C(Br)C(=O)C([H])([H])[H])OC4(OC([H])([H])[H])C31[H])C1([H])N(C([H])([H])[H])C([H])([H])C([H])([H])C13C([H])([H])C3([H])C2([H])[H])C([H])([H])[H]

$$$$
5:0:2
     RDKit          3D

 67 73  0  0  1  0  0  0  0  0999 V2000
    7.8177    0.9446    5.7559 C   0  0  0  0  0  0  0  0  0  0  0  0
    6.3288    1.0986    5.9607 C   0  0  0  0  0  0  0  0  0  0  0  0
    5.4106    0.7700    5.0390 C   0  0  0  0  0  0  0  0  0  0  0  0
    3.8917    0.8912    5.1482 C   0  0  2  0  0  0  0  0  0  0  0  0
    3.3883    1.6954    3.8187 C   0  0  0  0  0  0  0  0  0  0  0  0
    1.9729    2.3687    3.5240 C   0  0  1  0  0  0  0  0  0  0  0  0
    1.0007    1.4977    2.7935 C   0  0  0  0  0  0  0  0  0  0  0  0
    0.4929    2.1448    4.0612 C   0  0  2  0  0  0  0  0  0  0  0  0
   -0.8008    2.8705    3.7850 C   0  0  0  0  0  0  0  0  0  0  0  0
   -1.8756    1.9534    4.4200 C   0  0  0  0  0  0  0  0  0  0  0  0
   -1.1692    0.9220    5.1882 N   0  0  0  0  0  0  0  0  0  0  0  0
   -1.8873    0.4754    6.3559 C   0  0  0  0  0  0  0  0  0  0  0  0
    0.0934    1.5706    5.4489 C   0  0  1  0  0  0  0  0  0  0  0  0
    1.3038    0.9448    6.1740 C   0  0  2  0  0  0  0  0  0  0  0  0
    1.6127    0.7043    7.6277 C   0  0  0  0  0  0  0  0  0  0  0  0
    0.7050    0.2031    8.5897 C   0  0  0  0  0  0  0  0  0  0  0  0
   -0.0654   -0.2473    9.3465 N   0  0  0  0  0  0  0  0  0  0  0  0
    2.9412    0.8964    7.7539 C   0  0  0  0  0  0  0  0  0  0  0  0
    3.4963    1.6250    6.5106 C   0  0  2  0  0  0  0  0  0  0  0  0
    2.2482    2.1128    6.1563 N   0  0  0  0  0  0  0  0  0  0  0  0
    1.9056    3.3894    6.8469 C   0  0  0  0  0  0  0  0  0  0  0  0
    1.7805   -0.4745    5.5912 C   0  0  1  0  0  0  0  0  0  0  0  0
    0.8063   -1.4164    4.3643 S   0  0  0  0  0  0  0  0  0  0  0  0
    2.2711   -1.7907    3.4364 C   0  0  0  0  0  0  0  0  0  0  0  0
    2.4152   -1.9076    2.1942 N   0  0  0  0  0  0  0  0  0  0  0  0
    3.7747   -1.6656    1.9401 C   0  0  0  0  0  0  0  0  0  0  0  0
    4.4536   -1.8616    0.7757 C   0  0  0  0  0  0  0  0  0  0  0  0
    6.3958   -1.4502    0.8970 Br  0  0  0  0  0  0  0  0  0  0  0  0
    3.9049   -2.4287   -0.4721 C   0  0  0  0  0  0  0  0  0  0  0  0
    2.6431   -3.2767   -0.4678 C   0  0  0  0  0  0  0  0  0  0  0  0
    4.4929   -2.2737   -1.5525 O   0  0  0  0  0  0  0  0  0  0  0  0
    4.3733   -1.2564    3.1122 O   0  0  0  0  0  0  0  0  0  0  0  0
    3.5385   -1.6118    4.1590 C   0  0  2  0  0  0  0  0  0  0  0  0
    3.9750   -2.7974    4.7945 O   0  0  0  0  0  0  0  0  0  0  0  0
    4.4438   -3.8640    3.9595 C   0  0  0  0  0  0  0  0  0  0  0  0
    3.2862   -0.5282    5.2665 C   0  0  1  0  0  0  0  0  0  0  0  0
    8.2142    0.2740    6.5184 H   0  0  0  0  0  0  0  0  0  0  0  0
    8.3187    1.9090    5.8525 H   0  0  0  0  0  0  0  0  0  0  0  0
    8.0434    0.5361    4.7704 H   0  0  0  0  0  0  0  0  0  0  0  0
    6.0579    1.5009    6.9221 H   0  0  0  0  0  0  0  0  0  0  0  0
    5.7737    0.3835    4.0987 H   0  0  0  0  0  0  0  0  0  0  0  0
    4.0653    2.5407    3.7397 H   0  0  0  0  0  0  0  0  0  0  0  0
    3.6198    1.0927    2.9429 H   0  0  0  0  0  0  0  0  0  0  0  0
    2.0977    3.3575    3.0925 H   0  0  0  0  0  0  0  0  0  0  0  0
    0.6552    1.8875    1.8381 H   0  0  0  0  0  0  0  0  0  0  0  0
    1.2393    0.4578    2.7458 H   0  0  0  0  0  0  0  0  0  0  0  0
   -0.7723    3.8402    4.2805 H   0  0  0  0  0  0  0  0  0  0  0  0
   -0.9670    3.0456    2.7229 H   0  0  0  0  0  0  0  0  0  0  0  0
   -2.5332    2.5493    5.0535 H   0  0  0  0  0  0  0  0  0  0  0  0
   -2.4888    1.4881    3.6559 H   0  0  0  0  0  0  0  0  0  0  0  0
   -1.3207   -0.3141    6.8470 H   0  0  0  0  0  0  0  0  0  0  0  0
   -2.8507    0.0648    6.0661 H   0  0  0  0  0  0  0  0  0  0  0  0
   -2.0494    1.2956    7.0543 H   0  0  0  0  0  0  0  0  0  0  0  0
   -0.1895    2.4195    6.0717 H   0  0  0  0  0  0  0  0  0  0  0  0
    3.5184    0.7317    8.6527 H   0  0  0  0  0  0  0  0  0  0  0  0
    4.1541    2.4531    6.7835 H   0  0  0  0  0  0  0  0  0  0  0  0
    2.7432    4.0899    6.7655 H   0  0  0  0  0  0  0  0  0  0  0  0
    1.6881    3.2693    7.9103 H   0  0  0  0  0  0  0  0  0  0  0  0
    1.0769    3.9060    6.3707 H   0  0  0  0  0  0  0  0  0  0  0  0
    1.6867   -1.2098    6.4006 H   0  0  0  0  0  0  0  0  0  0  0  0
    1.8149   -2.6747   -0.1149 H   0  0  0  0  0  0  0  0  0  0  0  0
    2.7611   -4.1260    0.2008 H   0  0  0  0  0  0  0  0  0  0  0  0
    2.4001   -3.6349   -1.4633 H   0  0  0  0  0  0  0  0  0  0  0  0
    4.6923   -4.7496    4.5469 H   0  0  0  0  0  0  0  0  0  0  0  0
    5.3482   -3.5502    3.4421 H   0  0  0  0  0  0  0  0  0  0  0  0
    3.7192   -4.1799    3.2078 H   0  0  0  0  0  0  0  0  0  0  0  0
    3.7997   -0.9549    6.1276 H   0  0  0  0  0  0  0  0  0  0  0  0
  1  2  1  0
  1 37  1  0
  1 38  1  0
  1 39  1  0
  2  3  2  3
  2 40  1  0
  3  4  1  0
  3 41  1  0
  4 19  1  0
  4 36  1  0
  4  5  1  6
  5  6  1  0
  5 42  1  0
  5 43  1  0
  6  8  1  0
  6  7  1  0
  6 44  1  6
  8  7  1  6
  7 45  1  0
  7 46  1  0
  8 13  1  0
  8  9  1  0
  9 10  1  0
  9 47  1  0
  9 48  1  0
 10 11  1  0
 10 49  1  0
 10 50  1  0
 11 12  1  0
 11 13  1  0
 12 51  1  0
 12 52  1  0
 12 53  1  0
 13 14  1  0
 13 54  1  1
 14 20  1  0
 14 15  1  1
 14 22  1  0
 15 16  1  0
 15 18  2  0
 16 17  3  0
 18 19  1  0
 18 55  1  0
 19 20  1  0
 19 56  1  1
 20 21  1  0
 21 57  1  0
 21 58  1  0
 21 59  1  0
 22 36  1  0
 22 23  1  0
 22 60  1  1
 23 24  1  0
 24 33  1  0
 24 25  2  0
 25 26  1  0
 26 27  2  3
 26 32  1  0
 27 28  1  0
 27 29  1  0
 29 30  1  0
 29 31  2  0
 30 61  1  0
 30 62  1  0
 30 63  1  0
 32 33  1  0
 33 34  1  1
 33 36  1  0
 34 35  1  0
 35 64  1  0
 35 65  1  0
 35 66  1  0
 36 67  1  1
M  END
>  <i_m_ct_stereo_status>  (16) 
1

>  <s_m_source_file>  (16) 
/var/tmp/pbs.5076255.sched01/tmpkni74bsw/0nq93mkxh.sdf

>  <i_m_source_file_index>  (16) 
6

>  <i_lp_mmshare_version>  (16) 
48012

>  <i_f3d_flags>  (16) 
0

>  <s_epik_input>  (16) 
W0NIM10vW0NIXT1bQ0hdL1tDQF0xKFtDSDJdW0NASF0oW0NAXTIzNClbQ0gyXTIpW0NAQEhdNVtDSF09QyhDI04pW0NAXShONVtDSDNdKShbQ0BASF00TihbQ0gzXSlbQ0gyXVtDSDJdMylbQ0BASF02W0NASF0xW0NAQF03KE9bQ0gzXSlDKFM2KT1OL0MoTzcpPUMoL0JyKUMoPU8pW0NIM10=

>  <s_epik_cmdline>  (16) 
J2VwaWtfcHl0aG9uJywgJy1waHQnLCAnMi4wJywgJy1waCcsICc3LjAnLCAnLXRuJywgJzgnLCAnLW1hJywgJzIwMCcsICctaW1hZScsICc8aW5maWxlLm1hZT4nLCAnLW9tYWUnLCAnPG91dGZpbGUubWFlPic=

>  <r_epik_Ionization_Penalty>  (16) 
0.166683

>  <r_epik_Ionization_Penalty_Charging>  (16) 
0

>  <r_epik_Ionization_Penalty_Neutral>  (16) 
0.166683

>  <r_epik_State_Penalty>  (16) 
0.156033

>  <r_epik_Charging_Adjusted_Penalty>  (16) 
0.156033

>  <i_epik_Tot_Q>  (16) 
0

>  <i_epik_Tot_abs_Q>  (16) 
0

>  <s_epik_Chemistry_Notes>  (16) 
This compound has an imine and may undergo hydrolysis.

>  <s_lp_Force_Field>  (16) 
OPLS3e

>  <r_lp_Energy>  (16) 
150.311

>  <b_lp_Chiralities_Consistent>  (16) 
1

>  <s_lp_Variant>  (16) 
5:0-1

>  <s_i_glide_gridfile>  (16) 
pfpi4k_grid

>  <i_i_glide_lignum>  (16) 
6

>  <i_i_glide_rotatable_bonds>  (16) 
4

>  <r_i_docking_score>  (16) 
-1.60167

>  <r_i_glide_ligand_efficiency>  (16) 
-0.0444909

>  <r_i_glide_ligand_efficiency_sa>  (16) 
-0.146906

>  <r_i_glide_ligand_efficiency_ln>  (16) 
-0.349441

>  <r_i_glide_gscore>  (16) 
-1.60167

>  <r_i_glide_lipo>  (16) 
-0.318728

>  <r_i_glide_hbond>  (16) 
-0.000306498

>  <r_i_glide_metal>  (16) 
-0

>  <r_i_glide_rewards>  (16) 
-7.75008e-05

>  <r_i_glide_evdw>  (16) 
-25.4238

>  <r_i_glide_ecoul>  (16) 
-0.0188087

>  <r_i_glide_erotb>  (16) 
0.0363478

>  <r_i_glide_esite>  (16) 
-0.0448967

>  <r_i_glide_emodel>  (16) 
-26.2874

>  <r_i_glide_energy>  (16) 
-25.4426

>  <r_i_glide_einternal>  (16) 
2.87012

>  <r_i_glide_intrahb_reward>  (16) 
-0

>  <i_i_glide_confnum>  (16) 
2

>  <i_i_glide_posenum>  (16) 
30

>  <r_i_glide_eff_state_penalty>  (16) 
0

>  <ligand_id>  (16) 
5

>  <original_smiles>  (16) 
CC=CC12CC3CC34CCN(C)C4C3(C(C#N)=CC1N3C)C1SC3=NC(=C(Br)C(C)=O)OC3(OC)C12

>  <smiles>  (16) 
[H]C(=C([H])C12C3([H])C([H])=C(C#N)C(N3C([H])([H])[H])(C3([H])SC4=NC(=C(Br)C(=O)C([H])([H])[H])OC4(OC([H])([H])[H])C31[H])C1([H])N(C([H])([H])[H])C([H])([H])C([H])([H])C13C([H])([H])C3([H])C2([H])[H])C([H])([H])[H]

$$$$
5:1:0
     RDKit          3D

 67 73  0  0  1  0  0  0  0  0999 V2000
    6.6673    0.3020    7.2591 C   0  0  0  0  0  0  0  0  0  0  0  0
    6.7858    0.1367    5.7559 C   0  0  0  0  0  0  0  0  0  0  0  0
    5.8218   -0.0209    4.8194 C   0  0  0  0  0  0  0  0  0  0  0  0
    4.2856   -0.0256    4.9024 C   0  0  2  0  0  0  0  0  0  0  0  0
    3.7837    0.9293    3.6726 C   0  0  0  0  0  0  0  0  0  0  0  0
    2.3520    1.5929    3.4198 C   0  0  1  0  0  0  0  0  0  0  0  0
    1.4486    0.8075    2.5234 C   0  0  0  0  0  0  0  0  0  0  0  0
    0.8667    1.2232    3.8511 C   0  0  2  0  0  0  0  0  0  0  0  0
   -0.4465    1.9347    3.6418 C   0  0  0  0  0  0  0  0  0  0  0  0
   -1.4871    0.8771    4.0795 C   0  0  0  0  0  0  0  0  0  0  0  0
   -0.7630   -0.2321    4.7098 N   0  0  0  0  0  0  0  0  0  0  0  0
   -1.5072   -0.8844    5.7572 C   0  0  0  0  0  0  0  0  0  0  0  0
    0.4528    0.4254    5.1229 C   0  0  1  0  0  0  0  0  0  0  0  0
    1.6617   -0.2474    5.7954 C   0  0  2  0  0  0  0  0  0  0  0  0
    1.9099   -0.6821    7.2127 C   0  0  0  0  0  0  0  0  0  0  0  0
    0.9853   -1.3483    8.0625 C   0  0  0  0  0  0  0  0  0  0  0  0
    0.2074   -1.8815    8.7425 N   0  0  0  0  0  0  0  0  0  0  0  0
    3.2182   -0.4497    7.4318 C   0  0  0  0  0  0  0  0  0  0  0  0
    3.7877    0.4771    6.3315 C   0  0  2  0  0  0  0  0  0  0  0  0
    2.5338    0.9549    5.9908 N   0  0  0  0  0  0  0  0  0  0  0  0
    2.1130    2.1078    6.8400 C   0  0  0  0  0  0  0  0  0  0  0  0
    2.2416   -1.5384    5.0323 C   0  0  1  0  0  0  0  0  0  0  0  0
    1.3760   -2.3206    3.6283 S   0  0  0  0  0  0  0  0  0  0  0  0
    2.8937   -2.4470    2.7263 C   0  0  0  0  0  0  0  0  0  0  0  0
    3.1034   -2.3615    1.4931 N   0  0  0  0  0  0  0  0  0  0  0  0
    4.4557   -2.0495    1.3519 C   0  0  0  0  0  0  0  0  0  0  0  0
    5.2028   -2.0283    0.2127 C   0  0  0  0  0  0  0  0  0  0  0  0
    7.1179   -1.5866    0.4778 Br  0  0  0  0  0  0  0  0  0  0  0  0
    4.7392   -2.3835   -1.1467 C   0  0  0  0  0  0  0  0  0  0  0  0
    3.3469   -2.9502   -1.3792 C   0  0  0  0  0  0  0  0  0  0  0  0
    5.4808   -2.2571   -2.1279 O   0  0  0  0  0  0  0  0  0  0  0  0
    4.9923   -1.8224    2.6009 O   0  0  0  0  0  0  0  0  0  0  0  0
    4.1191   -2.3604    3.5352 C   0  0  2  0  0  0  0  0  0  0  0  0
    4.5509   -3.6281    3.9880 O   0  0  0  0  0  0  0  0  0  0  0  0
    5.0695   -4.5428    3.0109 C   0  0  0  0  0  0  0  0  0  0  0  0
    3.7680   -1.4783    4.7845 C   0  0  1  0  0  0  0  0  0  0  0  0
    7.5582   -0.0780    7.7601 H   0  0  0  0  0  0  0  0  0  0  0  0
    5.8440   -0.2687    7.6769 H   0  0  0  0  0  0  0  0  0  0  0  0
    6.5490    1.3566    7.5169 H   0  0  0  0  0  0  0  0  0  0  0  0
    7.8075    0.1657    5.4029 H   0  0  0  0  0  0  0  0  0  0  0  0
    6.1914   -0.1344    3.8107 H   0  0  0  0  0  0  0  0  0  0  0  0
    4.4274    1.7948    3.7547 H   0  0  0  0  0  0  0  0  0  0  0  0
    4.0781    0.4747    2.7294 H   0  0  0  0  0  0  0  0  0  0  0  0
    2.4533    2.6427    3.1626 H   0  0  0  0  0  0  0  0  0  0  0  0
    1.1172    1.3255    1.6251 H   0  0  0  0  0  0  0  0  0  0  0  0
    1.7303   -0.2008    2.3156 H   0  0  0  0  0  0  0  0  0  0  0  0
   -0.4852    2.8151    4.2844 H   0  0  0  0  0  0  0  0  0  0  0  0
   -0.5897    2.2634    2.6115 H   0  0  0  0  0  0  0  0  0  0  0  0
   -2.2032    1.3339    4.7620 H   0  0  0  0  0  0  0  0  0  0  0  0
   -2.0128    0.5031    3.2107 H   0  0  0  0  0  0  0  0  0  0  0  0
   -0.9359   -1.7200    6.1624 H   0  0  0  0  0  0  0  0  0  0  0  0
   -2.4437   -1.2777    5.3683 H   0  0  0  0  0  0  0  0  0  0  0  0
   -1.7238   -0.1784    6.5548 H   0  0  0  0  0  0  0  0  0  0  0  0
    0.1015    1.1566    5.8528 H   0  0  0  0  0  0  0  0  0  0  0  0
    3.7502   -0.7146    8.3308 H   0  0  0  0  0  0  0  0  0  0  0  0
    4.3750    1.3040    6.7293 H   0  0  0  0  0  0  0  0  0  0  0  0
    2.9278    2.8374    6.9022 H   0  0  0  0  0  0  0  0  0  0  0  0
    1.8633    1.8232    7.8635 H   0  0  0  0  0  0  0  0  0  0  0  0
    1.2871    2.6619    6.4042 H   0  0  0  0  0  0  0  0  0  0  0  0
    2.1446   -2.3935    5.7130 H   0  0  0  0  0  0  0  0  0  0  0  0
    2.6129   -2.2122   -1.0749 H   0  0  0  0  0  0  0  0  0  0  0  0
    3.2047   -3.8498   -0.7864 H   0  0  0  0  0  0  0  0  0  0  0  0
    3.1837   -3.1932   -2.4251 H   0  0  0  0  0  0  0  0  0  0  0  0
    5.2869   -5.5170    3.4563 H   0  0  0  0  0  0  0  0  0  0  0  0
    5.9940   -4.1515    2.5941 H   0  0  0  0  0  0  0  0  0  0  0  0
    4.3821   -4.7292    2.1866 H   0  0  0  0  0  0  0  0  0  0  0  0
    4.2688   -2.0027    5.5999 H   0  0  0  0  0  0  0  0  0  0  0  0
  1  2  1  0
  1 37  1  0
  1 38  1  0
  1 39  1  0
  2  3  2  3
  2 40  1  0
  3  4  1  0
  3 41  1  0
  4 19  1  0
  4 36  1  0
  4  5  1  6
  5  6  1  0
  5 42  1  0
  5 43  1  0
  6  8  1  0
  6  7  1  0
  6 44  1  6
  8  7  1  6
  7 45  1  0
  7 46  1  0
  8 13  1  0
  8  9  1  0
  9 10  1  0
  9 47  1  0
  9 48  1  0
 10 11  1  0
 10 49  1  0
 10 50  1  0
 11 12  1  0
 11 13  1  0
 12 51  1  0
 12 52  1  0
 12 53  1  0
 13 14  1  0
 13 54  1  1
 14 20  1  0
 14 15  1  1
 14 22  1  0
 15 16  1  0
 15 18  2  0
 16 17  3  0
 18 19  1  0
 18 55  1  0
 19 20  1  0
 19 56  1  1
 20 21  1  0
 21 57  1  0
 21 58  1  0
 21 59  1  0
 22 36  1  0
 22 23  1  0
 22 60  1  1
 23 24  1  0
 24 33  1  0
 24 25  2  0
 25 26  1  0
 26 27  2  3
 26 32  1  0
 27 28  1  0
 27 29  1  0
 29 30  1  0
 29 31  2  0
 30 61  1  0
 30 62  1  0
 30 63  1  0
 32 33  1  0
 33 34  1  1
 33 36  1  0
 34 35  1  0
 35 64  1  0
 35 65  1  0
 35 66  1  0
 36 67  1  1
M  END
>  <i_m_ct_stereo_status>  (17) 
1

>  <s_m_source_file>  (17) 
/var/tmp/pbs.5076255.sched01/tmpkni74bsw/0nq93mkxh.sdf

>  <i_m_source_file_index>  (17) 
7

>  <i_lp_mmshare_version>  (17) 
48012

>  <i_f3d_flags>  (17) 
0

>  <s_epik_input>  (17) 
W0NIM10vW0NIXT1bQ0hdL1tDQF0xKFtDSDJdW0NASF0oW0NAXTIzNClbQ0gyXTIpW0NAQEhdNVtDSF09QyhDI04pW0NAXShONVtDSDNdKShbQ0BASF00TihbQ0gzXSlbQ0gyXVtDSDJdMylbQ0BASF02W0NASF0xW0NAQF03KE9bQ0gzXSlDKFM2KT1OL0MoTzcpPUMoL0JyKUMoPU8pW0NIM10=

>  <s_epik_cmdline>  (17) 
J2VwaWtfcHl0aG9uJywgJy1waHQnLCAnMi4wJywgJy1waCcsICc3LjAnLCAnLXRuJywgJzgnLCAnLW1hJywgJzIwMCcsICctaW1hZScsICc8aW5maWxlLm1hZT4nLCAnLW9tYWUnLCAnPG91dGZpbGUubWFlPic=

>  <r_epik_Ionization_Penalty>  (17) 
0.166683

>  <r_epik_Ionization_Penalty_Charging>  (17) 
0

>  <r_epik_Ionization_Penalty_Neutral>  (17) 
0.166683

>  <r_epik_State_Penalty>  (17) 
0.156033

>  <r_epik_Charging_Adjusted_Penalty>  (17) 
0.156033

>  <i_epik_Tot_Q>  (17) 
0

>  <i_epik_Tot_abs_Q>  (17) 
0

>  <s_epik_Chemistry_Notes>  (17) 
This compound has an imine and may undergo hydrolysis.

>  <s_lp_Force_Field>  (17) 
OPLS3e

>  <r_lp_Energy>  (17) 
153.095

>  <b_lp_Chiralities_Consistent>  (17) 
1

>  <s_lp_Variant>  (17) 
5:0-2

>  <s_i_glide_gridfile>  (17) 
pfpi4k_grid

>  <i_i_glide_lignum>  (17) 
7

>  <i_i_glide_rotatable_bonds>  (17) 
4

>  <r_i_docking_score>  (17) 
-1.94694

>  <r_i_glide_ligand_efficiency>  (17) 
-0.0540816

>  <r_i_glide_ligand_efficiency_sa>  (17) 
-0.178573

>  <r_i_glide_ligand_efficiency_ln>  (17) 
-0.424769

>  <r_i_glide_gscore>  (17) 
-1.94694

>  <r_i_glide_lipo>  (17) 
-0.341182

>  <r_i_glide_hbond>  (17) 
-0.128831

>  <r_i_glide_metal>  (17) 
-0

>  <r_i_glide_rewards>  (17) 
-0.000382065

>  <r_i_glide_evdw>  (17) 
-24.8706

>  <r_i_glide_ecoul>  (17) 
-1.53691

>  <r_i_glide_erotb>  (17) 
0.0363478

>  <r_i_glide_esite>  (17) 
-0.0388194

>  <r_i_glide_emodel>  (17) 
-28.241

>  <r_i_glide_energy>  (17) 
-26.4076

>  <r_i_glide_einternal>  (17) 
2.18602

>  <r_i_glide_intrahb_reward>  (17) 
-0

>  <i_i_glide_confnum>  (17) 
3

>  <i_i_glide_posenum>  (17) 
8

>  <r_i_glide_eff_state_penalty>  (17) 
0

>  <ligand_id>  (17) 
5

>  <original_smiles>  (17) 
CC=CC12CC3CC34CCN(C)C4C3(C(C#N)=CC1N3C)C1SC3=NC(=C(Br)C(C)=O)OC3(OC)C12

>  <smiles>  (17) 
[H]C(=C([H])C12C3([H])C([H])=C(C#N)C(N3C([H])([H])[H])(C3([H])SC4=NC(=C(Br)C(=O)C([H])([H])[H])OC4(OC([H])([H])[H])C31[H])C1([H])N(C([H])([H])[H])C([H])([H])C([H])([H])C13C([H])([H])C3([H])C2([H])[H])C([H])([H])[H]

$$$$
5:1:1
     RDKit          3D

 67 73  0  0  1  0  0  0  0  0999 V2000
    6.5815    1.9918    6.2903 C   0  0  0  0  0  0  0  0  0  0  0  0
    5.1390    2.3914    6.5434 C   0  0  0  0  0  0  0  0  0  0  0  0
    3.9880    1.8206    6.1286 C   0  0  0  0  0  0  0  0  0  0  0  0
    3.7038    0.5547    5.3049 C   0  0  2  0  0  0  0  0  0  0  0  0
    2.5130   -0.2357    6.0998 C   0  0  0  0  0  0  0  0  0  0  0  0
    2.0081   -1.7437    5.9148 C   0  0  1  0  0  0  0  0  0  0  0  0
    0.8358   -1.9060    4.9943 C   0  0  0  0  0  0  0  0  0  0  0  0
    2.0311   -2.7887    4.7198 C   0  0  2  0  0  0  0  0  0  0  0  0
    1.5951   -4.2372    4.6282 C   0  0  0  0  0  0  0  0  0  0  0  0
    1.6466   -4.5392    3.1116 C   0  0  0  0  0  0  0  0  0  0  0  0
    2.2971   -3.3989    2.4623 N   0  0  0  0  0  0  0  0  0  0  0  0
    3.0642   -3.7558    1.2854 C   0  0  0  0  0  0  0  0  0  0  0  0
    3.0535   -2.8455    3.5494 C   0  0  1  0  0  0  0  0  0  0  0  0
    3.9111   -1.5594    3.4921 C   0  0  2  0  0  0  0  0  0  0  0  0
    5.2784   -1.2933    2.9338 C   0  0  0  0  0  0  0  0  0  0  0  0
    5.7979   -1.7603    1.7008 C   0  0  0  0  0  0  0  0  0  0  0  0
    6.2385   -2.1140    0.6846 N   0  0  0  0  0  0  0  0  0  0  0  0
    5.8240   -0.3804    3.7842 C   0  0  0  0  0  0  0  0  0  0  0  0
    5.0164   -0.3179    5.1014 C   0  0  2  0  0  0  0  0  0  0  0  0
    4.4496   -1.5612    4.8962 N   0  0  0  0  0  0  0  0  0  0  0  0
    5.3038   -2.6686    5.4122 C   0  0  0  0  0  0  0  0  0  0  0  0
    3.1685   -0.2530    2.9367 C   0  0  1  0  0  0  0  0  0  0  0  0
    1.5138   -0.3151    2.1781 S   0  0  0  0  0  0  0  0  0  0  0  0
    1.0009    1.1271    3.0501 C   0  0  0  0  0  0  0  0  0  0  0  0
   -0.1310    1.4442    3.4950 N   0  0  0  0  0  0  0  0  0  0  0  0
    0.1078    2.3958    4.4796 C   0  0  0  0  0  0  0  0  0  0  0  0
   -0.8069    3.1111    5.2061 C   0  0  0  0  0  0  0  0  0  0  0  0
   -0.0098    4.2916    6.5784 Br  0  0  0  0  0  0  0  0  0  0  0  0
   -2.2587    3.0693    5.0006 C   0  0  0  0  0  0  0  0  0  0  0  0
   -2.8582    2.7625    3.6380 C   0  0  0  0  0  0  0  0  0  0  0  0
   -3.0114    3.3496    5.9260 O   0  0  0  0  0  0  0  0  0  0  0  0
    1.4683    2.4960    4.6976 O   0  0  0  0  0  0  0  0  0  0  0  0
    2.0907    1.9297    3.6004 C   0  0  2  0  0  0  0  0  0  0  0  0
    2.4318    2.8890    2.6467 O   0  0  0  0  0  0  0  0  0  0  0  0
    2.9053    4.1331    3.1417 C   0  0  0  0  0  0  0  0  0  0  0  0
    3.3040    0.9751    3.8701 C   0  0  1  0  0  0  0  0  0  0  0  0
    7.2355    2.8595    6.3431 H   0  0  0  0  0  0  0  0  0  0  0  0
    6.7340    1.5818    5.2974 H   0  0  0  0  0  0  0  0  0  0  0  0
    6.9153    1.2619    7.0318 H   0  0  0  0  0  0  0  0  0  0  0  0
    5.0419    3.2606    7.1807 H   0  0  0  0  0  0  0  0  0  0  0  0
    3.0901    2.3144    6.4590 H   0  0  0  0  0  0  0  0  0  0  0  0
    2.8135   -0.2041    7.1467 H   0  0  0  0  0  0  0  0  0  0  0  0
    1.6192    0.3829    6.0766 H   0  0  0  0  0  0  0  0  0  0  0  0
    1.9120   -2.2400    6.8762 H   0  0  0  0  0  0  0  0  0  0  0  0
   -0.0469   -2.3578    5.4383 H   0  0  0  0  0  0  0  0  0  0  0  0
    0.5897   -1.0739    4.3754 H   0  0  0  0  0  0  0  0  0  0  0  0
    2.3127   -4.8547    5.1746 H   0  0  0  0  0  0  0  0  0  0  0  0
    0.6089   -4.4098    5.0620 H   0  0  0  0  0  0  0  0  0  0  0  0
    2.1976   -5.4649    2.9450 H   0  0  0  0  0  0  0  0  0  0  0  0
    0.6405   -4.6710    2.7182 H   0  0  0  0  0  0  0  0  0  0  0  0
    3.4835   -2.8664    0.8200 H   0  0  0  0  0  0  0  0  0  0  0  0
    2.4226   -4.2380    0.5493 H   0  0  0  0  0  0  0  0  0  0  0  0
    3.8751   -4.4373    1.5375 H   0  0  0  0  0  0  0  0  0  0  0  0
    3.7697   -3.6290    3.7837 H   0  0  0  0  0  0  0  0  0  0  0  0
    6.7811    0.0961    3.6374 H   0  0  0  0  0  0  0  0  0  0  0  0
    5.6471   -0.3678    5.9862 H   0  0  0  0  0  0  0  0  0  0  0  0
    5.6467   -2.4382    6.4253 H   0  0  0  0  0  0  0  0  0  0  0  0
    6.1966   -2.8576    4.8142 H   0  0  0  0  0  0  0  0  0  0  0  0
    4.7519   -3.6043    5.5196 H   0  0  0  0  0  0  0  0  0  0  0  0
    3.6908    0.0775    2.0321 H   0  0  0  0  0  0  0  0  0  0  0  0
   -2.6080    1.7479    3.3423 H   0  0  0  0  0  0  0  0  0  0  0  0
   -2.4558    3.4357    2.8869 H   0  0  0  0  0  0  0  0  0  0  0  0
   -3.9407    2.8605    3.6494 H   0  0  0  0  0  0  0  0  0  0  0  0
    3.1270    4.7824    2.2935 H   0  0  0  0  0  0  0  0  0  0  0  0
    3.8159    3.9985    3.7294 H   0  0  0  0  0  0  0  0  0  0  0  0
    2.1612    4.6457    3.7561 H   0  0  0  0  0  0  0  0  0  0  0  0
    4.1500    1.5697    3.5367 H   0  0  0  0  0  0  0  0  0  0  0  0
  1  2  1  0
  1 37  1  0
  1 38  1  0
  1 39  1  0
  2  3  2  3
  2 40  1  0
  3  4  1  0
  3 41  1  0
  4 19  1  0
  4 36  1  0
  4  5  1  1
  5  6  1  0
  5 42  1  0
  5 43  1  0
  6  8  1  0
  6  7  1  0
  6 44  1  1
  8  7  1  6
  7 45  1  0
  7 46  1  0
  8 13  1  0
  8  9  1  0
  9 10  1  0
  9 47  1  0
  9 48  1  0
 10 11  1  0
 10 49  1  0
 10 50  1  0
 11 12  1  0
 11 13  1  0
 12 51  1  0
 12 52  1  0
 12 53  1  0
 13 14  1  0
 13 54  1  1
 14 20  1  0
 14 15  1  6
 14 22  1  0
 15 16  1  0
 15 18  2  0
 16 17  3  0
 18 19  1  0
 18 55  1  0
 19 20  1  0
 19 56  1  1
 20 21  1  0
 21 57  1  0
 21 58  1  0
 21 59  1  0
 22 36  1  0
 22 23  1  0
 22 60  1  6
 23 24  1  0
 24 33  1  0
 24 25  2  0
 25 26  1  0
 26 27  2  3
 26 32  1  0
 27 28  1  0
 27 29  1  0
 29 30  1  0
 29 31  2  0
 30 61  1  0
 30 62  1  0
 30 63  1  0
 32 33  1  0
 33 34  1  6
 33 36  1  0
 34 35  1  0
 35 64  1  0
 35 65  1  0
 35 66  1  0
 36 67  1  6
M  END
>  <i_m_ct_stereo_status>  (18) 
1

>  <s_m_source_file>  (18) 
/var/tmp/pbs.5076255.sched01/tmpkni74bsw/0nq93mkxh.sdf

>  <i_m_source_file_index>  (18) 
7

>  <i_lp_mmshare_version>  (18) 
48012

>  <i_f3d_flags>  (18) 
0

>  <s_epik_input>  (18) 
W0NIM10vW0NIXT1bQ0hdL1tDQF0xKFtDSDJdW0NASF0oW0NAXTIzNClbQ0gyXTIpW0NAQEhdNVtDSF09QyhDI04pW0NAXShONVtDSDNdKShbQ0BASF00TihbQ0gzXSlbQ0gyXVtDSDJdMylbQ0BASF02W0NASF0xW0NAQF03KE9bQ0gzXSlDKFM2KT1OL0MoTzcpPUMoL0JyKUMoPU8pW0NIM10=

>  <s_epik_cmdline>  (18) 
J2VwaWtfcHl0aG9uJywgJy1waHQnLCAnMi4wJywgJy1waCcsICc3LjAnLCAnLXRuJywgJzgnLCAnLW1hJywgJzIwMCcsICctaW1hZScsICc8aW5maWxlLm1hZT4nLCAnLW9tYWUnLCAnPG91dGZpbGUubWFlPic=

>  <r_epik_Ionization_Penalty>  (18) 
0.166683

>  <r_epik_Ionization_Penalty_Charging>  (18) 
0

>  <r_epik_Ionization_Penalty_Neutral>  (18) 
0.166683

>  <r_epik_State_Penalty>  (18) 
0.156033

>  <r_epik_Charging_Adjusted_Penalty>  (18) 
0.156033

>  <i_epik_Tot_Q>  (18) 
0

>  <i_epik_Tot_abs_Q>  (18) 
0

>  <s_epik_Chemistry_Notes>  (18) 
This compound has an imine and may undergo hydrolysis.

>  <s_lp_Force_Field>  (18) 
OPLS3e

>  <r_lp_Energy>  (18) 
153.095

>  <b_lp_Chiralities_Consistent>  (18) 
1

>  <s_lp_Variant>  (18) 
5:0-2

>  <s_i_glide_gridfile>  (18) 
pfpi4k_grid

>  <i_i_glide_lignum>  (18) 
7

>  <i_i_glide_rotatable_bonds>  (18) 
4

>  <r_i_docking_score>  (18) 
-1.80786

>  <r_i_glide_ligand_efficiency>  (18) 
-0.0502184

>  <r_i_glide_ligand_efficiency_sa>  (18) 
-0.165818

>  <r_i_glide_ligand_efficiency_ln>  (18) 
-0.394427

>  <r_i_glide_gscore>  (18) 
-1.80786

>  <r_i_glide_lipo>  (18) 
-0.352303

>  <r_i_glide_hbond>  (18) 
0

>  <r_i_glide_metal>  (18) 
-0

>  <r_i_glide_rewards>  (18) 
-0.174688

>  <r_i_glide_evdw>  (18) 
-26.4253

>  <r_i_glide_ecoul>  (18) 
0.390937

>  <r_i_glide_erotb>  (18) 
0.0363478

>  <r_i_glide_esite>  (18) 
-0.0545973

>  <r_i_glide_emodel>  (18) 
-27.7961

>  <r_i_glide_energy>  (18) 
-26.0343

>  <r_i_glide_einternal>  (18) 
1.845

>  <r_i_glide_intrahb_reward>  (18) 
-0

>  <i_i_glide_confnum>  (18) 
1

>  <i_i_glide_posenum>  (18) 
37

>  <r_i_glide_eff_state_penalty>  (18) 
0

>  <ligand_id>  (18) 
5

>  <original_smiles>  (18) 
CC=CC12CC3CC34CCN(C)C4C3(C(C#N)=CC1N3C)C1SC3=NC(=C(Br)C(C)=O)OC3(OC)C12

>  <smiles>  (18) 
[H]C(=C([H])C12C3([H])C([H])=C(C#N)C(N3C([H])([H])[H])(C3([H])SC4=NC(=C(Br)C(=O)C([H])([H])[H])OC4(OC([H])([H])[H])C31[H])C1([H])N(C([H])([H])[H])C([H])([H])C([H])([H])C13C([H])([H])C3([H])C2([H])[H])C([H])([H])[H]

$$$$
5:1:2
     RDKit          3D

 67 73  0  0  1  0  0  0  0  0999 V2000
    5.1453    0.9721    8.4015 C   0  0  0  0  0  0  0  0  0  0  0  0
    4.4762    2.0058    7.5035 C   0  0  0  0  0  0  0  0  0  0  0  0
    3.8715    1.8799    6.3011 C   0  0  0  0  0  0  0  0  0  0  0  0
    3.6360    0.6417    5.4250 C   0  0  2  0  0  0  0  0  0  0  0  0
    2.4138   -0.1905    6.1313 C   0  0  0  0  0  0  0  0  0  0  0  0
    1.9469   -1.7005    5.8725 C   0  0  1  0  0  0  0  0  0  0  0  0
    0.8238   -1.8425    4.8903 C   0  0  0  0  0  0  0  0  0  0  0  0
    2.0392   -2.7004    4.6380 C   0  0  2  0  0  0  0  0  0  0  0  0
    1.6345   -4.1516    4.4930 C   0  0  0  0  0  0  0  0  0  0  0  0
    1.7646   -4.4047    2.9699 C   0  0  0  0  0  0  0  0  0  0  0  0
    2.4259   -3.2311    2.3875 N   0  0  0  0  0  0  0  0  0  0  0  0
    3.2520   -3.5406    1.2374 C   0  0  0  0  0  0  0  0  0  0  0  0
    3.1294   -2.6911    3.5264 C   0  0  1  0  0  0  0  0  0  0  0  0
    3.9680   -1.3964    3.5514 C   0  0  2  0  0  0  0  0  0  0  0  0
    5.3540   -1.0835    3.0531 C   0  0  0  0  0  0  0  0  0  0  0  0
    5.9308   -1.5219    1.8250 C   0  0  0  0  0  0  0  0  0  0  0  0
    6.4278   -1.8414    0.8262 N   0  0  0  0  0  0  0  0  0  0  0  0
    5.8456   -0.1941    3.9352 C   0  0  0  0  0  0  0  0  0  0  0  0
    5.0009   -0.1745    5.2231 C   0  0  2  0  0  0  0  0  0  0  0  0
    4.4536   -1.4252    4.9764 N   0  0  0  0  0  0  0  0  0  0  0  0
    5.2801   -2.5470    5.4984 C   0  0  0  0  0  0  0  0  0  0  0  0
    3.2165   -0.0856    3.0001 C   0  0  1  0  0  0  0  0  0  0  0  0
    1.6031   -0.1485    2.1451 S   0  0  0  0  0  0  0  0  0  0  0  0
    1.0273    1.2394    3.0740 C   0  0  0  0  0  0  0  0  0  0  0  0
   -0.1288    1.5387    3.4462 N   0  0  0  0  0  0  0  0  0  0  0  0
    0.0465    2.4591    4.4840 C   0  0  0  0  0  0  0  0  0  0  0  0
   -0.8986    3.1335    5.1755 C   0  0  0  0  0  0  0  0  0  0  0  0
   -0.2011    4.2902    6.6305 Br  0  0  0  0  0  0  0  0  0  0  0  0
   -2.3446    3.0847    4.9104 C   0  0  0  0  0  0  0  0  0  0  0  0
   -2.8765    2.7731    3.5156 C   0  0  0  0  0  0  0  0  0  0  0  0
   -3.1587    3.3326    5.7988 O   0  0  0  0  0  0  0  0  0  0  0  0
    1.3861    2.5725    4.7644 O   0  0  0  0  0  0  0  0  0  0  0  0
    2.0793    2.0552    3.6886 C   0  0  2  0  0  0  0  0  0  0  0  0
    2.4469    3.0494    2.7742 O   0  0  0  0  0  0  0  0  0  0  0  0
    2.9426    4.2577    3.3329 C   0  0  0  0  0  0  0  0  0  0  0  0
    3.2895    1.1105    3.9784 C   0  0  1  0  0  0  0  0  0  0  0  0
    5.8803    1.4909    9.0198 H   0  0  0  0  0  0  0  0  0  0  0  0
    5.6893    0.1682    7.9189 H   0  0  0  0  0  0  0  0  0  0  0  0
    4.4132    0.5159    9.0680 H   0  0  0  0  0  0  0  0  0  0  0  0
    4.4597    3.0016    7.9245 H   0  0  0  0  0  0  0  0  0  0  0  0
    3.4681    2.7988    5.9015 H   0  0  0  0  0  0  0  0  0  0  0  0
    2.6520   -0.1919    7.1947 H   0  0  0  0  0  0  0  0  0  0  0  0
    1.5129    0.4202    6.0860 H   0  0  0  0  0  0  0  0  0  0  0  0
    1.8135   -2.2278    6.8144 H   0  0  0  0  0  0  0  0  0  0  0  0
   -0.0753   -2.3196    5.2732 H   0  0  0  0  0  0  0  0  0  0  0  0
    0.5943   -0.9963    4.2850 H   0  0  0  0  0  0  0  0  0  0  0  0
    2.3346   -4.7773    5.0511 H   0  0  0  0  0  0  0  0  0  0  0  0
    0.6305   -4.3530    4.8693 H   0  0  0  0  0  0  0  0  0  0  0  0
    2.3416   -5.3146    2.8000 H   0  0  0  0  0  0  0  0  0  0  0  0
    0.7853   -4.5439    2.5187 H   0  0  0  0  0  0  0  0  0  0  0  0
    3.6797   -2.6293    0.8215 H   0  0  0  0  0  0  0  0  0  0  0  0
    2.6522   -4.0064    0.4570 H   0  0  0  0  0  0  0  0  0  0  0  0
    4.0616   -4.2180    1.5065 H   0  0  0  0  0  0  0  0  0  0  0  0
    3.8392   -3.4834    3.7685 H   0  0  0  0  0  0  0  0  0  0  0  0
    6.7988    0.3082    3.8706 H   0  0  0  0  0  0  0  0  0  0  0  0
    5.6845   -0.2109    6.0556 H   0  0  0  0  0  0  0  0  0  0  0  0
    5.5624   -2.3368    6.5327 H   0  0  0  0  0  0  0  0  0  0  0  0
    6.2005   -2.7050    4.9389 H   0  0  0  0  0  0  0  0  0  0  0  0
    4.7328   -3.4874    5.5498 H   0  0  0  0  0  0  0  0  0  0  0  0
    3.7802    0.2803    2.1326 H   0  0  0  0  0  0  0  0  0  0  0  0
   -2.5989    1.7621    3.2299 H   0  0  0  0  0  0  0  0  0  0  0  0
   -2.4488    3.4598    2.7902 H   0  0  0  0  0  0  0  0  0  0  0  0
   -3.9620    2.8610    3.4752 H   0  0  0  0  0  0  0  0  0  0  0  0
    3.1896    4.9356    2.5162 H   0  0  0  0  0  0  0  0  0  0  0  0
    3.8405    4.0764    3.9213 H   0  0  0  0  0  0  0  0  0  0  0  0
    2.2046    4.7571    3.9657 H   0  0  0  0  0  0  0  0  0  0  0  0
    4.1426    1.7230    3.6908 H   0  0  0  0  0  0  0  0  0  0  0  0
  1  2  1  0
  1 37  1  0
  1 38  1  0
  1 39  1  0
  2  3  2  3
  2 40  1  0
  3  4  1  0
  3 41  1  0
  4 19  1  0
  4 36  1  0
  4  5  1  1
  5  6  1  0
  5 42  1  0
  5 43  1  0
  6  8  1  0
  6  7  1  0
  6 44  1  1
  8  7  1  6
  7 45  1  0
  7 46  1  0
  8 13  1  0
  8  9  1  0
  9 10  1  0
  9 47  1  0
  9 48  1  0
 10 11  1  0
 10 49  1  0
 10 50  1  0
 11 12  1  0
 11 13  1  0
 12 51  1  0
 12 52  1  0
 12 53  1  0
 13 14  1  0
 13 54  1  1
 14 20  1  0
 14 15  1  6
 14 22  1  0
 15 16  1  0
 15 18  2  0
 16 17  3  0
 18 19  1  0
 18 55  1  0
 19 20  1  0
 19 56  1  1
 20 21  1  0
 21 57  1  0
 21 58  1  0
 21 59  1  0
 22 36  1  0
 22 23  1  0
 22 60  1  6
 23 24  1  0
 24 33  1  0
 24 25  2  0
 25 26  1  0
 26 27  2  3
 26 32  1  0
 27 28  1  0
 27 29  1  0
 29 30  1  0
 29 31  2  0
 30 61  1  0
 30 62  1  0
 30 63  1  0
 32 33  1  0
 33 34  1  6
 33 36  1  0
 34 35  1  0
 35 64  1  0
 35 65  1  0
 35 66  1  0
 36 67  1  6
M  END
>  <i_m_ct_stereo_status>  (19) 
1

>  <s_m_source_file>  (19) 
/var/tmp/pbs.5076255.sched01/tmpkni74bsw/0nq93mkxh.sdf

>  <i_m_source_file_index>  (19) 
7

>  <i_lp_mmshare_version>  (19) 
48012

>  <i_f3d_flags>  (19) 
0

>  <s_epik_input>  (19) 
W0NIM10vW0NIXT1bQ0hdL1tDQF0xKFtDSDJdW0NASF0oW0NAXTIzNClbQ0gyXTIpW0NAQEhdNVtDSF09QyhDI04pW0NAXShONVtDSDNdKShbQ0BASF00TihbQ0gzXSlbQ0gyXVtDSDJdMylbQ0BASF02W0NASF0xW0NAQF03KE9bQ0gzXSlDKFM2KT1OL0MoTzcpPUMoL0JyKUMoPU8pW0NIM10=

>  <s_epik_cmdline>  (19) 
J2VwaWtfcHl0aG9uJywgJy1waHQnLCAnMi4wJywgJy1waCcsICc3LjAnLCAnLXRuJywgJzgnLCAnLW1hJywgJzIwMCcsICctaW1hZScsICc8aW5maWxlLm1hZT4nLCAnLW9tYWUnLCAnPG91dGZpbGUubWFlPic=

>  <r_epik_Ionization_Penalty>  (19) 
0.166683

>  <r_epik_Ionization_Penalty_Charging>  (19) 
0

>  <r_epik_Ionization_Penalty_Neutral>  (19) 
0.166683

>  <r_epik_State_Penalty>  (19) 
0.156033

>  <r_epik_Charging_Adjusted_Penalty>  (19) 
0.156033

>  <i_epik_Tot_Q>  (19) 
0

>  <i_epik_Tot_abs_Q>  (19) 
0

>  <s_epik_Chemistry_Notes>  (19) 
This compound has an imine and may undergo hydrolysis.

>  <s_lp_Force_Field>  (19) 
OPLS3e

>  <r_lp_Energy>  (19) 
153.095

>  <b_lp_Chiralities_Consistent>  (19) 
1

>  <s_lp_Variant>  (19) 
5:0-2

>  <s_i_glide_gridfile>  (19) 
pfpi4k_grid

>  <i_i_glide_lignum>  (19) 
7

>  <i_i_glide_rotatable_bonds>  (19) 
4

>  <r_i_docking_score>  (19) 
-1.72891

>  <r_i_glide_ligand_efficiency>  (19) 
-0.0480252

>  <r_i_glide_ligand_efficiency_sa>  (19) 
-0.158576

>  <r_i_glide_ligand_efficiency_ln>  (19) 
-0.377201

>  <r_i_glide_gscore>  (19) 
-1.72891

>  <r_i_glide_lipo>  (19) 
-0.273512

>  <r_i_glide_hbond>  (19) 
0

>  <r_i_glide_metal>  (19) 
-0

>  <r_i_glide_rewards>  (19) 
-0.211949

>  <r_i_glide_evdw>  (19) 
-25.5463

>  <r_i_glide_ecoul>  (19) 
0.37784

>  <r_i_glide_erotb>  (19) 
0.0363478

>  <r_i_glide_esite>  (19) 
-0.0591533

>  <r_i_glide_emodel>  (19) 
-25.942

>  <r_i_glide_energy>  (19) 
-25.1685

>  <r_i_glide_einternal>  (19) 
2.80382

>  <r_i_glide_intrahb_reward>  (19) 
-0

>  <i_i_glide_confnum>  (19) 
3

>  <i_i_glide_posenum>  (19) 
12

>  <r_i_glide_eff_state_penalty>  (19) 
0

>  <ligand_id>  (19) 
5

>  <original_smiles>  (19) 
CC=CC12CC3CC34CCN(C)C4C3(C(C#N)=CC1N3C)C1SC3=NC(=C(Br)C(C)=O)OC3(OC)C12

>  <smiles>  (19) 
[H]C(=C([H])C12C3([H])C([H])=C(C#N)C(N3C([H])([H])[H])(C3([H])SC4=NC(=C(Br)C(=O)C([H])([H])[H])OC4(OC([H])([H])[H])C31[H])C1([H])N(C([H])([H])[H])C([H])([H])C([H])([H])C13C([H])([H])C3([H])C2([H])[H])C([H])([H])[H]

$$$$
5:2:0
     RDKit          3D

 67 73  0  0  1  0  0  0  0  0999 V2000
    6.1740   -3.1174    6.5735 C   0  0  0  0  0  0  0  0  0  0  0  0
    5.3509   -4.3556    6.2905 C   0  0  0  0  0  0  0  0  0  0  0  0
    4.6037   -4.5151    5.1860 C   0  0  0  0  0  0  0  0  0  0  0  0
    3.7403   -5.7167    4.8183 C   0  0  2  0  0  0  0  0  0  0  0  0
    2.2866   -5.1281    4.3507 C   0  0  0  0  0  0  0  0  0  0  0  0
    0.9183   -5.9121    4.1289 C   0  0  1  0  0  0  0  0  0  0  0  0
    0.6821   -6.3765    2.7238 C   0  0  0  0  0  0  0  0  0  0  0  0
    0.5255   -7.4156    3.8097 C   0  0  2  0  0  0  0  0  0  0  0  0
   -0.8112   -8.1133    3.6600 C   0  0  0  0  0  0  0  0  0  0  0  0
   -0.4449   -9.4852    3.0529 C   0  0  0  0  0  0  0  0  0  0  0  0
    1.0140   -9.6128    3.1045 N   0  0  0  0  0  0  0  0  0  0  0  0
    1.4717  -10.9720    3.3069 C   0  0  0  0  0  0  0  0  0  0  0  0
    1.3381   -8.6959    4.1548 C   0  0  1  0  0  0  0  0  0  0  0  0
    2.7727   -8.3315    4.6068 C   0  0  2  0  0  0  0  0  0  0  0  0
    3.7773   -9.0347    5.4802 C   0  0  0  0  0  0  0  0  0  0  0  0
    4.0819  -10.4217    5.4442 C   0  0  0  0  0  0  0  0  0  0  0  0
    4.3928  -11.5402    5.3928 N   0  0  0  0  0  0  0  0  0  0  0  0
    4.4197   -8.0512    6.1640 C   0  0  0  0  0  0  0  0  0  0  0  0
    3.6410   -6.7214    6.0537 C   0  0  2  0  0  0  0  0  0  0  0  0
    2.4583   -7.3649    5.7267 N   0  0  0  0  0  0  0  0  0  0  0  0
    1.6929   -7.8242    6.9258 C   0  0  0  0  0  0  0  0  0  0  0  0
    3.7656   -7.8681    3.4348 C   0  0  1  0  0  0  0  0  0  0  0  0
    3.3415   -8.0221    1.6700 S   0  0  0  0  0  0  0  0  0  0  0  0
    3.9657   -6.4093    1.3018 C   0  0  0  0  0  0  0  0  0  0  0  0
    3.5289   -5.5512    0.4865 N   0  0  0  0  0  0  0  0  0  0  0  0
    3.9979   -4.3034    0.9601 C   0  0  0  0  0  0  0  0  0  0  0  0
    3.9842   -3.1115    0.2873 C   0  0  0  0  0  0  0  0  0  0  0  0
    3.2676   -3.1278   -1.5555 Br  0  0  0  0  0  0  0  0  0  0  0  0
    4.5560   -1.8911    0.8761 C   0  0  0  0  0  0  0  0  0  0  0  0
    4.2657   -0.5863    0.1478 C   0  0  0  0  0  0  0  0  0  0  0  0
    5.2531   -1.8419    1.8910 O   0  0  0  0  0  0  0  0  0  0  0  0
    4.5734   -4.4978    2.2102 O   0  0  0  0  0  0  0  0  0  0  0  0
    4.8463   -5.8492    2.3284 C   0  0  2  0  0  0  0  0  0  0  0  0
    6.2120   -6.1221    2.0850 O   0  0  0  0  0  0  0  0  0  0  0  0
    6.8462   -5.4750    0.9725 C   0  0  0  0  0  0  0  0  0  0  0  0
    4.4610   -6.5191    3.7091 C   0  0  1  0  0  0  0  0  0  0  0  0
    7.2263   -3.3905    6.6715 H   0  0  0  0  0  0  0  0  0  0  0  0
    5.8478   -2.6517    7.5065 H   0  0  0  0  0  0  0  0  0  0  0  0
    6.0763   -2.3888    5.7683 H   0  0  0  0  0  0  0  0  0  0  0  0
    5.4163   -5.1159    7.0502 H   0  0  0  0  0  0  0  0  0  0  0  0
    4.5823   -3.7034    4.4800 H   0  0  0  0  0  0  0  0  0  0  0  0
    2.0333   -4.3784    5.1000 H   0  0  0  0  0  0  0  0  0  0  0  0
    2.4408   -4.5374    3.4499 H   0  0  0  0  0  0  0  0  0  0  0  0
    0.0841   -5.3752    4.5815 H   0  0  0  0  0  0  0  0  0  0  0  0
   -0.2036   -5.9997    2.2433 H   0  0  0  0  0  0  0  0  0  0  0  0
    1.5227   -6.3572    2.0740 H   0  0  0  0  0  0  0  0  0  0  0  0
   -1.2556   -8.2336    4.6547 H   0  0  0  0  0  0  0  0  0  0  0  0
   -1.5235   -7.5534    3.0485 H   0  0  0  0  0  0  0  0  0  0  0  0
   -0.9312  -10.2564    3.6415 H   0  0  0  0  0  0  0  0  0  0  0  0
   -0.8029   -9.5761    2.0269 H   0  0  0  0  0  0  0  0  0  0  0  0
    2.5566  -11.0181    3.2608 H   0  0  0  0  0  0  0  0  0  0  0  0
    1.0797  -11.6259    2.5353 H   0  0  0  0  0  0  0  0  0  0  0  0
    1.1365  -11.3662    4.2635 H   0  0  0  0  0  0  0  0  0  0  0  0
    0.8852   -9.1412    5.0349 H   0  0  0  0  0  0  0  0  0  0  0  0
    5.2653   -8.2010    6.8230 H   0  0  0  0  0  0  0  0  0  0  0  0
    3.5471   -6.2327    7.0240 H   0  0  0  0  0  0  0  0  0  0  0  0
    1.6104   -7.0069    7.6519 H   0  0  0  0  0  0  0  0  0  0  0  0
    2.1475   -8.6740    7.4450 H   0  0  0  0  0  0  0  0  0  0  0  0
    0.6563   -8.0777    6.6858 H   0  0  0  0  0  0  0  0  0  0  0  0
    4.6028   -8.5715    3.4085 H   0  0  0  0  0  0  0  0  0  0  0  0
    3.1870   -0.4836    0.0421 H   0  0  0  0  0  0  0  0  0  0  0  0
    4.7148   -0.5789   -0.8444 H   0  0  0  0  0  0  0  0  0  0  0  0
    4.6398    0.2697    0.7093 H   0  0  0  0  0  0  0  0  0  0  0  0
    7.8697   -5.8105    0.8328 H   0  0  0  0  0  0  0  0  0  0  0  0
    6.8672   -4.3964    1.1486 H   0  0  0  0  0  0  0  0  0  0  0  0
    6.3187   -5.6522    0.0345 H   0  0  0  0  0  0  0  0  0  0  0  0
    5.4383   -6.7363    4.1425 H   0  0  0  0  0  0  0  0  0  0  0  0
  1  2  1  0
  1 37  1  0
  1 38  1  0
  1 39  1  0
  2  3  2  3
  2 40  1  0
  3  4  1  0
  3 41  1  0
  4 19  1  0
  4 36  1  0
  4  5  1  6
  5  6  1  0
  5 42  1  0
  5 43  1  0
  6  8  1  0
  6  7  1  0
  6 44  1  1
  8  7  1  6
  7 45  1  0
  7 46  1  0
  8 13  1  0
  8  9  1  0
  9 10  1  0
  9 47  1  0
  9 48  1  0
 10 11  1  0
 10 49  1  0
 10 50  1  0
 11 12  1  0
 11 13  1  0
 12 51  1  0
 12 52  1  0
 12 53  1  0
 13 14  1  0
 13 54  1  1
 14 20  1  0
 14 15  1  1
 14 22  1  0
 15 16  1  0
 15 18  2  0
 16 17  3  0
 18 19  1  0
 18 55  1  0
 19 20  1  0
 19 56  1  1
 20 21  1  0
 21 57  1  0
 21 58  1  0
 21 59  1  0
 22 36  1  0
 22 23  1  0
 22 60  1  6
 23 24  1  0
 24 33  1  0
 24 25  2  0
 25 26  1  0
 26 27  2  3
 26 32  1  0
 27 28  1  0
 27 29  1  0
 29 30  1  0
 29 31  2  0
 30 61  1  0
 30 62  1  0
 30 63  1  0
 32 33  1  0
 33 34  1  6
 33 36  1  0
 34 35  1  0
 35 64  1  0
 35 65  1  0
 35 66  1  0
 36 67  1  1
M  END
>  <i_m_ct_stereo_status>  (20) 
1

>  <s_m_source_file>  (20) 
/var/tmp/pbs.5076255.sched01/tmpkni74bsw/0nq93mkxh.sdf

>  <i_m_source_file_index>  (20) 
8

>  <i_lp_mmshare_version>  (20) 
48012

>  <i_f3d_flags>  (20) 
0

>  <s_epik_input>  (20) 
W0NIM10vW0NIXT1bQ0hdL1tDQF0xKFtDSDJdW0NASF0oW0NAXTIzNClbQ0gyXTIpW0NAQEhdNVtDSF09QyhDI04pW0NAXShONVtDSDNdKShbQ0BASF00TihbQ0gzXSlbQ0gyXVtDSDJdMylbQ0BASF02W0NASF0xW0NAQF03KE9bQ0gzXSlDKFM2KT1OL0MoTzcpPUMoL0JyKUMoPU8pW0NIM10=

>  <s_epik_cmdline>  (20) 
J2VwaWtfcHl0aG9uJywgJy1waHQnLCAnMi4wJywgJy1waCcsICc3LjAnLCAnLXRuJywgJzgnLCAnLW1hJywgJzIwMCcsICctaW1hZScsICc8aW5maWxlLm1hZT4nLCAnLW9tYWUnLCAnPG91dGZpbGUubWFlPic=

>  <r_epik_Ionization_Penalty>  (20) 
0.166683

>  <r_epik_Ionization_Penalty_Charging>  (20) 
0

>  <r_epik_Ionization_Penalty_Neutral>  (20) 
0.166683

>  <r_epik_State_Penalty>  (20) 
0.156033

>  <r_epik_Charging_Adjusted_Penalty>  (20) 
0.156033

>  <i_epik_Tot_Q>  (20) 
0

>  <i_epik_Tot_abs_Q>  (20) 
0

>  <s_epik_Chemistry_Notes>  (20) 
This compound has an imine and may undergo hydrolysis.

>  <s_lp_Force_Field>  (20) 
OPLS3e

>  <r_lp_Energy>  (20) 
149.699

>  <b_lp_Chiralities_Consistent>  (20) 
1

>  <s_lp_Variant>  (20) 
5:0-3

>  <s_i_glide_gridfile>  (20) 
pfpi4k_grid

>  <i_i_glide_lignum>  (20) 
8

>  <i_i_glide_rotatable_bonds>  (20) 
4

>  <r_i_docking_score>  (20) 
-1.67224

>  <r_i_glide_ligand_efficiency>  (20) 
-0.0464511

>  <r_i_glide_ligand_efficiency_sa>  (20) 
-0.153378

>  <r_i_glide_ligand_efficiency_ln>  (20) 
-0.364838

>  <r_i_glide_gscore>  (20) 
-1.67224

>  <r_i_glide_lipo>  (20) 
-0.394889

>  <r_i_glide_hbond>  (20) 
0

>  <r_i_glide_metal>  (20) 
-0

>  <r_i_glide_rewards>  (20) 
-0.105665

>  <r_i_glide_evdw>  (20) 
-27.9752

>  <r_i_glide_ecoul>  (20) 
1.38786

>  <r_i_glide_erotb>  (20) 
0.0363478

>  <r_i_glide_esite>  (20) 
-0.0174543

>  <r_i_glide_emodel>  (20) 
-26.5779

>  <r_i_glide_energy>  (20) 
-26.5874

>  <r_i_glide_einternal>  (20) 
4.53667

>  <r_i_glide_intrahb_reward>  (20) 
-0

>  <i_i_glide_confnum>  (20) 
2

>  <i_i_glide_posenum>  (20) 
35

>  <r_i_glide_eff_state_penalty>  (20) 
0

>  <ligand_id>  (20) 
5

>  <original_smiles>  (20) 
CC=CC12CC3CC34CCN(C)C4C3(C(C#N)=CC1N3C)C1SC3=NC(=C(Br)C(C)=O)OC3(OC)C12

>  <smiles>  (20) 
[H]C(=C([H])C12C3([H])C([H])=C(C#N)C(N3C([H])([H])[H])(C3([H])SC4=NC(=C(Br)C(=O)C([H])([H])[H])OC4(OC([H])([H])[H])C31[H])C1([H])N(C([H])([H])[H])C([H])([H])C([H])([H])C13C([H])([H])C3([H])C2([H])[H])C([H])([H])[H]

$$$$
5:2:1
     RDKit          3D

 67 73  0  0  1  0  0  0  0  0999 V2000
    6.6951   -3.6743    6.6961 C   0  0  0  0  0  0  0  0  0  0  0  0
    6.0124   -4.9932    6.4063 C   0  0  0  0  0  0  0  0  0  0  0  0
    5.1883   -5.1972    5.3631 C   0  0  0  0  0  0  0  0  0  0  0  0
    4.4512   -6.4854    4.9914 C   0  0  2  0  0  0  0  0  0  0  0  0
    2.8866   -6.0736    4.7613 C   0  0  0  0  0  0  0  0  0  0  0  0
    1.6078   -7.0340    4.6472 C   0  0  1  0  0  0  0  0  0  0  0  0
    1.2515   -7.4194    3.2459 C   0  0  0  0  0  0  0  0  0  0  0  0
    1.3884   -8.5545    4.2293 C   0  0  2  0  0  0  0  0  0  0  0  0
    0.1471   -9.4217    4.2043 C   0  0  0  0  0  0  0  0  0  0  0  0
    0.6118  -10.6824    3.4320 C   0  0  0  0  0  0  0  0  0  0  0  0
    2.0689  -10.5857    3.2802 N   0  0  0  0  0  0  0  0  0  0  0  0
    2.7341  -11.8721    3.2832 C   0  0  0  0  0  0  0  0  0  0  0  0
    2.4230   -9.7116    4.3690 C   0  0  1  0  0  0  0  0  0  0  0  0
    3.8389   -9.1744    4.6735 C   0  0  2  0  0  0  0  0  0  0  0  0
    5.0341   -9.7977    5.3469 C   0  0  0  0  0  0  0  0  0  0  0  0
    5.5167  -11.1221    5.1362 C   0  0  0  0  0  0  0  0  0  0  0  0
    5.9571  -12.1791    4.9644 N   0  0  0  0  0  0  0  0  0  0  0  0
    5.6286   -8.7884    6.0237 C   0  0  0  0  0  0  0  0  0  0  0  0
    4.6657   -7.5827    6.1367 C   0  0  2  0  0  0  0  0  0  0  0  0
    3.5404   -8.3637    5.9051 N   0  0  0  0  0  0  0  0  0  0  0  0
    3.0124   -9.0096    7.1425 C   0  0  0  0  0  0  0  0  0  0  0  0
    4.5799   -8.4931    3.4153 C   0  0  1  0  0  0  0  0  0  0  0  0
    3.9550   -8.5903    1.6917 S   0  0  0  0  0  0  0  0  0  0  0  0
    4.2739   -6.8661    1.4346 C   0  0  0  0  0  0  0  0  0  0  0  0
    3.6663   -6.0275    0.7261 N   0  0  0  0  0  0  0  0  0  0  0  0
    4.0156   -4.7741    1.2515 C   0  0  0  0  0  0  0  0  0  0  0  0
    3.7466   -3.5543    0.7220 C   0  0  0  0  0  0  0  0  0  0  0  0
    2.7881   -3.4839   -1.0131 Br  0  0  0  0  0  0  0  0  0  0  0  0
    4.2141   -2.2956    1.3408 C   0  0  0  0  0  0  0  0  0  0  0  0
    3.8198   -0.9916    0.6516 C   0  0  0  0  0  0  0  0  0  0  0  0
    4.8977   -2.2256    2.3591 O   0  0  0  0  0  0  0  0  0  0  0  0
    4.7583   -4.9636    2.4034 O   0  0  0  0  0  0  0  0  0  0  0  0
    5.2236   -6.2638    2.3903 C   0  0  2  0  0  0  0  0  0  0  0  0
    6.5607   -6.3357    1.9375 O   0  0  0  0  0  0  0  0  0  0  0  0
    6.9407   -5.5010    0.8409 C   0  0  0  0  0  0  0  0  0  0  0  0
    5.1228   -7.0803    3.7266 C   0  0  1  0  0  0  0  0  0  0  0  0
    7.7764   -3.8201    6.6941 H   0  0  0  0  0  0  0  0  0  0  0  0
    6.3975   -3.3019    7.6790 H   0  0  0  0  0  0  0  0  0  0  0  0
    6.4389   -2.9245    5.9458 H   0  0  0  0  0  0  0  0  0  0  0  0
    6.2440   -5.7741    7.1127 H   0  0  0  0  0  0  0  0  0  0  0  0
    5.0057   -4.3585    4.7097 H   0  0  0  0  0  0  0  0  0  0  0  0
    2.6392   -5.4236    5.6013 H   0  0  0  0  0  0  0  0  0  0  0  0
    2.8408   -5.4034    3.9050 H   0  0  0  0  0  0  0  0  0  0  0  0
    0.7883   -6.6543    5.2534 H   0  0  0  0  0  0  0  0  0  0  0  0
    0.2546   -7.1346    2.9236 H   0  0  0  0  0  0  0  0  0  0  0  0
    1.9792   -7.2349    2.4886 H   0  0  0  0  0  0  0  0  0  0  0  0
   -0.1323   -9.6744    5.2301 H   0  0  0  0  0  0  0  0  0  0  0  0
   -0.7080   -8.9317    3.7372 H   0  0  0  0  0  0  0  0  0  0  0  0
    0.3213  -11.5707    3.9977 H   0  0  0  0  0  0  0  0  0  0  0  0
    0.1362  -10.7415    2.4526 H   0  0  0  0  0  0  0  0  0  0  0  0
    3.8018  -11.7511    3.1161 H   0  0  0  0  0  0  0  0  0  0  0  0
    2.3518  -12.5004    2.4797 H   0  0  0  0  0  0  0  0  0  0  0  0
    2.5826  -12.3889    4.2313 H   0  0  0  0  0  0  0  0  0  0  0  0
    2.1481  -10.2901    5.2497 H   0  0  0  0  0  0  0  0  0  0  0  0
    6.5661   -8.8500    6.5586 H   0  0  0  0  0  0  0  0  0  0  0  0
    4.6323   -7.1797    7.1489 H   0  0  0  0  0  0  0  0  0  0  0  0
    2.9231   -8.2667    7.9398 H   0  0  0  0  0  0  0  0  0  0  0  0
    3.6445   -9.8178    7.5210 H   0  0  0  0  0  0  0  0  0  0  0  0
    2.0006   -9.3940    7.0096 H   0  0  0  0  0  0  0  0  0  0  0  0
    5.4959   -9.0663    3.2290 H   0  0  0  0  0  0  0  0  0  0  0  0
    2.7390   -0.9595    0.5281 H   0  0  0  0  0  0  0  0  0  0  0  0
    4.2788   -0.9191   -0.3334 H   0  0  0  0  0  0  0  0  0  0  0  0
    4.1269   -0.1313    1.2452 H   0  0  0  0  0  0  0  0  0  0  0  0
    7.9747   -5.6793    0.5432 H   0  0  0  0  0  0  0  0  0  0  0  0
    6.8515   -4.4520    1.1216 H   0  0  0  0  0  0  0  0  0  0  0  0
    6.3180   -5.6714   -0.0366 H   0  0  0  0  0  0  0  0  0  0  0  0
    6.1668   -7.1929    4.0232 H   0  0  0  0  0  0  0  0  0  0  0  0
  1  2  1  0
  1 37  1  0
  1 38  1  0
  1 39  1  0
  2  3  2  3
  2 40  1  0
  3  4  1  0
  3 41  1  0
  4 19  1  0
  4 36  1  0
  4  5  1  6
  5  6  1  0
  5 42  1  0
  5 43  1  0
  6  8  1  0
  6  7  1  0
  6 44  1  1
  8  7  1  6
  7 45  1  0
  7 46  1  0
  8 13  1  0
  8  9  1  0
  9 10  1  0
  9 47  1  0
  9 48  1  0
 10 11  1  0
 10 49  1  0
 10 50  1  0
 11 12  1  0
 11 13  1  0
 12 51  1  0
 12 52  1  0
 12 53  1  0
 13 14  1  0
 13 54  1  1
 14 20  1  0
 14 15  1  1
 14 22  1  0
 15 16  1  0
 15 18  2  0
 16 17  3  0
 18 19  1  0
 18 55  1  0
 19 20  1  0
 19 56  1  1
 20 21  1  0
 21 57  1  0
 21 58  1  0
 21 59  1  0
 22 36  1  0
 22 23  1  0
 22 60  1  6
 23 24  1  0
 24 33  1  0
 24 25  2  0
 25 26  1  0
 26 27  2  3
 26 32  1  0
 27 28  1  0
 27 29  1  0
 29 30  1  0
 29 31  2  0
 30 61  1  0
 30 62  1  0
 30 63  1  0
 32 33  1  0
 33 34  1  6
 33 36  1  0
 34 35  1  0
 35 64  1  0
 35 65  1  0
 35 66  1  0
 36 67  1  1
M  END
>  <i_m_ct_stereo_status>  (21) 
1

>  <s_m_source_file>  (21) 
/var/tmp/pbs.5076255.sched01/tmpkni74bsw/0nq93mkxh.sdf

>  <i_m_source_file_index>  (21) 
8

>  <i_lp_mmshare_version>  (21) 
48012

>  <i_f3d_flags>  (21) 
0

>  <s_epik_input>  (21) 
W0NIM10vW0NIXT1bQ0hdL1tDQF0xKFtDSDJdW0NASF0oW0NAXTIzNClbQ0gyXTIpW0NAQEhdNVtDSF09QyhDI04pW0NAXShONVtDSDNdKShbQ0BASF00TihbQ0gzXSlbQ0gyXVtDSDJdMylbQ0BASF02W0NASF0xW0NAQF03KE9bQ0gzXSlDKFM2KT1OL0MoTzcpPUMoL0JyKUMoPU8pW0NIM10=

>  <s_epik_cmdline>  (21) 
J2VwaWtfcHl0aG9uJywgJy1waHQnLCAnMi4wJywgJy1waCcsICc3LjAnLCAnLXRuJywgJzgnLCAnLW1hJywgJzIwMCcsICctaW1hZScsICc8aW5maWxlLm1hZT4nLCAnLW9tYWUnLCAnPG91dGZpbGUubWFlPic=

>  <r_epik_Ionization_Penalty>  (21) 
0.166683

>  <r_epik_Ionization_Penalty_Charging>  (21) 
0

>  <r_epik_Ionization_Penalty_Neutral>  (21) 
0.166683

>  <r_epik_State_Penalty>  (21) 
0.156033

>  <r_epik_Charging_Adjusted_Penalty>  (21) 
0.156033

>  <i_epik_Tot_Q>  (21) 
0

>  <i_epik_Tot_abs_Q>  (21) 
0

>  <s_epik_Chemistry_Notes>  (21) 
This compound has an imine and may undergo hydrolysis.

>  <s_lp_Force_Field>  (21) 
OPLS3e

>  <r_lp_Energy>  (21) 
149.699

>  <b_lp_Chiralities_Consistent>  (21) 
1

>  <s_lp_Variant>  (21) 
5:0-3

>  <s_i_glide_gridfile>  (21) 
pfpi4k_grid

>  <i_i_glide_lignum>  (21) 
8

>  <i_i_glide_rotatable_bonds>  (21) 
4

>  <r_i_docking_score>  (21) 
-1.63589

>  <r_i_glide_ligand_efficiency>  (21) 
-0.0454414

>  <r_i_glide_ligand_efficiency_sa>  (21) 
-0.150044

>  <r_i_glide_ligand_efficiency_ln>  (21) 
-0.356907

>  <r_i_glide_gscore>  (21) 
-1.63589

>  <r_i_glide_lipo>  (21) 
-0.179755

>  <r_i_glide_hbond>  (21) 
0

>  <r_i_glide_metal>  (21) 
-0

>  <r_i_glide_rewards>  (21) 
-0.106292

>  <r_i_glide_evdw>  (21) 
-26.0599

>  <r_i_glide_ecoul>  (21) 
-0.523909

>  <r_i_glide_erotb>  (21) 
0.0363478

>  <r_i_glide_esite>  (21) 
-0.00460939

>  <r_i_glide_emodel>  (21) 
-26.8951

>  <r_i_glide_energy>  (21) 
-26.5838

>  <r_i_glide_einternal>  (21) 
4.16441

>  <r_i_glide_intrahb_reward>  (21) 
-0

>  <i_i_glide_confnum>  (21) 
4

>  <i_i_glide_posenum>  (21) 
38

>  <r_i_glide_eff_state_penalty>  (21) 
0

>  <ligand_id>  (21) 
5

>  <original_smiles>  (21) 
CC=CC12CC3CC34CCN(C)C4C3(C(C#N)=CC1N3C)C1SC3=NC(=C(Br)C(C)=O)OC3(OC)C12

>  <smiles>  (21) 
[H]C(=C([H])C12C3([H])C([H])=C(C#N)C(N3C([H])([H])[H])(C3([H])SC4=NC(=C(Br)C(=O)C([H])([H])[H])OC4(OC([H])([H])[H])C31[H])C1([H])N(C([H])([H])[H])C([H])([H])C([H])([H])C13C([H])([H])C3([H])C2([H])[H])C([H])([H])[H]

$$$$
5:2:2
     RDKit          3D

 67 73  0  0  1  0  0  0  0  0999 V2000
    5.7507   -3.5067    6.8584 C   0  0  0  0  0  0  0  0  0  0  0  0
    4.8964   -4.6982    6.4894 C   0  0  0  0  0  0  0  0  0  0  0  0
    4.2067   -4.7967    5.3399 C   0  0  0  0  0  0  0  0  0  0  0  0
    3.3194   -5.9543    4.8837 C   0  0  2  0  0  0  0  0  0  0  0  0
    1.9302   -5.2855    4.3373 C   0  0  0  0  0  0  0  0  0  0  0  0
    0.5380   -6.0049    4.0065 C   0  0  1  0  0  0  0  0  0  0  0  0
    0.3880   -6.4269    2.5768 C   0  0  0  0  0  0  0  0  0  0  0  0
    0.1160   -7.4883    3.6117 C   0  0  2  0  0  0  0  0  0  0  0  0
   -1.2432   -8.1113    3.3762 C   0  0  0  0  0  0  0  0  0  0  0  0
   -0.8906   -9.4821    2.7445 C   0  0  0  0  0  0  0  0  0  0  0  0
    0.5605   -9.6682    2.8796 N   0  0  0  0  0  0  0  0  0  0  0  0
    0.9447  -11.0549    3.0612 C   0  0  0  0  0  0  0  0  0  0  0  0
    0.8695   -8.7996    3.9897 C   0  0  1  0  0  0  0  0  0  0  0  0
    2.2782   -8.5070    4.5513 C   0  0  2  0  0  0  0  0  0  0  0  0
    3.1870   -9.2920    5.4586 C   0  0  0  0  0  0  0  0  0  0  0  0
    3.4493  -10.6896    5.3729 C   0  0  0  0  0  0  0  0  0  0  0  0
    3.7229  -11.8112    5.2747 N   0  0  0  0  0  0  0  0  0  0  0  0
    3.8303   -8.3610    6.1975 C   0  0  0  0  0  0  0  0  0  0  0  0
    3.1091   -6.9930    6.0853 C   0  0  2  0  0  0  0  0  0  0  0  0
    1.9169   -7.5707    5.6680 N   0  0  0  0  0  0  0  0  0  0  0  0
    1.0618   -8.0275    6.7984 C   0  0  0  0  0  0  0  0  0  0  0  0
    3.3579   -8.0559    3.4493 C   0  0  1  0  0  0  0  0  0  0  0  0
    3.0482   -8.1545    1.6593 S   0  0  0  0  0  0  0  0  0  0  0  0
    3.7563   -6.5457    1.3905 C   0  0  0  0  0  0  0  0  0  0  0  0
    3.5109   -5.6762    0.5172 N   0  0  0  0  0  0  0  0  0  0  0  0
    3.9981   -4.4760    1.0501 C   0  0  0  0  0  0  0  0  0  0  0  0
    4.0245   -3.2668    0.4407 C   0  0  0  0  0  0  0  0  0  0  0  0
    3.3674   -3.1736   -1.4366 Br  0  0  0  0  0  0  0  0  0  0  0  0
    4.5616   -2.0557    1.1035 C   0  0  0  0  0  0  0  0  0  0  0  0
    4.4165   -0.7275    0.3657 C   0  0  0  0  0  0  0  0  0  0  0  0
    5.1172   -2.0503    2.1981 O   0  0  0  0  0  0  0  0  0  0  0  0
    4.4398   -4.7073    2.3360 O   0  0  0  0  0  0  0  0  0  0  0  0
    4.6044   -6.0695    2.4888 C   0  0  2  0  0  0  0  0  0  0  0  0
    5.9203   -6.4699    2.2304 O   0  0  0  0  0  0  0  0  0  0  0  0
    6.9333   -5.6893    2.8490 C   0  0  0  0  0  0  0  0  0  0  0  0
    4.0941   -6.7505    3.8063 C   0  0  1  0  0  0  0  0  0  0  0  0
    6.7815   -3.8296    7.0112 H   0  0  0  0  0  0  0  0  0  0  0  0
    5.3861   -3.0563    7.7837 H   0  0  0  0  0  0  0  0  0  0  0  0
    5.7363   -2.7514    6.0709 H   0  0  0  0  0  0  0  0  0  0  0  0
    4.8800   -5.4861    7.2266 H   0  0  0  0  0  0  0  0  0  0  0  0
    4.2653   -3.9672    4.6509 H   0  0  0  0  0  0  0  0  0  0  0  0
    1.6578   -4.5434    5.0885 H   0  0  0  0  0  0  0  0  0  0  0  0
    2.1711   -4.6825    3.4638 H   0  0  0  0  0  0  0  0  0  0  0  0
   -0.2917   -5.4514    4.4366 H   0  0  0  0  0  0  0  0  0  0  0  0
   -0.4558   -6.0298    2.0289 H   0  0  0  0  0  0  0  0  0  0  0  0
    1.2688   -6.4231    1.9784 H   0  0  0  0  0  0  0  0  0  0  0  0
   -1.7477   -8.2476    4.3350 H   0  0  0  0  0  0  0  0  0  0  0  0
   -1.8931   -7.5129    2.7383 H   0  0  0  0  0  0  0  0  0  0  0  0
   -1.4372  -10.2531    3.2727 H   0  0  0  0  0  0  0  0  0  0  0  0
   -1.1848   -9.5297    1.6961 H   0  0  0  0  0  0  0  0  0  0  0  0
    2.0304  -11.1482    3.0868 H   0  0  0  0  0  0  0  0  0  0  0  0
    0.5749  -11.6509    2.2323 H   0  0  0  0  0  0  0  0  0  0  0  0
    0.5311  -11.4729    3.9791 H   0  0  0  0  0  0  0  0  0  0  0  0
    0.3297   -9.2607    4.8183 H   0  0  0  0  0  0  0  0  0  0  0  0
    4.6315   -8.5508    6.8954 H   0  0  0  0  0  0  0  0  0  0  0  0
    2.9765   -6.5184    7.0580 H   0  0  0  0  0  0  0  0  0  0  0  0
    0.9722   -7.2270    7.5362 H   0  0  0  0  0  0  0  0  0  0  0  0
    1.4513   -8.9076    7.3149 H   0  0  0  0  0  0  0  0  0  0  0  0
    0.0400   -8.2307    6.4832 H   0  0  0  0  0  0  0  0  0  0  0  0
    4.1656   -8.7975    3.4504 H   0  0  0  0  0  0  0  0  0  0  0  0
    3.3677   -0.5525    0.1329 H   0  0  0  0  0  0  0  0  0  0  0  0
    4.9805   -0.7460   -0.5648 H   0  0  0  0  0  0  0  0  0  0  0  0
    4.7815    0.0950    0.9803 H   0  0  0  0  0  0  0  0  0  0  0  0
    7.9021   -6.1276    2.6091 H   0  0  0  0  0  0  0  0  0  0  0  0
    6.8316   -5.6696    3.9358 H   0  0  0  0  0  0  0  0  0  0  0  0
    6.9341   -4.6630    2.4740 H   0  0  0  0  0  0  0  0  0  0  0  0
    5.0157   -7.0375    4.3103 H   0  0  0  0  0  0  0  0  0  0  0  0
  1  2  1  0
  1 37  1  0
  1 38  1  0
  1 39  1  0
  2  3  2  3
  2 40  1  0
  3  4  1  0
  3 41  1  0
  4 19  1  0
  4 36  1  0
  4  5  1  6
  5  6  1  0
  5 42  1  0
  5 43  1  0
  6  8  1  0
  6  7  1  0
  6 44  1  1
  8  7  1  6
  7 45  1  0
  7 46  1  0
  8 13  1  0
  8  9  1  0
  9 10  1  0
  9 47  1  0
  9 48  1  0
 10 11  1  0
 10 49  1  0
 10 50  1  0
 11 12  1  0
 11 13  1  0
 12 51  1  0
 12 52  1  0
 12 53  1  0
 13 14  1  0
 13 54  1  1
 14 20  1  0
 14 15  1  1
 14 22  1  0
 15 16  1  0
 15 18  2  0
 16 17  3  0
 18 19  1  0
 18 55  1  0
 19 20  1  0
 19 56  1  1
 20 21  1  0
 21 57  1  0
 21 58  1  0
 21 59  1  0
 22 36  1  0
 22 23  1  0
 22 60  1  6
 23 24  1  0
 24 33  1  0
 24 25  2  0
 25 26  1  0
 26 27  2  3
 26 32  1  0
 27 28  1  0
 27 29  1  0
 29 30  1  0
 29 31  2  0
 30 61  1  0
 30 62  1  0
 30 63  1  0
 32 33  1  0
 33 34  1  6
 33 36  1  0
 34 35  1  0
 35 64  1  0
 35 65  1  0
 35 66  1  0
 36 67  1  1
M  END
>  <i_m_ct_stereo_status>  (22) 
1

>  <s_m_source_file>  (22) 
/var/tmp/pbs.5076255.sched01/tmpkni74bsw/0nq93mkxh.sdf

>  <i_m_source_file_index>  (22) 
8

>  <i_lp_mmshare_version>  (22) 
48012

>  <i_f3d_flags>  (22) 
0

>  <s_epik_input>  (22) 
W0NIM10vW0NIXT1bQ0hdL1tDQF0xKFtDSDJdW0NASF0oW0NAXTIzNClbQ0gyXTIpW0NAQEhdNVtDSF09QyhDI04pW0NAXShONVtDSDNdKShbQ0BASF00TihbQ0gzXSlbQ0gyXVtDSDJdMylbQ0BASF02W0NASF0xW0NAQF03KE9bQ0gzXSlDKFM2KT1OL0MoTzcpPUMoL0JyKUMoPU8pW0NIM10=

>  <s_epik_cmdline>  (22) 
J2VwaWtfcHl0aG9uJywgJy1waHQnLCAnMi4wJywgJy1waCcsICc3LjAnLCAnLXRuJywgJzgnLCAnLW1hJywgJzIwMCcsICctaW1hZScsICc8aW5maWxlLm1hZT4nLCAnLW9tYWUnLCAnPG91dGZpbGUubWFlPic=

>  <r_epik_Ionization_Penalty>  (22) 
0.166683

>  <r_epik_Ionization_Penalty_Charging>  (22) 
0

>  <r_epik_Ionization_Penalty_Neutral>  (22) 
0.166683

>  <r_epik_State_Penalty>  (22) 
0.156033

>  <r_epik_Charging_Adjusted_Penalty>  (22) 
0.156033

>  <i_epik_Tot_Q>  (22) 
0

>  <i_epik_Tot_abs_Q>  (22) 
0

>  <s_epik_Chemistry_Notes>  (22) 
This compound has an imine and may undergo hydrolysis.

>  <s_lp_Force_Field>  (22) 
OPLS3e

>  <r_lp_Energy>  (22) 
149.699

>  <b_lp_Chiralities_Consistent>  (22) 
1

>  <s_lp_Variant>  (22) 
5:0-3

>  <s_i_glide_gridfile>  (22) 
pfpi4k_grid

>  <i_i_glide_lignum>  (22) 
8

>  <i_i_glide_rotatable_bonds>  (22) 
4

>  <r_i_docking_score>  (22) 
-1.58159

>  <r_i_glide_ligand_efficiency>  (22) 
-0.043933

>  <r_i_glide_ligand_efficiency_sa>  (22) 
-0.145064

>  <r_i_glide_ligand_efficiency_ln>  (22) 
-0.34506

>  <r_i_glide_gscore>  (22) 
-1.58159

>  <r_i_glide_lipo>  (22) 
-0.360798

>  <r_i_glide_hbond>  (22) 
0

>  <r_i_glide_metal>  (22) 
-0

>  <r_i_glide_rewards>  (22) 
-0.105265

>  <r_i_glide_evdw>  (22) 
-28.2797

>  <r_i_glide_ecoul>  (22) 
2.00249

>  <r_i_glide_erotb>  (22) 
0.0363478

>  <r_i_glide_esite>  (22) 
-0.0382613

>  <r_i_glide_emodel>  (22) 
-27.9627

>  <r_i_glide_energy>  (22) 
-26.2773

>  <r_i_glide_einternal>  (22) 
1.67357

>  <r_i_glide_intrahb_reward>  (22) 
-0

>  <i_i_glide_confnum>  (22) 
4

>  <i_i_glide_posenum>  (22) 
26

>  <r_i_glide_eff_state_penalty>  (22) 
0

>  <ligand_id>  (22) 
5

>  <original_smiles>  (22) 
CC=CC12CC3CC34CCN(C)C4C3(C(C#N)=CC1N3C)C1SC3=NC(=C(Br)C(C)=O)OC3(OC)C12

>  <smiles>  (22) 
[H]C(=C([H])C12C3([H])C([H])=C(C#N)C(N3C([H])([H])[H])(C3([H])SC4=NC(=C(Br)C(=O)C([H])([H])[H])OC4(OC([H])([H])[H])C31[H])C1([H])N(C([H])([H])[H])C([H])([H])C([H])([H])C13C([H])([H])C3([H])C2([H])[H])C([H])([H])[H]

$$$$
5:3:0
     RDKit          3D

 67 73  0  0  1  0  0  0  0  0999 V2000
    5.2362   -2.0604    5.7927 C   0  0  0  0  0  0  0  0  0  0  0  0
    4.7594   -1.6919    4.4025 C   0  0  0  0  0  0  0  0  0  0  0  0
    4.2655   -2.4847    3.4252 C   0  0  0  0  0  0  0  0  0  0  0  0
    3.9605   -3.9837    3.3867 C   0  0  2  0  0  0  0  0  0  0  0  0
    2.5886   -4.1317    2.4897 C   0  0  0  0  0  0  0  0  0  0  0  0
    1.6202   -5.3828    2.3412 C   0  0  1  0  0  0  0  0  0  0  0  0
    1.8925   -6.2643    1.1569 C   0  0  0  0  0  0  0  0  0  0  0  0
    1.7751   -6.9548    2.4984 C   0  0  2  0  0  0  0  0  0  0  0  0
    0.7846   -8.0966    2.4039 C   0  0  0  0  0  0  0  0  0  0  0  0
    1.6796   -9.3573    2.3910 C   0  0  0  0  0  0  0  0  0  0  0  0
    3.0477   -8.9178    2.7094 N   0  0  0  0  0  0  0  0  0  0  0  0
    3.8136   -9.9140    3.4284 C   0  0  0  0  0  0  0  0  0  0  0  0
    2.7993   -7.6897    3.4062 C   0  0  1  0  0  0  0  0  0  0  0  0
    3.8769   -6.7237    3.9338 C   0  0  2  0  0  0  0  0  0  0  0  0
    4.7542   -6.7563    5.1541 C   0  0  0  0  0  0  0  0  0  0  0  0
    5.4362   -7.9119    5.6548 C   0  0  0  0  0  0  0  0  0  0  0  0
    6.0272   -8.8105    6.0800 N   0  0  0  0  0  0  0  0  0  0  0  0
    4.8734   -5.4907    5.5543 C   0  0  0  0  0  0  0  0  0  0  0  0
    3.8124   -4.5903    4.8572 C   0  0  2  0  0  0  0  0  0  0  0  0
    3.0023   -5.6680    4.5789 N   0  0  0  0  0  0  0  0  0  0  0  0
    2.0918   -6.0216    5.7111 C   0  0  0  0  0  0  0  0  0  0  0  0
    4.9819   -6.2625    2.8517 C   0  0  1  0  0  0  0  0  0  0  0  0
    5.1159   -7.0288    1.1995 S   0  0  0  0  0  0  0  0  0  0  0  0
    5.3073   -5.4443    0.4297 C   0  0  0  0  0  0  0  0  0  0  0  0
    4.9143   -5.0606   -0.6879 N   0  0  0  0  0  0  0  0  0  0  0  0
    4.8480   -3.6440   -0.6169 C   0  0  0  0  0  0  0  0  0  0  0  0
    4.6542   -2.7940   -1.6338 C   0  0  0  0  0  0  0  0  0  0  0  0
    4.5187   -3.5173   -3.4768 Br  0  0  0  0  0  0  0  0  0  0  0  0
    4.6642   -1.3313   -1.4251 C   0  0  0  0  0  0  0  0  0  0  0  0
    4.2397   -0.4739   -2.6157 C   0  0  0  0  0  0  0  0  0  0  0  0
    5.0386   -0.7710   -0.4035 O   0  0  0  0  0  0  0  0  0  0  0  0
    5.0940   -3.2868    0.7038 O   0  0  0  0  0  0  0  0  0  0  0  0
    5.6916   -4.3582    1.3284 C   0  0  2  0  0  0  0  0  0  0  0  0
    7.0944   -4.2175    1.4077 O   0  0  0  0  0  0  0  0  0  0  0  0
    7.7678   -3.5164    0.3550 C   0  0  0  0  0  0  0  0  0  0  0  0
    5.1602   -4.7320    2.7684 C   0  0  1  0  0  0  0  0  0  0  0  0
    5.9877   -1.3508    6.1353 H   0  0  0  0  0  0  0  0  0  0  0  0
    5.7224   -3.0301    5.8034 H   0  0  0  0  0  0  0  0  0  0  0  0
    4.4095   -2.0539    6.5064 H   0  0  0  0  0  0  0  0  0  0  0  0
    4.8173   -0.6321    4.1911 H   0  0  0  0  0  0  0  0  0  0  0  0
    4.0112   -1.9737    2.5100 H   0  0  0  0  0  0  0  0  0  0  0  0
    1.9348   -3.3449    2.8635 H   0  0  0  0  0  0  0  0  0  0  0  0
    2.8155   -3.7983    1.4763 H   0  0  0  0  0  0  0  0  0  0  0  0
    0.5840   -5.0800    2.4820 H   0  0  0  0  0  0  0  0  0  0  0  0
    1.0817   -6.3764    0.4507 H   0  0  0  0  0  0  0  0  0  0  0  0
    2.8316   -6.1326    0.6663 H   0  0  0  0  0  0  0  0  0  0  0  0
    0.1428   -8.0792    3.2924 H   0  0  0  0  0  0  0  0  0  0  0  0
    0.1360   -8.0262    1.5258 H   0  0  0  0  0  0  0  0  0  0  0  0
    1.3066  -10.0700    3.1259 H   0  0  0  0  0  0  0  0  0  0  0  0
    1.6648   -9.8460    1.4156 H   0  0  0  0  0  0  0  0  0  0  0  0
    4.8295   -9.5613    3.5915 H   0  0  0  0  0  0  0  0  0  0  0  0
    3.8728  -10.8362    2.8506 H   0  0  0  0  0  0  0  0  0  0  0  0
    3.3599  -10.1369    4.3937 H   0  0  0  0  0  0  0  0  0  0  0  0
    2.2690   -8.0101    4.3016 H   0  0  0  0  0  0  0  0  0  0  0  0
    5.5015   -5.1520    6.3757 H   0  0  0  0  0  0  0  0  0  0  0  0
    3.3192   -3.9129    5.5530 H   0  0  0  0  0  0  0  0  0  0  0  0
    1.5930   -5.1144    6.0749 H   0  0  0  0  0  0  0  0  0  0  0  0
    2.6067   -6.4702    6.5624 H   0  0  0  0  0  0  0  0  0  0  0  0
    1.2769   -6.6774    5.4003 H   0  0  0  0  0  0  0  0  0  0  0  0
    5.9561   -6.6044    3.2151 H   0  0  0  0  0  0  0  0  0  0  0  0
    3.2424   -0.7653   -2.9350 H   0  0  0  0  0  0  0  0  0  0  0  0
    4.9261   -0.6037   -3.4477 H   0  0  0  0  0  0  0  0  0  0  0  0
    4.2158    0.5755   -2.3441 H   0  0  0  0  0  0  0  0  0  0  0  0
    8.8469   -3.5598    0.4762 H   0  0  0  0  0  0  0  0  0  0  0  0
    7.4659   -2.4667    0.3760 H   0  0  0  0  0  0  0  0  0  0  0  0
    7.5420   -3.9165   -0.6335 H   0  0  0  0  0  0  0  0  0  0  0  0
    5.9981   -4.4603    3.4113 H   0  0  0  0  0  0  0  0  0  0  0  0
  1  2  1  0
  1 37  1  0
  1 38  1  0
  1 39  1  0
  2  3  2  3
  2 40  1  0
  3  4  1  0
  3 41  1  0
  4 19  1  0
  4 36  1  0
  4  5  1  6
  5  6  1  0
  5 42  1  0
  5 43  1  0
  6  8  1  0
  6  7  1  0
  6 44  1  6
  8  7  1  6
  7 45  1  0
  7 46  1  0
  8 13  1  0
  8  9  1  0
  9 10  1  0
  9 47  1  0
  9 48  1  0
 10 11  1  0
 10 49  1  0
 10 50  1  0
 11 12  1  0
 11 13  1  0
 12 51  1  0
 12 52  1  0
 12 53  1  0
 13 14  1  0
 13 54  1  1
 14 20  1  0
 14 15  1  1
 14 22  1  0
 15 16  1  0
 15 18  2  0
 16 17  3  0
 18 19  1  0
 18 55  1  0
 19 20  1  0
 19 56  1  1
 20 21  1  0
 21 57  1  0
 21 58  1  0
 21 59  1  0
 22 36  1  0
 22 23  1  0
 22 60  1  1
 23 24  1  0
 24 33  1  0
 24 25  2  0
 25 26  1  0
 26 27  2  3
 26 32  1  0
 27 28  1  0
 27 29  1  0
 29 30  1  0
 29 31  2  0
 30 61  1  0
 30 62  1  0
 30 63  1  0
 32 33  1  0
 33 34  1  1
 33 36  1  0
 34 35  1  0
 35 64  1  0
 35 65  1  0
 35 66  1  0
 36 67  1  1
M  END
>  <i_m_ct_stereo_status>  (23) 
1

>  <s_m_source_file>  (23) 
/var/tmp/pbs.5076255.sched01/tmpkni74bsw/0nq93mkxh.sdf

>  <i_m_source_file_index>  (23) 
9

>  <i_lp_mmshare_version>  (23) 
48012

>  <i_f3d_flags>  (23) 
0

>  <s_epik_input>  (23) 
W0NIM10vW0NIXT1bQ0hdL1tDQF0xKFtDSDJdW0NASF0oW0NAXTIzNClbQ0gyXTIpW0NAQEhdNVtDSF09QyhDI04pW0NAXShONVtDSDNdKShbQ0BASF00TihbQ0gzXSlbQ0gyXVtDSDJdMylbQ0BASF02W0NASF0xW0NAQF03KE9bQ0gzXSlDKFM2KT1OL0MoTzcpPUMoL0JyKUMoPU8pW0NIM10=

>  <s_epik_cmdline>  (23) 
J2VwaWtfcHl0aG9uJywgJy1waHQnLCAnMi4wJywgJy1waCcsICc3LjAnLCAnLXRuJywgJzgnLCAnLW1hJywgJzIwMCcsICctaW1hZScsICc8aW5maWxlLm1hZT4nLCAnLW9tYWUnLCAnPG91dGZpbGUubWFlPic=

>  <r_epik_Ionization_Penalty>  (23) 
0.166683

>  <r_epik_Ionization_Penalty_Charging>  (23) 
0

>  <r_epik_Ionization_Penalty_Neutral>  (23) 
0.166683

>  <r_epik_State_Penalty>  (23) 
0.156033

>  <r_epik_Charging_Adjusted_Penalty>  (23) 
0.156033

>  <i_epik_Tot_Q>  (23) 
0

>  <i_epik_Tot_abs_Q>  (23) 
0

>  <s_epik_Chemistry_Notes>  (23) 
This compound has an imine and may undergo hydrolysis.

>  <s_lp_Force_Field>  (23) 
OPLS3e

>  <r_lp_Energy>  (23) 
153.313

>  <b_lp_Chiralities_Consistent>  (23) 
1

>  <s_lp_Variant>  (23) 
5:0-4

>  <s_i_glide_gridfile>  (23) 
pfpi4k_grid

>  <i_i_glide_lignum>  (23) 
9

>  <i_i_glide_rotatable_bonds>  (23) 
4

>  <r_i_docking_score>  (23) 
-2.32114

>  <r_i_glide_ligand_efficiency>  (23) 
-0.0644762

>  <r_i_glide_ligand_efficiency_sa>  (23) 
-0.212896

>  <r_i_glide_ligand_efficiency_ln>  (23) 
-0.506411

>  <r_i_glide_gscore>  (23) 
-2.32114

>  <r_i_glide_lipo>  (23) 
-0.771072

>  <r_i_glide_hbond>  (23) 
0

>  <r_i_glide_metal>  (23) 
-0

>  <r_i_glide_rewards>  (23) 
-0.229458

>  <r_i_glide_evdw>  (23) 
-29.6126

>  <r_i_glide_ecoul>  (23) 
1.13242

>  <r_i_glide_erotb>  (23) 
0.0363478

>  <r_i_glide_esite>  (23) 
-0.0461953

>  <r_i_glide_emodel>  (23) 
-29.563

>  <r_i_glide_energy>  (23) 
-28.4802

>  <r_i_glide_einternal>  (23) 
4.66963

>  <r_i_glide_intrahb_reward>  (23) 
-0

>  <i_i_glide_confnum>  (23) 
2

>  <i_i_glide_posenum>  (23) 
7

>  <r_i_glide_eff_state_penalty>  (23) 
0

>  <ligand_id>  (23) 
5

>  <original_smiles>  (23) 
CC=CC12CC3CC34CCN(C)C4C3(C(C#N)=CC1N3C)C1SC3=NC(=C(Br)C(C)=O)OC3(OC)C12

>  <smiles>  (23) 
[H]C(=C([H])C12C3([H])C([H])=C(C#N)C(N3C([H])([H])[H])(C3([H])SC4=NC(=C(Br)C(=O)C([H])([H])[H])OC4(OC([H])([H])[H])C31[H])C1([H])N(C([H])([H])[H])C([H])([H])C([H])([H])C13C([H])([H])C3([H])C2([H])[H])C([H])([H])[H]

$$$$
5:3:1
     RDKit          3D

 67 73  0  0  1  0  0  0  0  0999 V2000
    0.4432   -2.2337    4.3572 C   0  0  0  0  0  0  0  0  0  0  0  0
    1.3882   -2.4204    3.1884 C   0  0  0  0  0  0  0  0  0  0  0  0
    2.0756   -3.5213    2.8150 C   0  0  0  0  0  0  0  0  0  0  0  0
    2.0915   -4.9511    3.3766 C   0  0  2  0  0  0  0  0  0  0  0  0
    2.3465   -5.9201    2.0773 C   0  0  0  0  0  0  0  0  0  0  0  0
    2.1637   -7.5082    1.9510 C   0  0  1  0  0  0  0  0  0  0  0  0
    3.4164   -8.2927    2.1898 C   0  0  0  0  0  0  0  0  0  0  0  0
    2.2049   -8.7167    2.9843 C   0  0  2  0  0  0  0  0  0  0  0  0
    1.9601  -10.2003    2.8111 C   0  0  0  0  0  0  0  0  0  0  0  0
    2.4361  -10.7991    4.1589 C   0  0  0  0  0  0  0  0  0  0  0  0
    2.6873   -9.6741    5.0706 N   0  0  0  0  0  0  0  0  0  0  0  0
    2.4187   -9.9946    6.4586 C   0  0  0  0  0  0  0  0  0  0  0  0
    1.8556   -8.6452    4.4981 C   0  0  1  0  0  0  0  0  0  0  0  0
    1.7520   -7.1863    4.9861 C   0  0  2  0  0  0  0  0  0  0  0  0
    1.0159   -6.5805    6.1474 C   0  0  0  0  0  0  0  0  0  0  0  0
    0.9154   -7.1125    7.4645 C   0  0  0  0  0  0  0  0  0  0  0  0
    0.7951   -7.4900    8.5525 N   0  0  0  0  0  0  0  0  0  0  0  0
    0.6106   -5.3693    5.7119 C   0  0  0  0  0  0  0  0  0  0  0  0
    0.7401   -5.2732    4.1692 C   0  0  2  0  0  0  0  0  0  0  0  0
    0.7247   -6.6541    4.0200 N   0  0  0  0  0  0  0  0  0  0  0  0
   -0.6489   -7.2268    3.9584 C   0  0  0  0  0  0  0  0  0  0  0  0
    3.1605   -6.4288    5.1551 C   0  0  1  0  0  0  0  0  0  0  0  0
    4.7804   -7.2733    5.0374 S   0  0  0  0  0  0  0  0  0  0  0  0
    5.4380   -5.9687    4.0341 C   0  0  0  0  0  0  0  0  0  0  0  0
    6.3178   -5.9907    3.1413 N   0  0  0  0  0  0  0  0  0  0  0  0
    6.1133   -4.8253    2.3975 C   0  0  0  0  0  0  0  0  0  0  0  0
    6.8720   -4.3889    1.3668 C   0  0  0  0  0  0  0  0  0  0  0  0
    8.4795   -5.4743    0.9230 Br  0  0  0  0  0  0  0  0  0  0  0  0
    6.5797   -3.1356    0.6387 C   0  0  0  0  0  0  0  0  0  0  0  0
    7.4855   -2.7642   -0.5307 C   0  0  0  0  0  0  0  0  0  0  0  0
    5.6636   -2.3678    0.9183 O   0  0  0  0  0  0  0  0  0  0  0  0
    4.9851   -4.1811    2.8675 O   0  0  0  0  0  0  0  0  0  0  0  0
    4.6929   -4.7060    4.1101 C   0  0  2  0  0  0  0  0  0  0  0  0
    5.2472   -3.9365    5.1406 O   0  0  0  0  0  0  0  0  0  0  0  0
    4.9858   -2.5395    5.0856 C   0  0  0  0  0  0  0  0  0  0  0  0
    3.2023   -5.0572    4.4462 C   0  0  1  0  0  0  0  0  0  0  0  0
    0.4490   -1.1915    4.6766 H   0  0  0  0  0  0  0  0  0  0  0  0
    0.7556   -2.8160    5.2193 H   0  0  0  0  0  0  0  0  0  0  0  0
   -0.5799   -2.5000    4.0819 H   0  0  0  0  0  0  0  0  0  0  0  0
    1.5068   -1.5358    2.5759 H   0  0  0  0  0  0  0  0  0  0  0  0
    2.7100   -3.3913    1.9520 H   0  0  0  0  0  0  0  0  0  0  0  0
    1.6836   -5.5364    1.3028 H   0  0  0  0  0  0  0  0  0  0  0  0
    3.3375   -5.7004    1.6856 H   0  0  0  0  0  0  0  0  0  0  0  0
    1.6139   -7.7648    1.0495 H   0  0  0  0  0  0  0  0  0  0  0  0
    3.7372   -8.9228    1.3640 H   0  0  0  0  0  0  0  0  0  0  0  0
    4.2399   -7.7826    2.6364 H   0  0  0  0  0  0  0  0  0  0  0  0
    0.8912  -10.3695    2.6577 H   0  0  0  0  0  0  0  0  0  0  0  0
    2.4983  -10.6183    1.9610 H   0  0  0  0  0  0  0  0  0  0  0  0
    1.6657  -11.4664    4.5486 H   0  0  0  0  0  0  0  0  0  0  0  0
    3.3451  -11.3860    4.0248 H   0  0  0  0  0  0  0  0  0  0  0  0
    2.6678   -9.1509    7.0992 H   0  0  0  0  0  0  0  0  0  0  0  0
    3.0262  -10.8411    6.7752 H   0  0  0  0  0  0  0  0  0  0  0  0
    1.3717  -10.2559    6.6061 H   0  0  0  0  0  0  0  0  0  0  0  0
    0.8501   -9.0464    4.6191 H   0  0  0  0  0  0  0  0  0  0  0  0
    0.1040   -4.6309    6.3161 H   0  0  0  0  0  0  0  0  0  0  0  0
   -0.1400   -4.8302    3.7137 H   0  0  0  0  0  0  0  0  0  0  0  0
   -1.2532   -6.6667    3.2410 H   0  0  0  0  0  0  0  0  0  0  0  0
   -1.1756   -7.2017    4.9147 H   0  0  0  0  0  0  0  0  0  0  0  0
   -0.6509   -8.2502    3.5820 H   0  0  0  0  0  0  0  0  0  0  0  0
    3.2628   -6.1520    6.2109 H   0  0  0  0  0  0  0  0  0  0  0  0
    7.4943   -3.5686   -1.2623 H   0  0  0  0  0  0  0  0  0  0  0  0
    8.5038   -2.5941   -0.1851 H   0  0  0  0  0  0  0  0  0  0  0  0
    7.1174   -1.8607   -1.0137 H   0  0  0  0  0  0  0  0  0  0  0  0
    5.4824   -2.0670    5.9342 H   0  0  0  0  0  0  0  0  0  0  0  0
    3.9199   -2.3160    5.1570 H   0  0  0  0  0  0  0  0  0  0  0  0
    5.3821   -2.0827    4.1753 H   0  0  0  0  0  0  0  0  0  0  0  0
    2.9198   -4.3089    5.1856 H   0  0  0  0  0  0  0  0  0  0  0  0
  1  2  1  0
  1 37  1  0
  1 38  1  0
  1 39  1  0
  2  3  2  3
  2 40  1  0
  3  4  1  0
  3 41  1  0
  4 19  1  0
  4 36  1  0
  4  5  1  6
  5  6  1  0
  5 42  1  0
  5 43  1  0
  6  8  1  0
  6  7  1  0
  6 44  1  6
  8  7  1  1
  7 45  1  0
  7 46  1  0
  8 13  1  0
  8  9  1  0
  9 10  1  0
  9 47  1  0
  9 48  1  0
 10 11  1  0
 10 49  1  0
 10 50  1  0
 11 12  1  0
 11 13  1  0
 12 51  1  0
 12 52  1  0
 12 53  1  0
 13 14  1  0
 13 54  1  6
 14 20  1  0
 14 15  1  1
 14 22  1  0
 15 16  1  0
 15 18  2  0
 16 17  3  0
 18 19  1  0
 18 55  1  0
 19 20  1  0
 19 56  1  6
 20 21  1  0
 21 57  1  0
 21 58  1  0
 21 59  1  0
 22 36  1  0
 22 23  1  0
 22 60  1  1
 23 24  1  0
 24 33  1  0
 24 25  2  0
 25 26  1  0
 26 27  2  3
 26 32  1  0
 27 28  1  0
 27 29  1  0
 29 30  1  0
 29 31  2  0
 30 61  1  0
 30 62  1  0
 30 63  1  0
 32 33  1  0
 33 34  1  1
 33 36  1  0
 34 35  1  0
 35 64  1  0
 35 65  1  0
 35 66  1  0
 36 67  1  1
M  END
>  <i_m_ct_stereo_status>  (24) 
1

>  <s_m_source_file>  (24) 
/var/tmp/pbs.5076255.sched01/tmpkni74bsw/0nq93mkxh.sdf

>  <i_m_source_file_index>  (24) 
9

>  <i_lp_mmshare_version>  (24) 
48012

>  <i_f3d_flags>  (24) 
0

>  <s_epik_input>  (24) 
W0NIM10vW0NIXT1bQ0hdL1tDQF0xKFtDSDJdW0NASF0oW0NAXTIzNClbQ0gyXTIpW0NAQEhdNVtDSF09QyhDI04pW0NAXShONVtDSDNdKShbQ0BASF00TihbQ0gzXSlbQ0gyXVtDSDJdMylbQ0BASF02W0NASF0xW0NAQF03KE9bQ0gzXSlDKFM2KT1OL0MoTzcpPUMoL0JyKUMoPU8pW0NIM10=

>  <s_epik_cmdline>  (24) 
J2VwaWtfcHl0aG9uJywgJy1waHQnLCAnMi4wJywgJy1waCcsICc3LjAnLCAnLXRuJywgJzgnLCAnLW1hJywgJzIwMCcsICctaW1hZScsICc8aW5maWxlLm1hZT4nLCAnLW9tYWUnLCAnPG91dGZpbGUubWFlPic=

>  <r_epik_Ionization_Penalty>  (24) 
0.166683

>  <r_epik_Ionization_Penalty_Charging>  (24) 
0

>  <r_epik_Ionization_Penalty_Neutral>  (24) 
0.166683

>  <r_epik_State_Penalty>  (24) 
0.156033

>  <r_epik_Charging_Adjusted_Penalty>  (24) 
0.156033

>  <i_epik_Tot_Q>  (24) 
0

>  <i_epik_Tot_abs_Q>  (24) 
0

>  <s_epik_Chemistry_Notes>  (24) 
This compound has an imine and may undergo hydrolysis.

>  <s_lp_Force_Field>  (24) 
OPLS3e

>  <r_lp_Energy>  (24) 
153.313

>  <b_lp_Chiralities_Consistent>  (24) 
1

>  <s_lp_Variant>  (24) 
5:0-4

>  <s_i_glide_gridfile>  (24) 
pfpi4k_grid

>  <i_i_glide_lignum>  (24) 
9

>  <i_i_glide_rotatable_bonds>  (24) 
4

>  <r_i_docking_score>  (24) 
-1.84998

>  <r_i_glide_ligand_efficiency>  (24) 
-0.0513883

>  <r_i_glide_ligand_efficiency_sa>  (24) 
-0.16968

>  <r_i_glide_ligand_efficiency_ln>  (24) 
-0.403615

>  <r_i_glide_gscore>  (24) 
-1.84998

>  <r_i_glide_lipo>  (24) 
-0.325922

>  <r_i_glide_hbond>  (24) 
0

>  <r_i_glide_metal>  (24) 
-0

>  <r_i_glide_rewards>  (24) 
-0.12542

>  <r_i_glide_evdw>  (24) 
-25.8703

>  <r_i_glide_ecoul>  (24) 
-0.891018

>  <r_i_glide_erotb>  (24) 
0.0363478

>  <r_i_glide_esite>  (24) 
-0.0078172

>  <r_i_glide_emodel>  (24) 
-28.9651

>  <r_i_glide_energy>  (24) 
-26.7613

>  <r_i_glide_einternal>  (24) 
1.65642

>  <r_i_glide_intrahb_reward>  (24) 
-0

>  <i_i_glide_confnum>  (24) 
2

>  <i_i_glide_posenum>  (24) 
2

>  <r_i_glide_eff_state_penalty>  (24) 
0

>  <ligand_id>  (24) 
5

>  <original_smiles>  (24) 
CC=CC12CC3CC34CCN(C)C4C3(C(C#N)=CC1N3C)C1SC3=NC(=C(Br)C(C)=O)OC3(OC)C12

>  <smiles>  (24) 
[H]C(=C([H])C12C3([H])C([H])=C(C#N)C(N3C([H])([H])[H])(C3([H])SC4=NC(=C(Br)C(=O)C([H])([H])[H])OC4(OC([H])([H])[H])C31[H])C1([H])N(C([H])([H])[H])C([H])([H])C([H])([H])C13C([H])([H])C3([H])C2([H])[H])C([H])([H])[H]

$$$$
5:3:2
     RDKit          3D

 67 73  0  0  1  0  0  0  0  0999 V2000
    6.3301   -5.5065    7.2090 C   0  0  0  0  0  0  0  0  0  0  0  0
    5.8765   -4.5311    6.1406 C   0  0  0  0  0  0  0  0  0  0  0  0
    4.9654   -4.6966    5.1548 C   0  0  0  0  0  0  0  0  0  0  0  0
    4.0447   -5.8672    4.8030 C   0  0  2  0  0  0  0  0  0  0  0  0
    2.6218   -5.1827    4.3353 C   0  0  0  0  0  0  0  0  0  0  0  0
    1.1974   -5.8627    4.1367 C   0  0  1  0  0  0  0  0  0  0  0  0
    0.8916   -6.2979    2.7342 C   0  0  0  0  0  0  0  0  0  0  0  0
    0.6903   -7.3354    3.8149 C   0  0  2  0  0  0  0  0  0  0  0  0
   -0.6935   -7.9399    3.7011 C   0  0  0  0  0  0  0  0  0  0  0  0
   -0.4356   -9.3354    3.0855 C   0  0  0  0  0  0  0  0  0  0  0  0
    1.0190   -9.5549    3.1035 N   0  0  0  0  0  0  0  0  0  0  0  0
    1.3857  -10.9439    3.2906 C   0  0  0  0  0  0  0  0  0  0  0  0
    1.4276   -8.6618    4.1492 C   0  0  1  0  0  0  0  0  0  0  0  0
    2.8796   -8.4023    4.5859 C   0  0  2  0  0  0  0  0  0  0  0  0
    3.8317   -9.1864    5.4433 C   0  0  0  0  0  0  0  0  0  0  0  0
    4.0236  -10.6047    5.3858 C   0  0  0  0  0  0  0  0  0  0  0  0
    4.2507  -11.7370    5.3356 N   0  0  0  0  0  0  0  0  0  0  0  0
    4.5415   -8.2829    6.1184 C   0  0  0  0  0  0  0  0  0  0  0  0
    3.8761   -6.8773    6.0296 C   0  0  2  0  0  0  0  0  0  0  0  0
    2.6521   -7.4181    5.7133 N   0  0  0  0  0  0  0  0  0  0  0  0
    1.8671   -7.8209    6.9204 C   0  0  0  0  0  0  0  0  0  0  0  0
    3.8966   -7.9983    3.4029 C   0  0  1  0  0  0  0  0  0  0  0  0
    3.4386   -8.1008    1.6392 S   0  0  0  0  0  0  0  0  0  0  0  0
    4.1825   -6.5271    1.3003 C   0  0  0  0  0  0  0  0  0  0  0  0
    3.8679   -5.6556    0.4639 N   0  0  0  0  0  0  0  0  0  0  0  0
    4.4613   -4.4487    0.9281 C   0  0  0  0  0  0  0  0  0  0  0  0
    4.4567   -3.2638    0.2963 C   0  0  0  0  0  0  0  0  0  0  0  0
    3.6270   -3.1872   -1.5042 Br  0  0  0  0  0  0  0  0  0  0  0  0
    5.0980   -2.0636    0.8897 C   0  0  0  0  0  0  0  0  0  0  0  0
    4.9516   -0.7457    0.1292 C   0  0  0  0  0  0  0  0  0  0  0  0
    5.7386   -2.0563    1.9307 O   0  0  0  0  0  0  0  0  0  0  0  0
    5.0190   -4.7093    2.1722 O   0  0  0  0  0  0  0  0  0  0  0  0
    5.1312   -6.0730    2.3192 C   0  0  2  0  0  0  0  0  0  0  0  0
    6.4042   -6.5294    1.9544 O   0  0  0  0  0  0  0  0  0  0  0  0
    7.5044   -5.8486    2.5433 C   0  0  0  0  0  0  0  0  0  0  0  0
    4.7002   -6.7169    3.6947 C   0  0  1  0  0  0  0  0  0  0  0  0
    7.3509   -5.2855    7.5175 H   0  0  0  0  0  0  0  0  0  0  0  0
    6.3544   -6.5251    6.8362 H   0  0  0  0  0  0  0  0  0  0  0  0
    5.6866   -5.4528    8.0900 H   0  0  0  0  0  0  0  0  0  0  0  0
    6.3552   -3.5630    6.2097 H   0  0  0  0  0  0  0  0  0  0  0  0
    4.8349   -3.8430    4.5087 H   0  0  0  0  0  0  0  0  0  0  0  0
    2.4342   -4.4112    5.0811 H   0  0  0  0  0  0  0  0  0  0  0  0
    2.8158   -4.6098    3.4272 H   0  0  0  0  0  0  0  0  0  0  0  0
    0.4131   -5.2688    4.6150 H   0  0  0  0  0  0  0  0  0  0  0  0
    0.0183   -5.8555    2.2868 H   0  0  0  0  0  0  0  0  0  0  0  0
    1.7145   -6.3343    2.0558 H   0  0  0  0  0  0  0  0  0  0  0  0
   -1.1200   -8.0292    4.7072 H   0  0  0  0  0  0  0  0  0  0  0  0
   -1.3772   -7.3311    3.1038 H   0  0  0  0  0  0  0  0  0  0  0  0
   -0.9572  -10.0864    3.6726 H   0  0  0  0  0  0  0  0  0  0  0  0
   -0.8117   -9.3932    2.0622 H   0  0  0  0  0  0  0  0  0  0  0  0
    2.4657  -11.0609    3.2243 H   0  0  0  0  0  0  0  0  0  0  0  0
    0.9368  -11.5635    2.5233 H   0  0  0  0  0  0  0  0  0  0  0  0
    1.0448  -11.3187    4.2548 H   0  0  0  0  0  0  0  0  0  0  0  0
    0.9558   -9.0813    5.0367 H   0  0  0  0  0  0  0  0  0  0  0  0
    5.3758   -8.5114    6.7771 H   0  0  0  0  0  0  0  0  0  0  0  0
    3.8298   -6.3782    6.9956 H   0  0  0  0  0  0  0  0  0  0  0  0
    1.8692   -6.9969    7.6442 H   0  0  0  0  0  0  0  0  0  0  0  0
    2.2671   -8.6997    7.4297 H   0  0  0  0  0  0  0  0  0  0  0  0
    0.8134   -7.9869    6.6933 H   0  0  0  0  0  0  0  0  0  0  0  0
    4.6731   -8.7681    3.3589 H   0  0  0  0  0  0  0  0  0  0  0  0
    3.8969   -0.5210   -0.0150 H   0  0  0  0  0  0  0  0  0  0  0  0
    5.4272   -0.8122   -0.8459 H   0  0  0  0  0  0  0  0  0  0  0  0
    5.4074    0.0717    0.6887 H   0  0  0  0  0  0  0  0  0  0  0  0
    8.4283   -6.2919    2.1658 H   0  0  0  0  0  0  0  0  0  0  0  0
    7.5125   -5.9380    3.6326 H   0  0  0  0  0  0  0  0  0  0  0  0
    7.5124   -4.7907    2.2723 H   0  0  0  0  0  0  0  0  0  0  0  0
    5.6461   -7.0279    4.1344 H   0  0  0  0  0  0  0  0  0  0  0  0
  1  2  1  0
  1 37  1  0
  1 38  1  0
  1 39  1  0
  2  3  2  3
  2 40  1  0
  3  4  1  0
  3 41  1  0
  4 19  1  0
  4 36  1  0
  4  5  1  6
  5  6  1  0
  5 42  1  0
  5 43  1  0
  6  8  1  0
  6  7  1  0
  6 44  1  1
  8  7  1  6
  7 45  1  0
  7 46  1  0
  8 13  1  0
  8  9  1  0
  9 10  1  0
  9 47  1  0
  9 48  1  0
 10 11  1  0
 10 49  1  0
 10 50  1  0
 11 12  1  0
 11 13  1  0
 12 51  1  0
 12 52  1  0
 12 53  1  0
 13 14  1  0
 13 54  1  1
 14 20  1  0
 14 15  1  1
 14 22  1  0
 15 16  1  0
 15 18  2  0
 16 17  3  0
 18 19  1  0
 18 55  1  0
 19 20  1  0
 19 56  1  1
 20 21  1  0
 21 57  1  0
 21 58  1  0
 21 59  1  0
 22 36  1  0
 22 23  1  0
 22 60  1  6
 23 24  1  0
 24 33  1  0
 24 25  2  0
 25 26  1  0
 26 27  2  3
 26 32  1  0
 27 28  1  0
 27 29  1  0
 29 30  1  0
 29 31  2  0
 30 61  1  0
 30 62  1  0
 30 63  1  0
 32 33  1  0
 33 34  1  6
 33 36  1  0
 34 35  1  0
 35 64  1  0
 35 65  1  0
 35 66  1  0
 36 67  1  1
M  END
>  <i_m_ct_stereo_status>  (25) 
1

>  <s_m_source_file>  (25) 
/var/tmp/pbs.5076255.sched01/tmpkni74bsw/0nq93mkxh.sdf

>  <i_m_source_file_index>  (25) 
9

>  <i_lp_mmshare_version>  (25) 
48012

>  <i_f3d_flags>  (25) 
0

>  <s_epik_input>  (25) 
W0NIM10vW0NIXT1bQ0hdL1tDQF0xKFtDSDJdW0NASF0oW0NAXTIzNClbQ0gyXTIpW0NAQEhdNVtDSF09QyhDI04pW0NAXShONVtDSDNdKShbQ0BASF00TihbQ0gzXSlbQ0gyXVtDSDJdMylbQ0BASF02W0NASF0xW0NAQF03KE9bQ0gzXSlDKFM2KT1OL0MoTzcpPUMoL0JyKUMoPU8pW0NIM10=

>  <s_epik_cmdline>  (25) 
J2VwaWtfcHl0aG9uJywgJy1waHQnLCAnMi4wJywgJy1waCcsICc3LjAnLCAnLXRuJywgJzgnLCAnLW1hJywgJzIwMCcsICctaW1hZScsICc8aW5maWxlLm1hZT4nLCAnLW9tYWUnLCAnPG91dGZpbGUubWFlPic=

>  <r_epik_Ionization_Penalty>  (25) 
0.166683

>  <r_epik_Ionization_Penalty_Charging>  (25) 
0

>  <r_epik_Ionization_Penalty_Neutral>  (25) 
0.166683

>  <r_epik_State_Penalty>  (25) 
0.156033

>  <r_epik_Charging_Adjusted_Penalty>  (25) 
0.156033

>  <i_epik_Tot_Q>  (25) 
0

>  <i_epik_Tot_abs_Q>  (25) 
0

>  <s_epik_Chemistry_Notes>  (25) 
This compound has an imine and may undergo hydrolysis.

>  <s_lp_Force_Field>  (25) 
OPLS3e

>  <r_lp_Energy>  (25) 
153.313

>  <b_lp_Chiralities_Consistent>  (25) 
1

>  <s_lp_Variant>  (25) 
5:0-4

>  <s_i_glide_gridfile>  (25) 
pfpi4k_grid

>  <i_i_glide_lignum>  (25) 
9

>  <i_i_glide_rotatable_bonds>  (25) 
4

>  <r_i_docking_score>  (25) 
-1.59183

>  <r_i_glide_ligand_efficiency>  (25) 
-0.0442176

>  <r_i_glide_ligand_efficiency_sa>  (25) 
-0.146003

>  <r_i_glide_ligand_efficiency_ln>  (25) 
-0.347295

>  <r_i_glide_gscore>  (25) 
-1.59183

>  <r_i_glide_lipo>  (25) 
-0.300502

>  <r_i_glide_hbond>  (25) 
0

>  <r_i_glide_metal>  (25) 
-0

>  <r_i_glide_rewards>  (25) 
-0.171976

>  <r_i_glide_evdw>  (25) 
-27.3958

>  <r_i_glide_ecoul>  (25) 
1.56947

>  <r_i_glide_erotb>  (25) 
0.0363478

>  <r_i_glide_esite>  (25) 
-0.0213328

>  <r_i_glide_emodel>  (25) 
-27.5314

>  <r_i_glide_energy>  (25) 
-25.8263

>  <r_i_glide_einternal>  (25) 
1.54464

>  <r_i_glide_intrahb_reward>  (25) 
-0

>  <i_i_glide_confnum>  (25) 
2

>  <i_i_glide_posenum>  (25) 
24

>  <r_i_glide_eff_state_penalty>  (25) 
0

>  <ligand_id>  (25) 
5

>  <original_smiles>  (25) 
CC=CC12CC3CC34CCN(C)C4C3(C(C#N)=CC1N3C)C1SC3=NC(=C(Br)C(C)=O)OC3(OC)C12

>  <smiles>  (25) 
[H]C(=C([H])C12C3([H])C([H])=C(C#N)C(N3C([H])([H])[H])(C3([H])SC4=NC(=C(Br)C(=O)C([H])([H])[H])OC4(OC([H])([H])[H])C31[H])C1([H])N(C([H])([H])[H])C([H])([H])C([H])([H])C13C([H])([H])C3([H])C2([H])[H])C([H])([H])[H]

$$$$
5:4:0
     RDKit          3D

 68 74  0  0  1  0  0  0  0  0999 V2000
    8.9840   -9.5288    4.9085 C   0  0  0  0  0  0  0  0  0  0  0  0
    7.4761   -9.4527    5.0416 C   0  0  0  0  0  0  0  0  0  0  0  0
    6.7171   -8.4965    4.4755 C   0  0  0  0  0  0  0  0  0  0  0  0
    5.1941   -8.3332    4.5528 C   0  0  2  0  0  0  0  0  0  0  0  0
    4.9261   -6.7686    4.9442 C   0  0  0  0  0  0  0  0  0  0  0  0
    3.5690   -6.0838    5.4287 C   0  0  1  0  0  0  0  0  0  0  0  0
    2.7458   -5.4921    4.3260 C   0  0  0  0  0  0  0  0  0  0  0  0
    2.0320   -6.4422    5.2600 C   0  0  2  0  0  0  0  0  0  0  0  0
    0.7870   -5.7808    5.7974 C   0  0  0  0  0  0  0  0  0  0  0  0
   -0.3281   -6.3575    4.8939 C   0  0  0  0  0  0  0  0  0  0  0  0
    0.2090   -7.6081    4.2845 N   0  0  2  0  0  0  0  0  0  0  0  0
   -0.7760   -8.7046    4.1818 C   0  0  0  0  0  0  0  0  0  0  0  0
    1.4306   -7.8702    5.0672 C   0  0  1  0  0  0  0  0  0  0  0  0
    2.4936   -8.9416    4.6930 C   0  0  2  0  0  0  0  0  0  0  0  0
    2.5636  -10.4356    4.8798 C   0  0  0  0  0  0  0  0  0  0  0  0
    1.5126  -11.3510    4.5959 C   0  0  0  0  0  0  0  0  0  0  0  0
    0.6235  -12.0344    4.3315 N   0  0  0  0  0  0  0  0  0  0  0  0
    3.8528  -10.7012    5.1724 C   0  0  0  0  0  0  0  0  0  0  0  0
    4.5836   -9.4031    5.5834 C   0  0  2  0  0  0  0  0  0  0  0  0
    3.3910   -8.7004    5.8749 N   0  0  0  0  0  0  0  0  0  0  0  0
    2.9551   -8.9802    7.2661 C   0  0  0  0  0  0  0  0  0  0  0  0
    3.0831   -8.8304    3.2120 C   0  0  1  0  0  0  0  0  0  0  0  0
    2.3358   -7.7562    1.9418 S   0  0  0  0  0  0  0  0  0  0  0  0
    3.9457   -7.2155    1.4215 C   0  0  0  0  0  0  0  0  0  0  0  0
    4.2958   -6.1256    0.9183 N   0  0  0  0  0  0  0  0  0  0  0  0
    5.6716   -6.0254    1.1397 C   0  0  0  0  0  0  0  0  0  0  0  0
    6.5294   -5.0581    0.7180 C   0  0  0  0  0  0  0  0  0  0  0  0
    8.4111   -5.3464    1.2792 Br  0  0  0  0  0  0  0  0  0  0  0  0
    6.1806   -3.8890   -0.1360 C   0  0  0  0  0  0  0  0  0  0  0  0
    4.7479   -3.6681   -0.6006 C   0  0  0  0  0  0  0  0  0  0  0  0
    7.0283   -3.0786   -0.5074 O   0  0  0  0  0  0  0  0  0  0  0  0
    6.0720   -7.1051    1.9059 O   0  0  0  0  0  0  0  0  0  0  0  0
    5.0656   -8.0519    1.8562 C   0  0  2  0  0  0  0  0  0  0  0  0
    5.3017   -9.0181    0.8784 O   0  0  0  0  0  0  0  0  0  0  0  0
    6.5807   -9.6335    0.9096 C   0  0  0  0  0  0  0  0  0  0  0  0
    4.6166   -8.7481    3.1809 C   0  0  1  0  0  0  0  0  0  0  0  0
    9.2647  -10.4758    4.4463 H   0  0  0  0  0  0  0  0  0  0  0  0
    9.4476   -9.4739    5.8937 H   0  0  0  0  0  0  0  0  0  0  0  0
    9.3743   -8.7172    4.2933 H   0  0  0  0  0  0  0  0  0  0  0  0
    7.0406  -10.2408    5.6334 H   0  0  0  0  0  0  0  0  0  0  0  0
    7.2321   -7.7404    3.9020 H   0  0  0  0  0  0  0  0  0  0  0  0
    5.6253   -6.5539    5.7553 H   0  0  0  0  0  0  0  0  0  0  0  0
    5.2983   -6.1513    4.1272 H   0  0  0  0  0  0  0  0  0  0  0  0
    3.7384   -5.4464    6.2934 H   0  0  0  0  0  0  0  0  0  0  0  0
    2.5536   -4.4250    4.4164 H   0  0  0  0  0  0  0  0  0  0  0  0
    3.0126   -5.7703    3.3336 H   0  0  0  0  0  0  0  0  0  0  0  0
    0.6420   -6.0747    6.8395 H   0  0  0  0  0  0  0  0  0  0  0  0
    0.8275   -4.6902    5.7663 H   0  0  0  0  0  0  0  0  0  0  0  0
   -1.2320   -6.5351    5.4780 H   0  0  0  0  0  0  0  0  0  0  0  0
   -0.5817   -5.6477    4.1084 H   0  0  0  0  0  0  0  0  0  0  0  0
   -1.0911   -9.0534    5.1666 H   0  0  0  0  0  0  0  0  0  0  0  0
   -0.3623   -9.5457    3.6278 H   0  0  0  0  0  0  0  0  0  0  0  0
   -1.6640   -8.3716    3.6406 H   0  0  0  0  0  0  0  0  0  0  0  0
    0.9839   -8.1918    6.0072 H   0  0  0  0  0  0  0  0  0  0  0  0
    4.2801  -11.6861    5.2819 H   0  0  0  0  0  0  0  0  0  0  0  0
    5.1794   -9.5333    6.4841 H   0  0  0  0  0  0  0  0  0  0  0  0
    3.7916   -8.8328    7.9519 H   0  0  0  0  0  0  0  0  0  0  0  0
    2.5865   -9.9952    7.4285 H   0  0  0  0  0  0  0  0  0  0  0  0
    2.1971   -8.2811    7.6173 H   0  0  0  0  0  0  0  0  0  0  0  0
    2.8796   -9.7777    2.6980 H   0  0  0  0  0  0  0  0  0  0  0  0
    4.1113   -3.5074    0.2678 H   0  0  0  0  0  0  0  0  0  0  0  0
    4.3910   -4.5467   -1.1383 H   0  0  0  0  0  0  0  0  0  0  0  0
    4.6703   -2.8058   -1.2615 H   0  0  0  0  0  0  0  0  0  0  0  0
    6.6188  -10.3786    0.1172 H   0  0  0  0  0  0  0  0  0  0  0  0
    6.7544  -10.1520    1.8513 H   0  0  0  0  0  0  0  0  0  0  0  0
    7.3917   -8.9217    0.7384 H   0  0  0  0  0  0  0  0  0  0  0  0
    4.9647   -9.7718    3.0586 H   0  0  0  0  0  0  0  0  0  0  0  0
    0.5127   -7.3743    3.3473 H   0  0  0  0  0  0  0  0  0  0  0  0
  1  2  1  0
  1 37  1  0
  1 38  1  0
  1 39  1  0
  2  3  2  3
  2 40  1  0
  3  4  1  0
  3 41  1  0
  4 19  1  0
  4 36  1  0
  4  5  1  1
  5  6  1  0
  5 42  1  0
  5 43  1  0
  6  8  1  0
  6  7  1  0
  6 44  1  1
  8  7  1  6
  7 45  1  0
  7 46  1  0
  8 13  1  0
  8  9  1  0
  9 10  1  0
  9 47  1  0
  9 48  1  0
 10 11  1  0
 10 49  1  0
 10 50  1  0
 11 12  1  0
 11 13  1  0
 11 68  1  6
 12 51  1  0
 12 52  1  0
 12 53  1  0
 13 14  1  0
 13 54  1  1
 14 20  1  0
 14 15  1  1
 14 22  1  0
 15 16  1  0
 15 18  2  0
 16 17  3  0
 18 19  1  0
 18 55  1  0
 19 20  1  0
 19 56  1  1
 20 21  1  0
 21 57  1  0
 21 58  1  0
 21 59  1  0
 22 36  1  0
 22 23  1  0
 22 60  1  6
 23 24  1  0
 24 33  1  0
 24 25  2  0
 25 26  1  0
 26 27  2  3
 26 32  1  0
 27 28  1  0
 27 29  1  0
 29 30  1  0
 29 31  2  0
 30 61  1  0
 30 62  1  0
 30 63  1  0
 32 33  1  0
 33 34  1  6
 33 36  1  0
 34 35  1  0
 35 64  1  0
 35 65  1  0
 35 66  1  0
 36 67  1  6
M  CHG  1  11   1
M  END
>  <i_m_ct_stereo_status>  (26) 
1

>  <s_m_source_file>  (26) 
/var/tmp/pbs.5076255.sched01/tmpkni74bsw/0nq93mkxh.sdf

>  <i_m_source_file_index>  (26) 
10

>  <i_lp_mmshare_version>  (26) 
48012

>  <i_f3d_flags>  (26) 
0

>  <s_epik_input>  (26) 
W0NIM10vW0NIXT1bQ0hdL1tDQF0xKFtDSDJdW0NASF0oW0NAXTIzNClbQ0gyXTIpW0NAQEhdNVtDSF09QyhDI04pW0NAXShONVtDSDNdKShbQ0BASF00TihbQ0gzXSlbQ0gyXVtDSDJdMylbQ0BASF02W0NASF0xW0NAQF03KE9bQ0gzXSlDKFM2KT1OL0MoTzcpPUMoL0JyKUMoPU8pW0NIM10=

>  <s_epik_cmdline>  (26) 
J2VwaWtfcHl0aG9uJywgJy1waHQnLCAnMi4wJywgJy1waCcsICc3LjAnLCAnLXRuJywgJzgnLCAnLW1hJywgJzIwMCcsICctaW1hZScsICc8aW5maWxlLm1hZT4nLCAnLW9tYWUnLCAnPG91dGZpbGUubWFlPic=

>  <r_epik_Ionization_Penalty>  (26) 
0.8328

>  <r_epik_Ionization_Penalty_Charging>  (26) 
0.8328

>  <r_epik_Ionization_Penalty_Neutral>  (26) 
9.0489e-09

>  <r_epik_State_Penalty>  (26) 
0.866834

>  <r_epik_Charging_Adjusted_Penalty>  (26) 
1.69963

>  <i_epik_Tot_Q>  (26) 
1

>  <i_epik_Tot_abs_Q>  (26) 
1

>  <s_epik_Chemistry_Notes>  (26) 
This compound has an imine and may undergo hydrolysis.

>  <s_lp_Force_Field>  (26) 
OPLS3e

>  <r_lp_Energy>  (26) 
150.736

>  <b_lp_Chiralities_Consistent>  (26) 
1

>  <s_lp_Variant>  (26) 
5:0-5

>  <s_i_glide_gridfile>  (26) 
pfpi4k_grid

>  <i_i_glide_lignum>  (26) 
10

>  <i_i_glide_rotatable_bonds>  (26) 
4

>  <r_i_docking_score>  (26) 
-2.43266

>  <r_i_glide_ligand_efficiency>  (26) 
-0.0675738

>  <r_i_glide_ligand_efficiency_sa>  (26) 
-0.223124

>  <r_i_glide_ligand_efficiency_ln>  (26) 
-0.53074

>  <r_i_glide_gscore>  (26) 
-2.43266

>  <r_i_glide_lipo>  (26) 
-0.279353

>  <r_i_glide_hbond>  (26) 
0

>  <r_i_glide_metal>  (26) 
-0

>  <r_i_glide_rewards>  (26) 
-0.249372

>  <r_i_glide_evdw>  (26) 
-28.2407

>  <r_i_glide_ecoul>  (26) 
-3.23865

>  <r_i_glide_erotb>  (26) 
0.0349468

>  <r_i_glide_esite>  (26) 
-0.0410488

>  <r_i_glide_emodel>  (26) 
-37.6667

>  <r_i_glide_energy>  (26) 
-31.4793

>  <r_i_glide_einternal>  (26) 
-0.757408

>  <r_i_glide_intrahb_reward>  (26) 
-0

>  <i_i_glide_confnum>  (26) 
5

>  <i_i_glide_posenum>  (26) 
35

>  <r_i_glide_eff_state_penalty>  (26) 
0

>  <ligand_id>  (26) 
5

>  <original_smiles>  (26) 
CC=CC12CC3CC34CCN(C)C4C3(C(C#N)=CC1N3C)C1SC3=NC(=C(Br)C(C)=O)OC3(OC)C12

>  <smiles>  (26) 
[H]C(=C([H])C12C3([H])C([H])=C(C#N)C(N3C([H])([H])[H])(C3([H])SC4=NC(=C(Br)C(=O)C([H])([H])[H])OC4(OC([H])([H])[H])C31[H])C1([H])C3(C([H])([H])C3([H])C2([H])[H])C([H])([H])C([H])([H])[N+]1([H])C([H])([H])[H])C([H])([H])[H]

$$$$
5:4:1
     RDKit          3D

 68 74  0  0  1  0  0  0  0  0999 V2000
    6.6758   -4.6850    7.1538 C   0  0  0  0  0  0  0  0  0  0  0  0
    5.6753   -5.7462    6.7429 C   0  0  0  0  0  0  0  0  0  0  0  0
    4.8684   -5.6448    5.6699 C   0  0  0  0  0  0  0  0  0  0  0  0
    3.8297   -6.6558    5.1680 C   0  0  2  0  0  0  0  0  0  0  0  0
    2.4677   -5.7974    4.8867 C   0  0  0  0  0  0  0  0  0  0  0  0
    0.9873   -6.3396    4.6273 C   0  0  1  0  0  0  0  0  0  0  0  0
    0.6559   -6.5360    3.1802 C   0  0  0  0  0  0  0  0  0  0  0  0
    0.3927   -7.7116    4.0899 C   0  0  2  0  0  0  0  0  0  0  0  0
   -1.0302   -8.1856    3.9085 C   0  0  0  0  0  0  0  0  0  0  0  0
   -0.8776   -9.3871    2.9404 C   0  0  0  0  0  0  0  0  0  0  0  0
    0.5435   -9.8313    3.0241 N   0  0  2  0  0  0  0  0  0  0  0  0
    0.7166  -11.2991    3.0054 C   0  0  0  0  0  0  0  0  0  0  0  0
    1.0567   -9.1195    4.2142 C   0  0  1  0  0  0  0  0  0  0  0  0
    2.5601   -9.0576    4.6138 C   0  0  2  0  0  0  0  0  0  0  0  0
    3.4759  -10.0214    5.3225 C   0  0  0  0  0  0  0  0  0  0  0  0
    3.5967  -11.4118    5.0537 C   0  0  0  0  0  0  0  0  0  0  0  0
    3.7399  -12.5298    4.7967 N   0  0  0  0  0  0  0  0  0  0  0  0
    4.2704   -9.2543    6.0970 C   0  0  0  0  0  0  0  0  0  0  0  0
    3.6691   -7.8392    6.2434 C   0  0  2  0  0  0  0  0  0  0  0  0
    2.3676   -8.2429    5.8633 N   0  0  0  0  0  0  0  0  0  0  0  0
    1.6187   -8.7675    7.0363 C   0  0  0  0  0  0  0  0  0  0  0  0
    3.5512   -8.5315    3.4664 C   0  0  1  0  0  0  0  0  0  0  0  0
    3.0259   -8.3519    1.7239 S   0  0  0  0  0  0  0  0  0  0  0  0
    3.8354   -6.7790    1.6167 C   0  0  0  0  0  0  0  0  0  0  0  0
    3.5178   -5.7671    0.9551 N   0  0  0  0  0  0  0  0  0  0  0  0
    4.1573   -4.6827    1.5760 C   0  0  0  0  0  0  0  0  0  0  0  0
    4.2850   -3.4004    1.1439 C   0  0  0  0  0  0  0  0  0  0  0  0
    5.3498   -2.2347    2.3523 Br  0  0  0  0  0  0  0  0  0  0  0  0
    3.7849   -2.8582   -0.1426 C   0  0  0  0  0  0  0  0  0  0  0  0
    2.9579   -3.7282   -1.0716 C   0  0  0  0  0  0  0  0  0  0  0  0
    4.0448   -1.7126   -0.5091 O   0  0  0  0  0  0  0  0  0  0  0  0
    4.7510   -5.1351    2.7406 O   0  0  0  0  0  0  0  0  0  0  0  0
    4.8480   -6.5110    2.6511 C   0  0  2  0  0  0  0  0  0  0  0  0
    6.1411   -6.9241    2.2587 O   0  0  0  0  0  0  0  0  0  0  0  0
    6.7954   -6.1668    1.2333 C   0  0  0  0  0  0  0  0  0  0  0  0
    4.4239   -7.3395    3.9096 C   0  0  1  0  0  0  0  0  0  0  0  0
    7.6823   -5.1066    7.1556 H   0  0  0  0  0  0  0  0  0  0  0  0
    6.4534   -4.3273    8.1609 H   0  0  0  0  0  0  0  0  0  0  0  0
    6.6609   -3.8330    6.4725 H   0  0  0  0  0  0  0  0  0  0  0  0
    5.6581   -6.6142    7.3822 H   0  0  0  0  0  0  0  0  0  0  0  0
    4.9461   -4.7399    5.0886 H   0  0  0  0  0  0  0  0  0  0  0  0
    2.3509   -5.1520    5.7579 H   0  0  0  0  0  0  0  0  0  0  0  0
    2.6752   -5.0930    4.0835 H   0  0  0  0  0  0  0  0  0  0  0  0
    0.2568   -5.7861    5.2153 H   0  0  0  0  0  0  0  0  0  0  0  0
   -0.1833   -5.9557    2.8202 H   0  0  0  0  0  0  0  0  0  0  0  0
    1.4667   -6.5188    2.4919 H   0  0  0  0  0  0  0  0  0  0  0  0
   -1.4233   -8.5129    4.8782 H   0  0  0  0  0  0  0  0  0  0  0  0
   -1.7003   -7.4144    3.5195 H   0  0  0  0  0  0  0  0  0  0  0  0
   -1.5645  -10.1773    3.2315 H   0  0  0  0  0  0  0  0  0  0  0  0
   -1.1218   -9.1048    1.9140 H   0  0  0  0  0  0  0  0  0  0  0  0
    0.2847  -11.7722    3.8896 H   0  0  0  0  0  0  0  0  0  0  0  0
    1.7711  -11.5613    2.9316 H   0  0  0  0  0  0  0  0  0  0  0  0
    0.2210  -11.7044    2.1193 H   0  0  0  0  0  0  0  0  0  0  0  0
    0.5474   -9.6737    5.0030 H   0  0  0  0  0  0  0  0  0  0  0  0
    5.1082   -9.6002    6.6830 H   0  0  0  0  0  0  0  0  0  0  0  0
    3.6689   -7.4948    7.2769 H   0  0  0  0  0  0  0  0  0  0  0  0
    1.6902   -8.0585    7.8651 H   0  0  0  0  0  0  0  0  0  0  0  0
    1.9771   -9.7335    7.4047 H   0  0  0  0  0  0  0  0  0  0  0  0
    0.5465   -8.8535    6.8467 H   0  0  0  0  0  0  0  0  0  0  0  0
    4.2902   -9.3204    3.2825 H   0  0  0  0  0  0  0  0  0  0  0  0
    2.0537   -4.0467   -0.5619 H   0  0  0  0  0  0  0  0  0  0  0  0
    3.5407   -4.6076   -1.3313 H   0  0  0  0  0  0  0  0  0  0  0  0
    2.6839   -3.2078   -1.9862 H   0  0  0  0  0  0  0  0  0  0  0  0
    7.7614   -6.6004    0.9783 H   0  0  0  0  0  0  0  0  0  0  0  0
    6.9708   -5.1476    1.5780 H   0  0  0  0  0  0  0  0  0  0  0  0
    6.2172   -6.1132    0.3095 H   0  0  0  0  0  0  0  0  0  0  0  0
    5.3716   -7.7483    4.2620 H   0  0  0  0  0  0  0  0  0  0  0  0
    1.0100   -9.4493    2.2133 H   0  0  0  0  0  0  0  0  0  0  0  0
  1  2  1  0
  1 37  1  0
  1 38  1  0
  1 39  1  0
  2  3  2  3
  2 40  1  0
  3  4  1  0
  3 41  1  0
  4 19  1  0
  4 36  1  0
  4  5  1  6
  5  6  1  0
  5 42  1  0
  5 43  1  0
  6  8  1  0
  6  7  1  0
  6 44  1  1
  8  7  1  6
  7 45  1  0
  7 46  1  0
  8 13  1  0
  8  9  1  0
  9 10  1  0
  9 47  1  0
  9 48  1  0
 10 11  1  0
 10 49  1  0
 10 50  1  0
 11 12  1  0
 11 13  1  0
 11 68  1  6
 12 51  1  0
 12 52  1  0
 12 53  1  0
 13 14  1  0
 13 54  1  1
 14 20  1  0
 14 15  1  1
 14 22  1  0
 15 16  1  0
 15 18  2  0
 16 17  3  0
 18 19  1  0
 18 55  1  0
 19 20  1  0
 19 56  1  1
 20 21  1  0
 21 57  1  0
 21 58  1  0
 21 59  1  0
 22 36  1  0
 22 23  1  0
 22 60  1  6
 23 24  1  0
 24 33  1  0
 24 25  2  0
 25 26  1  0
 26 27  2  3
 26 32  1  0
 27 28  1  0
 27 29  1  0
 29 30  1  0
 29 31  2  0
 30 61  1  0
 30 62  1  0
 30 63  1  0
 32 33  1  0
 33 34  1  6
 33 36  1  0
 34 35  1  0
 35 64  1  0
 35 65  1  0
 35 66  1  0
 36 67  1  1
M  CHG  1  11   1
M  END
>  <i_m_ct_stereo_status>  (27) 
1

>  <s_m_source_file>  (27) 
/var/tmp/pbs.5076255.sched01/tmpkni74bsw/0nq93mkxh.sdf

>  <i_m_source_file_index>  (27) 
10

>  <i_lp_mmshare_version>  (27) 
48012

>  <i_f3d_flags>  (27) 
0

>  <s_epik_input>  (27) 
W0NIM10vW0NIXT1bQ0hdL1tDQF0xKFtDSDJdW0NASF0oW0NAXTIzNClbQ0gyXTIpW0NAQEhdNVtDSF09QyhDI04pW0NAXShONVtDSDNdKShbQ0BASF00TihbQ0gzXSlbQ0gyXVtDSDJdMylbQ0BASF02W0NASF0xW0NAQF03KE9bQ0gzXSlDKFM2KT1OL0MoTzcpPUMoL0JyKUMoPU8pW0NIM10=

>  <s_epik_cmdline>  (27) 
J2VwaWtfcHl0aG9uJywgJy1waHQnLCAnMi4wJywgJy1waCcsICc3LjAnLCAnLXRuJywgJzgnLCAnLW1hJywgJzIwMCcsICctaW1hZScsICc8aW5maWxlLm1hZT4nLCAnLW9tYWUnLCAnPG91dGZpbGUubWFlPic=

>  <r_epik_Ionization_Penalty>  (27) 
0.8328

>  <r_epik_Ionization_Penalty_Charging>  (27) 
0.8328

>  <r_epik_Ionization_Penalty_Neutral>  (27) 
9.0489e-09

>  <r_epik_State_Penalty>  (27) 
0.866834

>  <r_epik_Charging_Adjusted_Penalty>  (27) 
1.69963

>  <i_epik_Tot_Q>  (27) 
1

>  <i_epik_Tot_abs_Q>  (27) 
1

>  <s_epik_Chemistry_Notes>  (27) 
This compound has an imine and may undergo hydrolysis.

>  <s_lp_Force_Field>  (27) 
OPLS3e

>  <r_lp_Energy>  (27) 
150.736

>  <b_lp_Chiralities_Consistent>  (27) 
1

>  <s_lp_Variant>  (27) 
5:0-5

>  <s_i_glide_gridfile>  (27) 
pfpi4k_grid

>  <i_i_glide_lignum>  (27) 
10

>  <i_i_glide_rotatable_bonds>  (27) 
4

>  <r_i_docking_score>  (27) 
-2.08556

>  <r_i_glide_ligand_efficiency>  (27) 
-0.0579322

>  <r_i_glide_ligand_efficiency_sa>  (27) 
-0.191288

>  <r_i_glide_ligand_efficiency_ln>  (27) 
-0.455013

>  <r_i_glide_gscore>  (27) 
-2.08556

>  <r_i_glide_lipo>  (27) 
-0.275053

>  <r_i_glide_hbond>  (27) 
0

>  <r_i_glide_metal>  (27) 
-0

>  <r_i_glide_rewards>  (27) 
-0.0740887

>  <r_i_glide_evdw>  (27) 
-26.2368

>  <r_i_glide_ecoul>  (27) 
-2.71328

>  <r_i_glide_erotb>  (27) 
0.0349468

>  <r_i_glide_esite>  (27) 
-0.0525333

>  <r_i_glide_emodel>  (27) 
-32.648

>  <r_i_glide_energy>  (27) 
-28.9501

>  <r_i_glide_einternal>  (27) 
2.04396

>  <r_i_glide_intrahb_reward>  (27) 
-0

>  <i_i_glide_confnum>  (27) 
3

>  <i_i_glide_posenum>  (27) 
38

>  <r_i_glide_eff_state_penalty>  (27) 
0

>  <ligand_id>  (27) 
5

>  <original_smiles>  (27) 
CC=CC12CC3CC34CCN(C)C4C3(C(C#N)=CC1N3C)C1SC3=NC(=C(Br)C(C)=O)OC3(OC)C12

>  <smiles>  (27) 
[H]C(=C([H])C12C3([H])C([H])=C(C#N)C(N3C([H])([H])[H])(C3([H])SC4=NC(=C(Br)C(=O)C([H])([H])[H])OC4(OC([H])([H])[H])C31[H])C1([H])C3(C([H])([H])C3([H])C2([H])[H])C([H])([H])C([H])([H])[N+]1([H])C([H])([H])[H])C([H])([H])[H]

$$$$
5:4:2
     RDKit          3D

 68 74  0  0  1  0  0  0  0  0999 V2000
    6.5926   -4.6331    7.1160 C   0  0  0  0  0  0  0  0  0  0  0  0
    5.6039   -5.7079    6.7112 C   0  0  0  0  0  0  0  0  0  0  0  0
    4.7950   -5.6207    5.6383 C   0  0  0  0  0  0  0  0  0  0  0  0
    3.7671   -6.6451    5.1425 C   0  0  2  0  0  0  0  0  0  0  0  0
    2.3916   -5.8058    4.8713 C   0  0  0  0  0  0  0  0  0  0  0  0
    0.9184   -6.3684    4.6204 C   0  0  1  0  0  0  0  0  0  0  0  0
    0.5835   -6.5716    3.1760 C   0  0  0  0  0  0  0  0  0  0  0  0
    0.3386   -7.7489    4.0868 C   0  0  2  0  0  0  0  0  0  0  0  0
   -1.0786   -8.2428    3.9119 C   0  0  0  0  0  0  0  0  0  0  0  0
   -0.9131   -9.4417    2.9427 C   0  0  0  0  0  0  0  0  0  0  0  0
    0.5139   -9.8641    3.0194 N   0  0  2  0  0  0  0  0  0  0  0  0
    0.7070  -11.3301    2.9978 C   0  0  0  0  0  0  0  0  0  0  0  0
    1.0217   -9.1467    4.2058 C   0  0  1  0  0  0  0  0  0  0  0  0
    2.5267   -9.0642    4.5933 C   0  0  2  0  0  0  0  0  0  0  0  0
    3.4608  -10.0150    5.2965 C   0  0  0  0  0  0  0  0  0  0  0  0
    3.5985  -11.4044    5.0268 C   0  0  0  0  0  0  0  0  0  0  0  0
    3.7551  -12.5202    4.7675 N   0  0  0  0  0  0  0  0  0  0  0  0
    4.2493   -9.2380    6.0684 C   0  0  0  0  0  0  0  0  0  0  0  0
    3.6297   -7.8313    6.2187 C   0  0  2  0  0  0  0  0  0  0  0  0
    2.3315   -8.2528    5.8458 N   0  0  0  0  0  0  0  0  0  0  0  0
    1.5971   -8.7879    7.0245 C   0  0  0  0  0  0  0  0  0  0  0  0
    3.5022   -8.5216    3.4386 C   0  0  1  0  0  0  0  0  0  0  0  0
    2.9662   -8.3444    1.6957 S   0  0  0  0  0  0  0  0  0  0  0  0
    3.7518   -6.7583    1.5767 C   0  0  0  0  0  0  0  0  0  0  0  0
    3.4220   -5.7513    0.9083 N   0  0  0  0  0  0  0  0  0  0  0  0
    4.0491   -4.6643    1.5366 C   0  0  0  0  0  0  0  0  0  0  0  0
    4.1554   -3.3798    1.1178 C   0  0  0  0  0  0  0  0  0  0  0  0
    5.2098   -2.2123    2.3361 Br  0  0  0  0  0  0  0  0  0  0  0  0
    3.6250   -2.8451   -0.1566 C   0  0  0  0  0  0  0  0  0  0  0  0
    3.8624   -1.3691   -0.4508 C   0  0  0  0  0  0  0  0  0  0  0  0
    3.0158   -3.5075   -0.9943 O   0  0  0  0  0  0  0  0  0  0  0  0
    4.6510   -5.1080    2.7026 O   0  0  0  0  0  0  0  0  0  0  0  0
    4.7621   -6.4799    2.6125 C   0  0  2  0  0  0  0  0  0  0  0  0
    6.0578   -6.8788    2.2185 O   0  0  0  0  0  0  0  0  0  0  0  0
    6.7158   -6.0976    1.2149 C   0  0  0  0  0  0  0  0  0  0  0  0
    4.3586   -7.3166    3.8770 C   0  0  1  0  0  0  0  0  0  0  0  0
    7.6038   -5.0431    7.1192 H   0  0  0  0  0  0  0  0  0  0  0  0
    6.3671   -4.2726    8.1216 H   0  0  0  0  0  0  0  0  0  0  0  0
    6.5675   -3.7847    6.4305 H   0  0  0  0  0  0  0  0  0  0  0  0
    5.5978   -6.5721    7.3555 H   0  0  0  0  0  0  0  0  0  0  0  0
    4.8616   -4.7181    5.0528 H   0  0  0  0  0  0  0  0  0  0  0  0
    2.2718   -5.1622    5.7432 H   0  0  0  0  0  0  0  0  0  0  0  0
    2.5847   -5.0990    4.0664 H   0  0  0  0  0  0  0  0  0  0  0  0
    0.1827   -5.8249    5.2119 H   0  0  0  0  0  0  0  0  0  0  0  0
   -0.2674   -6.0073    2.8180 H   0  0  0  0  0  0  0  0  0  0  0  0
    1.3904   -6.5421    2.4847 H   0  0  0  0  0  0  0  0  0  0  0  0
   -1.4622   -8.5751    4.8835 H   0  0  0  0  0  0  0  0  0  0  0  0
   -1.7610   -7.4791    3.5288 H   0  0  0  0  0  0  0  0  0  0  0  0
   -1.5863  -10.2413    3.2366 H   0  0  0  0  0  0  0  0  0  0  0  0
   -1.1695   -9.1613    1.9187 H   0  0  0  0  0  0  0  0  0  0  0  0
    0.2858  -11.8099    3.8851 H   0  0  0  0  0  0  0  0  0  0  0  0
    1.7671  -11.5771    2.9240 H   0  0  0  0  0  0  0  0  0  0  0  0
    0.2186  -11.7445    2.1139 H   0  0  0  0  0  0  0  0  0  0  0  0
    0.5261   -9.7089    4.9980 H   0  0  0  0  0  0  0  0  0  0  0  0
    5.0957   -9.5728    6.6498 H   0  0  0  0  0  0  0  0  0  0  0  0
    3.6300   -7.4874    7.2528 H   0  0  0  0  0  0  0  0  0  0  0  0
    1.6634   -8.0777    7.8541 H   0  0  0  0  0  0  0  0  0  0  0  0
    1.9705   -9.7495    7.3913 H   0  0  0  0  0  0  0  0  0  0  0  0
    0.5242   -8.8885    6.8420 H   0  0  0  0  0  0  0  0  0  0  0  0
    4.2514   -9.3011    3.2519 H   0  0  0  0  0  0  0  0  0  0  0  0
    4.9245   -1.1601   -0.5655 H   0  0  0  0  0  0  0  0  0  0  0  0
    3.4806   -0.7750    0.3750 H   0  0  0  0  0  0  0  0  0  0  0  0
    3.3409   -1.0671   -1.3584 H   0  0  0  0  0  0  0  0  0  0  0  0
    7.6843   -6.5219    0.9546 H   0  0  0  0  0  0  0  0  0  0  0  0
    6.8859   -5.0863    1.5859 H   0  0  0  0  0  0  0  0  0  0  0  0
    6.1391   -6.0258    0.2913 H   0  0  0  0  0  0  0  0  0  0  0  0
    5.3144   -7.7139    4.2228 H   0  0  0  0  0  0  0  0  0  0  0  0
    0.9686   -9.4739    2.2060 H   0  0  0  0  0  0  0  0  0  0  0  0
  1  2  1  0
  1 37  1  0
  1 38  1  0
  1 39  1  0
  2  3  2  3
  2 40  1  0
  3  4  1  0
  3 41  1  0
  4 19  1  0
  4 36  1  0
  4  5  1  6
  5  6  1  0
  5 42  1  0
  5 43  1  0
  6  8  1  0
  6  7  1  0
  6 44  1  1
  8  7  1  6
  7 45  1  0
  7 46  1  0
  8 13  1  0
  8  9  1  0
  9 10  1  0
  9 47  1  0
  9 48  1  0
 10 11  1  0
 10 49  1  0
 10 50  1  0
 11 12  1  0
 11 13  1  0
 11 68  1  6
 12 51  1  0
 12 52  1  0
 12 53  1  0
 13 14  1  0
 13 54  1  1
 14 20  1  0
 14 15  1  1
 14 22  1  0
 15 16  1  0
 15 18  2  0
 16 17  3  0
 18 19  1  0
 18 55  1  0
 19 20  1  0
 19 56  1  1
 20 21  1  0
 21 57  1  0
 21 58  1  0
 21 59  1  0
 22 36  1  0
 22 23  1  0
 22 60  1  6
 23 24  1  0
 24 33  1  0
 24 25  2  0
 25 26  1  0
 26 27  2  3
 26 32  1  0
 27 28  1  0
 27 29  1  0
 29 30  1  0
 29 31  2  0
 30 61  1  0
 30 62  1  0
 30 63  1  0
 32 33  1  0
 33 34  1  6
 33 36  1  0
 34 35  1  0
 35 64  1  0
 35 65  1  0
 35 66  1  0
 36 67  1  1
M  CHG  1  11   1
M  END
>  <i_m_ct_stereo_status>  (28) 
1

>  <s_m_source_file>  (28) 
/var/tmp/pbs.5076255.sched01/tmpkni74bsw/0nq93mkxh.sdf

>  <i_m_source_file_index>  (28) 
10

>  <i_lp_mmshare_version>  (28) 
48012

>  <i_f3d_flags>  (28) 
0

>  <s_epik_input>  (28) 
W0NIM10vW0NIXT1bQ0hdL1tDQF0xKFtDSDJdW0NASF0oW0NAXTIzNClbQ0gyXTIpW0NAQEhdNVtDSF09QyhDI04pW0NAXShONVtDSDNdKShbQ0BASF00TihbQ0gzXSlbQ0gyXVtDSDJdMylbQ0BASF02W0NASF0xW0NAQF03KE9bQ0gzXSlDKFM2KT1OL0MoTzcpPUMoL0JyKUMoPU8pW0NIM10=

>  <s_epik_cmdline>  (28) 
J2VwaWtfcHl0aG9uJywgJy1waHQnLCAnMi4wJywgJy1waCcsICc3LjAnLCAnLXRuJywgJzgnLCAnLW1hJywgJzIwMCcsICctaW1hZScsICc8aW5maWxlLm1hZT4nLCAnLW9tYWUnLCAnPG91dGZpbGUubWFlPic=

>  <r_epik_Ionization_Penalty>  (28) 
0.8328

>  <r_epik_Ionization_Penalty_Charging>  (28) 
0.8328

>  <r_epik_Ionization_Penalty_Neutral>  (28) 
9.0489e-09

>  <r_epik_State_Penalty>  (28) 
0.866834

>  <r_epik_Charging_Adjusted_Penalty>  (28) 
1.69963

>  <i_epik_Tot_Q>  (28) 
1

>  <i_epik_Tot_abs_Q>  (28) 
1

>  <s_epik_Chemistry_Notes>  (28) 
This compound has an imine and may undergo hydrolysis.

>  <s_lp_Force_Field>  (28) 
OPLS3e

>  <r_lp_Energy>  (28) 
150.736

>  <b_lp_Chiralities_Consistent>  (28) 
1

>  <s_lp_Variant>  (28) 
5:0-5

>  <s_i_glide_gridfile>  (28) 
pfpi4k_grid

>  <i_i_glide_lignum>  (28) 
10

>  <i_i_glide_rotatable_bonds>  (28) 
4

>  <r_i_docking_score>  (28) 
-1.93176

>  <r_i_glide_ligand_efficiency>  (28) 
-0.0536601

>  <r_i_glide_ligand_efficiency_sa>  (28) 
-0.177182

>  <r_i_glide_ligand_efficiency_ln>  (28) 
-0.421459

>  <r_i_glide_gscore>  (28) 
-1.93176

>  <r_i_glide_lipo>  (28) 
-0.27575

>  <r_i_glide_hbond>  (28) 
0

>  <r_i_glide_metal>  (28) 
-0

>  <r_i_glide_rewards>  (28) 
-0.0763531

>  <r_i_glide_evdw>  (28) 
-27.2644

>  <r_i_glide_ecoul>  (28) 
-1.30058

>  <r_i_glide_erotb>  (28) 
0.0349468

>  <r_i_glide_esite>  (28) 
-0.0563032

>  <r_i_glide_emodel>  (28) 
-30.8303

>  <r_i_glide_energy>  (28) 
-28.5649

>  <r_i_glide_einternal>  (28) 
4.24092

>  <r_i_glide_intrahb_reward>  (28) 
-0

>  <i_i_glide_confnum>  (28) 
4

>  <i_i_glide_posenum>  (28) 
17

>  <r_i_glide_eff_state_penalty>  (28) 
0

>  <ligand_id>  (28) 
5

>  <original_smiles>  (28) 
CC=CC12CC3CC34CCN(C)C4C3(C(C#N)=CC1N3C)C1SC3=NC(=C(Br)C(C)=O)OC3(OC)C12

>  <smiles>  (28) 
[H]C(=C([H])C12C3([H])C([H])=C(C#N)C(N3C([H])([H])[H])(C3([H])SC4=NC(=C(Br)C(=O)C([H])([H])[H])OC4(OC([H])([H])[H])C31[H])C1([H])C3(C([H])([H])C3([H])C2([H])[H])C([H])([H])C([H])([H])[N+]1([H])C([H])([H])[H])C([H])([H])[H]

$$$$
5:5:0
     RDKit          3D

 68 74  0  0  1  0  0  0  0  0999 V2000
    8.8629   -6.6781    6.2105 C   0  0  0  0  0  0  0  0  0  0  0  0
    7.8914   -5.7038    5.5768 C   0  0  0  0  0  0  0  0  0  0  0  0
    6.7421   -5.9436    4.9070 C   0  0  0  0  0  0  0  0  0  0  0  0
    5.9779   -7.2440    4.5995 C   0  0  2  0  0  0  0  0  0  0  0  0
    4.3954   -6.8469    4.7571 C   0  0  0  0  0  0  0  0  0  0  0  0
    3.1239   -7.8098    4.8592 C   0  0  1  0  0  0  0  0  0  0  0  0
    2.4502   -8.0845    3.5493 C   0  0  0  0  0  0  0  0  0  0  0  0
    2.8229   -9.2919    4.3755 C   0  0  2  0  0  0  0  0  0  0  0  0
    1.6174  -10.1875    4.5444 C   0  0  0  0  0  0  0  0  0  0  0  0
    1.8323  -11.2750    3.4608 C   0  0  0  0  0  0  0  0  0  0  0  0
    3.2848  -11.2573    3.1165 N   0  0  2  0  0  0  0  0  0  0  0  0
    3.8748  -12.5968    2.9076 C   0  0  0  0  0  0  0  0  0  0  0  0
    3.8775  -10.4222    4.1825 C   0  0  1  0  0  0  0  0  0  0  0  0
    5.3420   -9.9073    4.1672 C   0  0  2  0  0  0  0  0  0  0  0  0
    6.6502  -10.5652    4.5031 C   0  0  0  0  0  0  0  0  0  0  0  0
    7.0740  -11.8595    4.0920 C   0  0  0  0  0  0  0  0  0  0  0  0
    7.4237  -12.9038    3.7368 N   0  0  0  0  0  0  0  0  0  0  0  0
    7.3772   -9.6143    5.1169 C   0  0  0  0  0  0  0  0  0  0  0  0
    6.4718   -8.4351    5.5550 C   0  0  2  0  0  0  0  0  0  0  0  0
    5.2905   -9.2055    5.4956 N   0  0  0  0  0  0  0  0  0  0  0  0
    5.0868   -9.9305    6.7772 C   0  0  0  0  0  0  0  0  0  0  0  0
    5.7734   -9.0895    2.8586 C   0  0  1  0  0  0  0  0  0  0  0  0
    4.7414   -9.0340    1.3501 S   0  0  0  0  0  0  0  0  0  0  0  0
    5.0140   -7.2862    1.1869 C   0  0  0  0  0  0  0  0  0  0  0  0
    4.2856   -6.3965    0.6889 N   0  0  0  0  0  0  0  0  0  0  0  0
    4.7639   -5.1939    1.2176 C   0  0  0  0  0  0  0  0  0  0  0  0
    4.3623   -3.9330    0.9370 C   0  0  0  0  0  0  0  0  0  0  0  0
    5.3551   -2.5245    1.9251 Br  0  0  0  0  0  0  0  0  0  0  0  0
    3.3275   -3.5711   -0.0533 C   0  0  0  0  0  0  0  0  0  0  0  0
    3.4695   -2.2185   -0.7508 C   0  0  0  0  0  0  0  0  0  0  0  0
    2.3482   -4.2731   -0.3168 O   0  0  0  0  0  0  0  0  0  0  0  0
    5.7624   -5.4709    2.1340 O   0  0  0  0  0  0  0  0  0  0  0  0
    6.1693   -6.7725    1.9327 C   0  0  2  0  0  0  0  0  0  0  0  0
    7.2907   -6.8444    1.1026 O   0  0  0  0  0  0  0  0  0  0  0  0
    8.3981   -6.0306    1.4658 C   0  0  0  0  0  0  0  0  0  0  0  0
    6.3678   -7.7030    3.1761 C   0  0  1  0  0  0  0  0  0  0  0  0
    9.8666   -6.2531    6.2337 H   0  0  0  0  0  0  0  0  0  0  0  0
    8.9440   -7.5914    5.6313 H   0  0  0  0  0  0  0  0  0  0  0  0
    8.5660   -6.9119    7.2353 H   0  0  0  0  0  0  0  0  0  0  0  0
    8.1804   -4.6687    5.7003 H   0  0  0  0  0  0  0  0  0  0  0  0
    6.2459   -5.0598    4.5365 H   0  0  0  0  0  0  0  0  0  0  0  0
    4.3396   -6.2653    5.6779 H   0  0  0  0  0  0  0  0  0  0  0  0
    4.1553   -6.1159    3.9868 H   0  0  0  0  0  0  0  0  0  0  0  0
    2.4710   -7.5140    5.6772 H   0  0  0  0  0  0  0  0  0  0  0  0
    1.4025   -7.7958    3.4973 H   0  0  0  0  0  0  0  0  0  0  0  0
    2.9793   -7.8152    2.6649 H   0  0  0  0  0  0  0  0  0  0  0  0
    1.6337  -10.6241    5.5497 H   0  0  0  0  0  0  0  0  0  0  0  0
    0.6692   -9.6586    4.4281 H   0  0  0  0  0  0  0  0  0  0  0  0
    1.5108  -12.2447    3.8413 H   0  0  0  0  0  0  0  0  0  0  0  0
    1.2401  -11.0561    2.5717 H   0  0  0  0  0  0  0  0  0  0  0  0
    3.8623  -13.1849    3.8245 H   0  0  0  0  0  0  0  0  0  0  0  0
    4.8966  -12.5065    2.5420 H   0  0  0  0  0  0  0  0  0  0  0  0
    3.3046  -13.1283    2.1455 H   0  0  0  0  0  0  0  0  0  0  0  0
    3.8033  -11.1091    5.0268 H   0  0  0  0  0  0  0  0  0  0  0  0
    8.4038   -9.7238    5.4320 H   0  0  0  0  0  0  0  0  0  0  0  0
    6.6611   -8.1111    6.5777 H   0  0  0  0  0  0  0  0  0  0  0  0
    5.1865   -9.2344    7.6157 H   0  0  0  0  0  0  0  0  0  0  0  0
    5.8000  -10.7418    6.9514 H   0  0  0  0  0  0  0  0  0  0  0  0
    4.0758  -10.3321    6.8797 H   0  0  0  0  0  0  0  0  0  0  0  0
    6.6226   -9.6156    2.4036 H   0  0  0  0  0  0  0  0  0  0  0  0
    4.3677   -2.1914   -1.3648 H   0  0  0  0  0  0  0  0  0  0  0  0
    3.5335   -1.4192   -0.0155 H   0  0  0  0  0  0  0  0  0  0  0  0
    2.6141   -2.0112   -1.3977 H   0  0  0  0  0  0  0  0  0  0  0  0
    9.1851   -6.1852    0.7269 H   0  0  0  0  0  0  0  0  0  0  0  0
    8.8035   -6.2960    2.4433 H   0  0  0  0  0  0  0  0  0  0  0  0
    8.1448   -4.9677    1.4645 H   0  0  0  0  0  0  0  0  0  0  0  0
    7.4470   -7.8347    3.2392 H   0  0  0  0  0  0  0  0  0  0  0  0
    3.3787  -10.7536    2.2423 H   0  0  0  0  0  0  0  0  0  0  0  0
  1  2  1  0
  1 37  1  0
  1 38  1  0
  1 39  1  0
  2  3  2  3
  2 40  1  0
  3  4  1  0
  3 41  1  0
  4 19  1  0
  4 36  1  0
  4  5  1  6
  5  6  1  0
  5 42  1  0
  5 43  1  0
  6  8  1  0
  6  7  1  0
  6 44  1  1
  8  7  1  6
  7 45  1  0
  7 46  1  0
  8 13  1  0
  8  9  1  0
  9 10  1  0
  9 47  1  0
  9 48  1  0
 10 11  1  0
 10 49  1  0
 10 50  1  0
 11 12  1  0
 11 13  1  0
 11 68  1  6
 12 51  1  0
 12 52  1  0
 12 53  1  0
 13 14  1  0
 13 54  1  1
 14 20  1  0
 14 15  1  1
 14 22  1  0
 15 16  1  0
 15 18  2  0
 16 17  3  0
 18 19  1  0
 18 55  1  0
 19 20  1  0
 19 56  1  1
 20 21  1  0
 21 57  1  0
 21 58  1  0
 21 59  1  0
 22 36  1  0
 22 23  1  0
 22 60  1  6
 23 24  1  0
 24 33  1  0
 24 25  2  0
 25 26  1  0
 26 27  2  3
 26 32  1  0
 27 28  1  0
 27 29  1  0
 29 30  1  0
 29 31  2  0
 30 61  1  0
 30 62  1  0
 30 63  1  0
 32 33  1  0
 33 34  1  6
 33 36  1  0
 34 35  1  0
 35 64  1  0
 35 65  1  0
 35 66  1  0
 36 67  1  1
M  CHG  1  11   1
M  END
>  <i_m_ct_stereo_status>  (29) 
1

>  <s_m_source_file>  (29) 
/var/tmp/pbs.5076255.sched01/tmpkni74bsw/0nq93mkxh.sdf

>  <i_m_source_file_index>  (29) 
11

>  <i_lp_mmshare_version>  (29) 
48012

>  <i_f3d_flags>  (29) 
0

>  <s_epik_input>  (29) 
W0NIM10vW0NIXT1bQ0hdL1tDQF0xKFtDSDJdW0NASF0oW0NAXTIzNClbQ0gyXTIpW0NAQEhdNVtDSF09QyhDI04pW0NAXShONVtDSDNdKShbQ0BASF00TihbQ0gzXSlbQ0gyXVtDSDJdMylbQ0BASF02W0NASF0xW0NAQF03KE9bQ0gzXSlDKFM2KT1OL0MoTzcpPUMoL0JyKUMoPU8pW0NIM10=

>  <s_epik_cmdline>  (29) 
J2VwaWtfcHl0aG9uJywgJy1waHQnLCAnMi4wJywgJy1waCcsICc3LjAnLCAnLXRuJywgJzgnLCAnLW1hJywgJzIwMCcsICctaW1hZScsICc8aW5maWxlLm1hZT4nLCAnLW9tYWUnLCAnPG91dGZpbGUubWFlPic=

>  <r_epik_Ionization_Penalty>  (29) 
0.8328

>  <r_epik_Ionization_Penalty_Charging>  (29) 
0.8328

>  <r_epik_Ionization_Penalty_Neutral>  (29) 
9.0489e-09

>  <r_epik_State_Penalty>  (29) 
0.866834

>  <r_epik_Charging_Adjusted_Penalty>  (29) 
1.69963

>  <i_epik_Tot_Q>  (29) 
1

>  <i_epik_Tot_abs_Q>  (29) 
1

>  <s_epik_Chemistry_Notes>  (29) 
This compound has an imine and may undergo hydrolysis.

>  <s_lp_Force_Field>  (29) 
OPLS3e

>  <r_lp_Energy>  (29) 
154.96

>  <b_lp_Chiralities_Consistent>  (29) 
1

>  <s_lp_Variant>  (29) 
5:0-6

>  <s_i_glide_gridfile>  (29) 
pfpi4k_grid

>  <i_i_glide_lignum>  (29) 
11

>  <i_i_glide_rotatable_bonds>  (29) 
4

>  <r_i_docking_score>  (29) 
-2.48805

>  <r_i_glide_ligand_efficiency>  (29) 
-0.0691126

>  <r_i_glide_ligand_efficiency_sa>  (29) 
-0.228205

>  <r_i_glide_ligand_efficiency_ln>  (29) 
-0.542826

>  <r_i_glide_gscore>  (29) 
-2.48805

>  <r_i_glide_lipo>  (29) 
-0.310162

>  <r_i_glide_hbond>  (29) 
0

>  <r_i_glide_metal>  (29) 
-0

>  <r_i_glide_rewards>  (29) 
-0.189376

>  <r_i_glide_evdw>  (29) 
-25.5827

>  <r_i_glide_ecoul>  (29) 
-4.59347

>  <r_i_glide_erotb>  (29) 
0.0349468

>  <r_i_glide_esite>  (29) 
-0.0553052

>  <r_i_glide_emodel>  (29) 
-35.1734

>  <r_i_glide_energy>  (29) 
-30.1762

>  <r_i_glide_einternal>  (29) 
3.04007

>  <r_i_glide_intrahb_reward>  (29) 
-0

>  <i_i_glide_confnum>  (29) 
1

>  <i_i_glide_posenum>  (29) 
32

>  <r_i_glide_eff_state_penalty>  (29) 
0

>  <ligand_id>  (29) 
5

>  <original_smiles>  (29) 
CC=CC12CC3CC34CCN(C)C4C3(C(C#N)=CC1N3C)C1SC3=NC(=C(Br)C(C)=O)OC3(OC)C12

>  <smiles>  (29) 
[H]C(=C([H])C12C3([H])C([H])=C(C#N)C(N3C([H])([H])[H])(C3([H])SC4=NC(=C(Br)C(=O)C([H])([H])[H])OC4(OC([H])([H])[H])C31[H])C1([H])C3(C([H])([H])C3([H])C2([H])[H])C([H])([H])C([H])([H])[N+]1([H])C([H])([H])[H])C([H])([H])[H]

$$$$
5:5:1
     RDKit          3D

 68 74  0  0  1  0  0  0  0  0999 V2000
    4.9121   -3.6539    4.9041 C   0  0  0  0  0  0  0  0  0  0  0  0
    6.0647   -4.6484    5.1605 C   0  0  0  0  0  0  0  0  0  0  0  0
    6.1238   -6.0101    5.1217 C   0  0  0  0  0  0  0  0  0  0  0  0
    5.0379   -7.0633    4.8043 C   0  0  2  0  0  0  0  0  0  0  0  0
    3.5970   -6.3181    4.8600 C   0  0  0  0  0  0  0  0  0  0  0  0
    2.1297   -6.8784    4.9319 C   0  0  1  0  0  0  0  0  0  0  0  0
    1.4655   -7.0213    3.5943 C   0  0  0  0  0  0  0  0  0  0  0  0
    1.4727   -8.2300    4.4949 C   0  0  2  0  0  0  0  0  0  0  0  0
    0.0634   -8.7293    4.6565 C   0  0  0  0  0  0  0  0  0  0  0  0
    0.0290   -9.8797    3.6286 C   0  0  0  0  0  0  0  0  0  0  0  0
    1.4469  -10.2935    3.3792 N   0  0  2  0  0  0  0  0  0  0  0  0
    1.6510  -11.7556    3.2769 C   0  0  0  0  0  0  0  0  0  0  0  0
    2.2016   -9.6034    4.4400 C   0  0  1  0  0  0  0  0  0  0  0  0
    3.7652   -9.4893    4.4977 C   0  0  2  0  0  0  0  0  0  0  0  0
    4.8265  -10.4437    4.9331 C   0  0  0  0  0  0  0  0  0  0  0  0
    4.8948  -11.8308    4.6147 C   0  0  0  0  0  0  0  0  0  0  0  0
    4.9555  -12.9427    4.3302 N   0  0  0  0  0  0  0  0  0  0  0  0
    5.7689   -9.6804    5.5284 C   0  0  0  0  0  0  0  0  0  0  0  0
    5.1942   -8.2831    5.8574 C   0  0  2  0  0  0  0  0  0  0  0  0
    3.8508   -8.7205    5.7937 N   0  0  0  0  0  0  0  0  0  0  0  0
    3.3910   -9.2791    7.0824 C   0  0  0  0  0  0  0  0  0  0  0  0
    4.4473   -8.9045    3.1608 C   0  0  1  0  0  0  0  0  0  0  0  0
    3.5257   -8.6756    1.6008 S   0  0  0  0  0  0  0  0  0  0  0  0
    4.2703   -7.0762    1.3908 C   0  0  0  0  0  0  0  0  0  0  0  0
    3.8401   -6.0652    0.7990 N   0  0  0  0  0  0  0  0  0  0  0  0
    4.6015   -4.9928    1.2683 C   0  0  0  0  0  0  0  0  0  0  0  0
    4.5774   -3.6994    0.8645 C   0  0  0  0  0  0  0  0  0  0  0  0
    5.8848   -2.4509    1.6740 Br  0  0  0  0  0  0  0  0  0  0  0  0
    3.7151   -3.1140   -0.1939 C   0  0  0  0  0  0  0  0  0  0  0  0
    2.5040   -3.8721   -0.7059 C   0  0  0  0  0  0  0  0  0  0  0  0
    3.9461   -2.0151   -0.6816 O   0  0  0  0  0  0  0  0  0  0  0  0
    5.4652   -5.4645    2.2500 O   0  0  0  0  0  0  0  0  0  0  0  0
    5.5088   -6.8411    2.1419 C   0  0  2  0  0  0  0  0  0  0  0  0
    6.5999   -7.2862    1.3780 O   0  0  0  0  0  0  0  0  0  0  0  0
    7.8581   -6.7434    1.7513 C   0  0  0  0  0  0  0  0  0  0  0  0
    5.3832   -7.7109    3.4394 C   0  0  1  0  0  0  0  0  0  0  0  0
    5.1842   -2.6771    5.3265 H   0  0  0  0  0  0  0  0  0  0  0  0
    3.9413   -3.9547    5.2894 H   0  0  0  0  0  0  0  0  0  0  0  0
    4.8082   -3.5177    3.8301 H   0  0  0  0  0  0  0  0  0  0  0  0
    7.0101   -4.1678    5.3865 H   0  0  0  0  0  0  0  0  0  0  0  0
    7.0836   -6.4545    5.3489 H   0  0  0  0  0  0  0  0  0  0  0  0
    3.6597   -5.7545    5.7912 H   0  0  0  0  0  0  0  0  0  0  0  0
    3.5783   -5.5910    4.0400 H   0  0  0  0  0  0  0  0  0  0  0  0
    1.5446   -6.3456    5.6889 H   0  0  0  0  0  0  0  0  0  0  0  0
    0.5580   -6.4344    3.4786 H   0  0  0  0  0  0  0  0  0  0  0  0
    2.1030   -6.9392    2.7458 H   0  0  0  0  0  0  0  0  0  0  0  0
   -0.0788   -9.0946    5.6775 H   0  0  0  0  0  0  0  0  0  0  0  0
   -0.6924   -7.9671    4.4573 H   0  0  0  0  0  0  0  0  0  0  0  0
   -0.5372  -10.7205    4.0269 H   0  0  0  0  0  0  0  0  0  0  0  0
   -0.4450   -9.5737    2.6875 H   0  0  0  0  0  0  0  0  0  0  0  0
    1.4399  -12.2582    4.2322 H   0  0  0  0  0  0  0  0  0  0  0  0
    2.6791  -11.9722    2.9621 H   0  0  0  0  0  0  0  0  0  0  0  0
    0.9741  -12.1631    2.5175 H   0  0  0  0  0  0  0  0  0  0  0  0
    1.9006  -10.1829    5.3168 H   0  0  0  0  0  0  0  0  0  0  0  0
    6.7107  -10.0181    5.9046 H   0  0  0  0  0  0  0  0  0  0  0  0
    5.4537   -7.9372    6.8560 H   0  0  0  0  0  0  0  0  0  0  0  0
    3.6384   -8.5798    7.8797 H   0  0  0  0  0  0  0  0  0  0  0  0
    3.8389  -10.2375    7.3309 H   0  0  0  0  0  0  0  0  0  0  0  0
    2.3074   -9.3771    7.1279 H   0  0  0  0  0  0  0  0  0  0  0  0
    5.1339   -9.6718    2.7867 H   0  0  0  0  0  0  0  0  0  0  0  0
    1.8131   -4.0369    0.1100 H   0  0  0  0  0  0  0  0  0  0  0  0
    2.8209   -4.8348   -1.0853 H   0  0  0  0  0  0  0  0  0  0  0  0
    2.0146   -3.3358   -1.5250 H   0  0  0  0  0  0  0  0  0  0  0  0
    8.6050   -7.1523    1.0749 H   0  0  0  0  0  0  0  0  0  0  0  0
    8.1298   -7.0253    2.7687 H   0  0  0  0  0  0  0  0  0  0  0  0
    7.8860   -5.6540    1.6656 H   0  0  0  0  0  0  0  0  0  0  0  0
    6.3819   -8.1178    3.5834 H   0  0  0  0  0  0  0  0  0  0  0  0
    1.7186   -9.8638    2.4847 H   0  0  0  0  0  0  0  0  0  0  0  0
  1  2  1  0
  1 37  1  0
  1 38  1  0
  1 39  1  0
  2  3  2  3
  2 40  1  0
  3  4  1  0
  3 41  1  0
  4 19  1  0
  4 36  1  0
  4  5  1  6
  5  6  1  0
  5 42  1  0
  5 43  1  0
  6  8  1  0
  6  7  1  0
  6 44  1  1
  8  7  1  6
  7 45  1  0
  7 46  1  0
  8 13  1  0
  8  9  1  0
  9 10  1  0
  9 47  1  0
  9 48  1  0
 10 11  1  0
 10 49  1  0
 10 50  1  0
 11 12  1  0
 11 13  1  0
 11 68  1  6
 12 51  1  0
 12 52  1  0
 12 53  1  0
 13 14  1  0
 13 54  1  1
 14 20  1  0
 14 15  1  1
 14 22  1  0
 15 16  1  0
 15 18  2  0
 16 17  3  0
 18 19  1  0
 18 55  1  0
 19 20  1  0
 19 56  1  1
 20 21  1  0
 21 57  1  0
 21 58  1  0
 21 59  1  0
 22 36  1  0
 22 23  1  0
 22 60  1  6
 23 24  1  0
 24 33  1  0
 24 25  2  0
 25 26  1  0
 26 27  2  3
 26 32  1  0
 27 28  1  0
 27 29  1  0
 29 30  1  0
 29 31  2  0
 30 61  1  0
 30 62  1  0
 30 63  1  0
 32 33  1  0
 33 34  1  6
 33 36  1  0
 34 35  1  0
 35 64  1  0
 35 65  1  0
 35 66  1  0
 36 67  1  1
M  CHG  1  11   1
M  END
>  <i_m_ct_stereo_status>  (30) 
1

>  <s_m_source_file>  (30) 
/var/tmp/pbs.5076255.sched01/tmpkni74bsw/0nq93mkxh.sdf

>  <i_m_source_file_index>  (30) 
11

>  <i_lp_mmshare_version>  (30) 
48012

>  <i_f3d_flags>  (30) 
0

>  <s_epik_input>  (30) 
W0NIM10vW0NIXT1bQ0hdL1tDQF0xKFtDSDJdW0NASF0oW0NAXTIzNClbQ0gyXTIpW0NAQEhdNVtDSF09QyhDI04pW0NAXShONVtDSDNdKShbQ0BASF00TihbQ0gzXSlbQ0gyXVtDSDJdMylbQ0BASF02W0NASF0xW0NAQF03KE9bQ0gzXSlDKFM2KT1OL0MoTzcpPUMoL0JyKUMoPU8pW0NIM10=

>  <s_epik_cmdline>  (30) 
J2VwaWtfcHl0aG9uJywgJy1waHQnLCAnMi4wJywgJy1waCcsICc3LjAnLCAnLXRuJywgJzgnLCAnLW1hJywgJzIwMCcsICctaW1hZScsICc8aW5maWxlLm1hZT4nLCAnLW9tYWUnLCAnPG91dGZpbGUubWFlPic=

>  <r_epik_Ionization_Penalty>  (30) 
0.8328

>  <r_epik_Ionization_Penalty_Charging>  (30) 
0.8328

>  <r_epik_Ionization_Penalty_Neutral>  (30) 
9.0489e-09

>  <r_epik_State_Penalty>  (30) 
0.866834

>  <r_epik_Charging_Adjusted_Penalty>  (30) 
1.69963

>  <i_epik_Tot_Q>  (30) 
1

>  <i_epik_Tot_abs_Q>  (30) 
1

>  <s_epik_Chemistry_Notes>  (30) 
This compound has an imine and may undergo hydrolysis.

>  <s_lp_Force_Field>  (30) 
OPLS3e

>  <r_lp_Energy>  (30) 
154.96

>  <b_lp_Chiralities_Consistent>  (30) 
1

>  <s_lp_Variant>  (30) 
5:0-6

>  <s_i_glide_gridfile>  (30) 
pfpi4k_grid

>  <i_i_glide_lignum>  (30) 
11

>  <i_i_glide_rotatable_bonds>  (30) 
4

>  <r_i_docking_score>  (30) 
-2.13779

>  <r_i_glide_ligand_efficiency>  (30) 
-0.059383

>  <r_i_glide_ligand_efficiency_sa>  (30) 
-0.196078

>  <r_i_glide_ligand_efficiency_ln>  (30) 
-0.466407

>  <r_i_glide_gscore>  (30) 
-2.13779

>  <r_i_glide_lipo>  (30) 
-0.180186

>  <r_i_glide_hbond>  (30) 
0

>  <r_i_glide_metal>  (30) 
-0

>  <r_i_glide_rewards>  (30) 
-0.150493

>  <r_i_glide_evdw>  (30) 
-23.2134

>  <r_i_glide_ecoul>  (30) 
-4.45684

>  <r_i_glide_erotb>  (30) 
0.0349468

>  <r_i_glide_esite>  (30) 
-0.0128559

>  <r_i_glide_emodel>  (30) 
-29.7903

>  <r_i_glide_energy>  (30) 
-27.6703

>  <r_i_glide_einternal>  (30) 
2.98691

>  <r_i_glide_intrahb_reward>  (30) 
-0

>  <i_i_glide_confnum>  (30) 
5

>  <i_i_glide_posenum>  (30) 
15

>  <r_i_glide_eff_state_penalty>  (30) 
0

>  <ligand_id>  (30) 
5

>  <original_smiles>  (30) 
CC=CC12CC3CC34CCN(C)C4C3(C(C#N)=CC1N3C)C1SC3=NC(=C(Br)C(C)=O)OC3(OC)C12

>  <smiles>  (30) 
[H]C(=C([H])C12C3([H])C([H])=C(C#N)C(N3C([H])([H])[H])(C3([H])SC4=NC(=C(Br)C(=O)C([H])([H])[H])OC4(OC([H])([H])[H])C31[H])C1([H])C3(C([H])([H])C3([H])C2([H])[H])C([H])([H])C([H])([H])[N+]1([H])C([H])([H])[H])C([H])([H])[H]

$$$$
5:5:2
     RDKit          3D

 68 74  0  0  1  0  0  0  0  0999 V2000
    6.2431   -6.8864    7.5133 C   0  0  0  0  0  0  0  0  0  0  0  0
    5.8338   -5.7402    6.6103 C   0  0  0  0  0  0  0  0  0  0  0  0
    4.8903   -5.6966    5.6430 C   0  0  0  0  0  0  0  0  0  0  0  0
    3.8689   -6.7366    5.1455 C   0  0  2  0  0  0  0  0  0  0  0  0
    2.4991   -5.8773    4.8688 C   0  0  0  0  0  0  0  0  0  0  0  0
    1.0122   -6.4097    4.6322 C   0  0  1  0  0  0  0  0  0  0  0  0
    0.6531   -6.5961    3.1904 C   0  0  0  0  0  0  0  0  0  0  0  0
    0.4035   -7.7756    4.0985 C   0  0  2  0  0  0  0  0  0  0  0  0
   -1.0204   -8.2523    3.9345 C   0  0  0  0  0  0  0  0  0  0  0  0
   -0.8756   -9.4450    2.9534 C   0  0  0  0  0  0  0  0  0  0  0  0
    0.5450   -9.8894    3.0216 N   0  0  2  0  0  0  0  0  0  0  0  0
    0.7185  -11.3582    2.9976 C   0  0  0  0  0  0  0  0  0  0  0  0
    1.0669   -9.1825    4.2071 C   0  0  1  0  0  0  0  0  0  0  0  0
    2.5727   -9.1254    4.5862 C   0  0  2  0  0  0  0  0  0  0  0  0
    3.4789  -10.1052    5.2755 C   0  0  0  0  0  0  0  0  0  0  0  0
    3.5858  -11.4956    5.0032 C   0  0  0  0  0  0  0  0  0  0  0  0
    3.7305  -12.6143    4.7506 N   0  0  0  0  0  0  0  0  0  0  0  0
    4.2839   -9.3547    6.0498 C   0  0  0  0  0  0  0  0  0  0  0  0
    3.7074   -7.9270    6.2100 C   0  0  2  0  0  0  0  0  0  0  0  0
    2.4004   -8.3154    5.8432 N   0  0  0  0  0  0  0  0  0  0  0  0
    1.6650   -8.8340    7.0275 C   0  0  0  0  0  0  0  0  0  0  0  0
    3.5605   -8.5960    3.4352 C   0  0  1  0  0  0  0  0  0  0  0  0
    3.0155   -8.3928    1.7018 S   0  0  0  0  0  0  0  0  0  0  0  0
    3.8247   -6.8197    1.6080 C   0  0  0  0  0  0  0  0  0  0  0  0
    3.4989   -5.7949    0.9737 N   0  0  0  0  0  0  0  0  0  0  0  0
    4.1638   -4.7248    1.5912 C   0  0  0  0  0  0  0  0  0  0  0  0
    4.2917   -3.4384    1.1711 C   0  0  0  0  0  0  0  0  0  0  0  0
    5.4096   -2.3021    2.3563 Br  0  0  0  0  0  0  0  0  0  0  0  0
    3.7505   -2.8740   -0.0891 C   0  0  0  0  0  0  0  0  0  0  0  0
    2.7106   -3.6434   -0.8832 C   0  0  0  0  0  0  0  0  0  0  0  0
    4.1294   -1.7896   -0.5278 O   0  0  0  0  0  0  0  0  0  0  0  0
    4.7888   -5.2005    2.7311 O   0  0  0  0  0  0  0  0  0  0  0  0
    4.8617   -6.5771    2.6208 C   0  0  2  0  0  0  0  0  0  0  0  0
    6.1367   -7.0071    2.1903 O   0  0  0  0  0  0  0  0  0  0  0  0
    6.7905   -6.2310    1.1780 C   0  0  0  0  0  0  0  0  0  0  0  0
    4.4523   -7.4151    3.8799 C   0  0  1  0  0  0  0  0  0  0  0  0
    7.2839   -6.7778    7.8182 H   0  0  0  0  0  0  0  0  0  0  0  0
    6.1847   -7.8396    6.9991 H   0  0  0  0  0  0  0  0  0  0  0  0
    5.6244   -6.9120    8.4131 H   0  0  0  0  0  0  0  0  0  0  0  0
    6.3912   -4.8300    6.7936 H   0  0  0  0  0  0  0  0  0  0  0  0
    4.8161   -4.7484    5.1344 H   0  0  0  0  0  0  0  0  0  0  0  0
    2.3939   -5.2252    5.7363 H   0  0  0  0  0  0  0  0  0  0  0  0
    2.6984   -5.1777    4.0588 H   0  0  0  0  0  0  0  0  0  0  0  0
    0.2938   -5.8585    5.2380 H   0  0  0  0  0  0  0  0  0  0  0  0
   -0.1929   -6.0107    2.8515 H   0  0  0  0  0  0  0  0  0  0  0  0
    1.4463   -6.5794    2.4831 H   0  0  0  0  0  0  0  0  0  0  0  0
   -1.3971   -8.5907    4.9078 H   0  0  0  0  0  0  0  0  0  0  0  0
   -1.6976   -7.4780    3.5642 H   0  0  0  0  0  0  0  0  0  0  0  0
   -1.5604  -10.2385    3.2385 H   0  0  0  0  0  0  0  0  0  0  0  0
   -1.1252   -9.1475    1.9320 H   0  0  0  0  0  0  0  0  0  0  0  0
    0.2957  -11.8334    3.8867 H   0  0  0  0  0  0  0  0  0  0  0  0
    1.7751  -11.6184    2.9150 H   0  0  0  0  0  0  0  0  0  0  0  0
    0.2198  -11.7619    2.1145 H   0  0  0  0  0  0  0  0  0  0  0  0
    0.5711   -9.7392    5.0038 H   0  0  0  0  0  0  0  0  0  0  0  0
    5.1110   -9.7325    6.6302 H   0  0  0  0  0  0  0  0  0  0  0  0
    3.7140   -7.5806    7.2417 H   0  0  0  0  0  0  0  0  0  0  0  0
    1.7587   -8.1249    7.8556 H   0  0  0  0  0  0  0  0  0  0  0  0
    2.0237   -9.8023    7.3916 H   0  0  0  0  0  0  0  0  0  0  0  0
    0.5883   -8.9094    6.8550 H   0  0  0  0  0  0  0  0  0  0  0  0
    4.2895   -9.3900    3.2345 H   0  0  0  0  0  0  0  0  0  0  0  0
    1.8294   -3.7877   -0.2688 H   0  0  0  0  0  0  0  0  0  0  0  0
    3.1055   -4.6194   -1.1410 H   0  0  0  0  0  0  0  0  0  0  0  0
    2.4298   -3.1250   -1.7968 H   0  0  0  0  0  0  0  0  0  0  0  0
    7.7208   -6.7002    0.8616 H   0  0  0  0  0  0  0  0  0  0  0  0
    7.0299   -5.2421    1.5699 H   0  0  0  0  0  0  0  0  0  0  0  0
    6.1842   -6.0968    0.2806 H   0  0  0  0  0  0  0  0  0  0  0  0
    5.4022   -7.8283    4.2215 H   0  0  0  0  0  0  0  0  0  0  0  0
    1.0044   -9.5025    2.2089 H   0  0  0  0  0  0  0  0  0  0  0  0
  1  2  1  0
  1 37  1  0
  1 38  1  0
  1 39  1  0
  2  3  2  3
  2 40  1  0
  3  4  1  0
  3 41  1  0
  4 19  1  0
  4 36  1  0
  4  5  1  6
  5  6  1  0
  5 42  1  0
  5 43  1  0
  6  8  1  0
  6  7  1  0
  6 44  1  1
  8  7  1  6
  7 45  1  0
  7 46  1  0
  8 13  1  0
  8  9  1  0
  9 10  1  0
  9 47  1  0
  9 48  1  0
 10 11  1  0
 10 49  1  0
 10 50  1  0
 11 12  1  0
 11 13  1  0
 11 68  1  6
 12 51  1  0
 12 52  1  0
 12 53  1  0
 13 14  1  0
 13 54  1  1
 14 20  1  0
 14 15  1  1
 14 22  1  0
 15 16  1  0
 15 18  2  0
 16 17  3  0
 18 19  1  0
 18 55  1  0
 19 20  1  0
 19 56  1  1
 20 21  1  0
 21 57  1  0
 21 58  1  0
 21 59  1  0
 22 36  1  0
 22 23  1  0
 22 60  1  6
 23 24  1  0
 24 33  1  0
 24 25  2  0
 25 26  1  0
 26 27  2  3
 26 32  1  0
 27 28  1  0
 27 29  1  0
 29 30  1  0
 29 31  2  0
 30 61  1  0
 30 62  1  0
 30 63  1  0
 32 33  1  0
 33 34  1  6
 33 36  1  0
 34 35  1  0
 35 64  1  0
 35 65  1  0
 35 66  1  0
 36 67  1  1
M  CHG  1  11   1
M  END
>  <i_m_ct_stereo_status>  (31) 
1

>  <s_m_source_file>  (31) 
/var/tmp/pbs.5076255.sched01/tmpkni74bsw/0nq93mkxh.sdf

>  <i_m_source_file_index>  (31) 
11

>  <i_lp_mmshare_version>  (31) 
48012

>  <i_f3d_flags>  (31) 
0

>  <s_epik_input>  (31) 
W0NIM10vW0NIXT1bQ0hdL1tDQF0xKFtDSDJdW0NASF0oW0NAXTIzNClbQ0gyXTIpW0NAQEhdNVtDSF09QyhDI04pW0NAXShONVtDSDNdKShbQ0BASF00TihbQ0gzXSlbQ0gyXVtDSDJdMylbQ0BASF02W0NASF0xW0NAQF03KE9bQ0gzXSlDKFM2KT1OL0MoTzcpPUMoL0JyKUMoPU8pW0NIM10=

>  <s_epik_cmdline>  (31) 
J2VwaWtfcHl0aG9uJywgJy1waHQnLCAnMi4wJywgJy1waCcsICc3LjAnLCAnLXRuJywgJzgnLCAnLW1hJywgJzIwMCcsICctaW1hZScsICc8aW5maWxlLm1hZT4nLCAnLW9tYWUnLCAnPG91dGZpbGUubWFlPic=

>  <r_epik_Ionization_Penalty>  (31) 
0.8328

>  <r_epik_Ionization_Penalty_Charging>  (31) 
0.8328

>  <r_epik_Ionization_Penalty_Neutral>  (31) 
9.0489e-09

>  <r_epik_State_Penalty>  (31) 
0.866834

>  <r_epik_Charging_Adjusted_Penalty>  (31) 
1.69963

>  <i_epik_Tot_Q>  (31) 
1

>  <i_epik_Tot_abs_Q>  (31) 
1

>  <s_epik_Chemistry_Notes>  (31) 
This compound has an imine and may undergo hydrolysis.

>  <s_lp_Force_Field>  (31) 
OPLS3e

>  <r_lp_Energy>  (31) 
154.96

>  <b_lp_Chiralities_Consistent>  (31) 
1

>  <s_lp_Variant>  (31) 
5:0-6

>  <s_i_glide_gridfile>  (31) 
pfpi4k_grid

>  <i_i_glide_lignum>  (31) 
11

>  <i_i_glide_rotatable_bonds>  (31) 
4

>  <r_i_docking_score>  (31) 
-2.10101

>  <r_i_glide_ligand_efficiency>  (31) 
-0.0583613

>  <r_i_glide_ligand_efficiency_sa>  (31) 
-0.192705

>  <r_i_glide_ligand_efficiency_ln>  (31) 
-0.458383

>  <r_i_glide_gscore>  (31) 
-2.10101

>  <r_i_glide_lipo>  (31) 
-0.25614

>  <r_i_glide_hbond>  (31) 
0

>  <r_i_glide_metal>  (31) 
-0

>  <r_i_glide_rewards>  (31) 
-0.0756483

>  <r_i_glide_evdw>  (31) 
-26.2326

>  <r_i_glide_ecoul>  (31) 
-2.93097

>  <r_i_glide_erotb>  (31) 
0.0349468

>  <r_i_glide_esite>  (31) 
-0.0528907

>  <r_i_glide_emodel>  (31) 
-33.1384

>  <r_i_glide_energy>  (31) 
-29.1636

>  <r_i_glide_einternal>  (31) 
2.44637

>  <r_i_glide_intrahb_reward>  (31) 
-0

>  <i_i_glide_confnum>  (31) 
1

>  <i_i_glide_posenum>  (31) 
10

>  <r_i_glide_eff_state_penalty>  (31) 
0

>  <ligand_id>  (31) 
5

>  <original_smiles>  (31) 
CC=CC12CC3CC34CCN(C)C4C3(C(C#N)=CC1N3C)C1SC3=NC(=C(Br)C(C)=O)OC3(OC)C12

>  <smiles>  (31) 
[H]C(=C([H])C12C3([H])C([H])=C(C#N)C(N3C([H])([H])[H])(C3([H])SC4=NC(=C(Br)C(=O)C([H])([H])[H])OC4(OC([H])([H])[H])C31[H])C1([H])C3(C([H])([H])C3([H])C2([H])[H])C([H])([H])C([H])([H])[N+]1([H])C([H])([H])[H])C([H])([H])[H]

$$$$
5:6:0
     RDKit          3D

 68 74  0  0  1  0  0  0  0  0999 V2000
    4.8029   -0.6807    4.8347 C   0  0  0  0  0  0  0  0  0  0  0  0
    4.4952   -2.1629    4.8003 C   0  0  0  0  0  0  0  0  0  0  0  0
    4.1750   -2.8396    3.6808 C   0  0  0  0  0  0  0  0  0  0  0  0
    3.8500   -4.3314    3.5379 C   0  0  2  0  0  0  0  0  0  0  0  0
    2.4995   -4.4134    2.6252 C   0  0  0  0  0  0  0  0  0  0  0  0
    1.5463   -5.6707    2.3711 C   0  0  1  0  0  0  0  0  0  0  0  0
    1.8929   -6.4806    1.1643 C   0  0  0  0  0  0  0  0  0  0  0  0
    1.7438   -7.2434    2.4584 C   0  0  2  0  0  0  0  0  0  0  0  0
    0.7850   -8.3910    2.2580 C   0  0  0  0  0  0  0  0  0  0  0  0
    1.7207   -9.6022    2.0377 C   0  0  0  0  0  0  0  0  0  0  0  0
    3.0451   -9.2269    2.6099 N   0  0  2  0  0  0  0  0  0  0  0  0
    3.7253  -10.3267    3.3264 C   0  0  0  0  0  0  0  0  0  0  0  0
    2.7569   -7.9927    3.3754 C   0  0  1  0  0  0  0  0  0  0  0  0
    3.8512   -7.0675    3.9736 C   0  0  2  0  0  0  0  0  0  0  0  0
    4.6984   -7.1430    5.2153 C   0  0  0  0  0  0  0  0  0  0  0  0
    5.4015   -8.2811    5.6821 C   0  0  0  0  0  0  0  0  0  0  0  0
    5.9796   -9.2247    6.0344 N   0  0  0  0  0  0  0  0  0  0  0  0
    4.7853   -5.8742    5.6647 C   0  0  0  0  0  0  0  0  0  0  0  0
    3.7086   -4.9936    4.9950 C   0  0  2  0  0  0  0  0  0  0  0  0
    2.9083   -6.0949    4.6135 N   0  0  0  0  0  0  0  0  0  0  0  0
    2.0003   -6.4816    5.7237 C   0  0  0  0  0  0  0  0  0  0  0  0
    4.9492   -6.5503    2.9335 C   0  0  1  0  0  0  0  0  0  0  0  0
    5.1044   -7.2532    1.2542 S   0  0  0  0  0  0  0  0  0  0  0  0
    5.3027   -5.6312    0.5463 C   0  0  0  0  0  0  0  0  0  0  0  0
    4.9457   -5.1974   -0.5794 N   0  0  0  0  0  0  0  0  0  0  0  0
    4.8416   -3.8142   -0.4314 C   0  0  0  0  0  0  0  0  0  0  0  0
    4.6745   -2.9025   -1.4259 C   0  0  0  0  0  0  0  0  0  0  0  0
    4.6178   -3.5738   -3.3084 Br  0  0  0  0  0  0  0  0  0  0  0  0
    4.6471   -1.4519   -1.1606 C   0  0  0  0  0  0  0  0  0  0  0  0
    4.2957   -0.5534   -2.3412 C   0  0  0  0  0  0  0  0  0  0  0  0
    4.9080   -0.9316   -0.0822 O   0  0  0  0  0  0  0  0  0  0  0  0
    5.0288   -3.4924    0.8940 O   0  0  0  0  0  0  0  0  0  0  0  0
    5.6432   -4.5684    1.5056 C   0  0  2  0  0  0  0  0  0  0  0  0
    7.0366   -4.3884    1.6366 O   0  0  0  0  0  0  0  0  0  0  0  0
    7.7324   -3.7407    0.5666 C   0  0  0  0  0  0  0  0  0  0  0  0
    5.0859   -5.0155    2.9007 C   0  0  1  0  0  0  0  0  0  0  0  0
    5.8121   -0.5216    5.2159 H   0  0  0  0  0  0  0  0  0  0  0  0
    4.1030   -0.1638    5.4935 H   0  0  0  0  0  0  0  0  0  0  0  0
    4.7355   -0.2345    3.8413 H   0  0  0  0  0  0  0  0  0  0  0  0
    4.5547   -2.6536    5.7586 H   0  0  0  0  0  0  0  0  0  0  0  0
    4.1280   -2.2712    2.7636 H   0  0  0  0  0  0  0  0  0  0  0  0
    1.8250   -3.6622    3.0378 H   0  0  0  0  0  0  0  0  0  0  0  0
    2.7369   -4.0197    1.6403 H   0  0  0  0  0  0  0  0  0  0  0  0
    0.5051   -5.3990    2.4797 H   0  0  0  0  0  0  0  0  0  0  0  0
    1.1066   -6.5662    0.4159 H   0  0  0  0  0  0  0  0  0  0  0  0
    2.8439   -6.2911    0.7260 H   0  0  0  0  0  0  0  0  0  0  0  0
    0.1859   -8.5181    3.1633 H   0  0  0  0  0  0  0  0  0  0  0  0
    0.0994   -8.2365    1.4263 H   0  0  0  0  0  0  0  0  0  0  0  0
    1.3042  -10.4929    2.5038 H   0  0  0  0  0  0  0  0  0  0  0  0
    1.8413   -9.8212    0.9813 H   0  0  0  0  0  0  0  0  0  0  0  0
    3.1659  -10.6324    4.2075 H   0  0  0  0  0  0  0  0  0  0  0  0
    4.7250  -10.0276    3.6212 H   0  0  0  0  0  0  0  0  0  0  0  0
    3.8211  -11.1862    2.6683 H   0  0  0  0  0  0  0  0  0  0  0  0
    2.2058   -8.4202    4.2144 H   0  0  0  0  0  0  0  0  0  0  0  0
    5.3842   -5.5394    6.4997 H   0  0  0  0  0  0  0  0  0  0  0  0
    3.1820   -4.3664    5.7175 H   0  0  0  0  0  0  0  0  0  0  0  0
    1.4799   -5.5999    6.1069 H   0  0  0  0  0  0  0  0  0  0  0  0
    2.5027   -6.9477    6.5765 H   0  0  0  0  0  0  0  0  0  0  0  0
    1.1945   -7.1443    5.4029 H   0  0  0  0  0  0  0  0  0  0  0  0
    5.9334   -6.8706    3.3021 H   0  0  0  0  0  0  0  0  0  0  0  0
    3.3364   -0.8552   -2.7567 H   0  0  0  0  0  0  0  0  0  0  0  0
    5.0434   -0.6266   -3.1217 H   0  0  0  0  0  0  0  0  0  0  0  0
    4.2260    0.4856   -2.0295 H   0  0  0  0  0  0  0  0  0  0  0  0
    8.8078   -3.6981    0.7543 H   0  0  0  0  0  0  0  0  0  0  0  0
    7.3770   -2.7171    0.4665 H   0  0  0  0  0  0  0  0  0  0  0  0
    7.5998   -4.2441   -0.3908 H   0  0  0  0  0  0  0  0  0  0  0  0
    5.8962   -4.7481    3.5806 H   0  0  0  0  0  0  0  0  0  0  0  0
    3.6240   -8.9625    1.8210 H   0  0  0  0  0  0  0  0  0  0  0  0
  1  2  1  0
  1 37  1  0
  1 38  1  0
  1 39  1  0
  2  3  2  3
  2 40  1  0
  3  4  1  0
  3 41  1  0
  4 19  1  0
  4 36  1  0
  4  5  1  6
  5  6  1  0
  5 42  1  0
  5 43  1  0
  6  8  1  0
  6  7  1  0
  6 44  1  6
  8  7  1  6
  7 45  1  0
  7 46  1  0
  8 13  1  0
  8  9  1  0
  9 10  1  0
  9 47  1  0
  9 48  1  0
 10 11  1  0
 10 49  1  0
 10 50  1  0
 11 12  1  0
 11 13  1  0
 11 68  1  6
 12 51  1  0
 12 52  1  0
 12 53  1  0
 13 14  1  0
 13 54  1  1
 14 20  1  0
 14 15  1  1
 14 22  1  0
 15 16  1  0
 15 18  2  0
 16 17  3  0
 18 19  1  0
 18 55  1  0
 19 20  1  0
 19 56  1  1
 20 21  1  0
 21 57  1  0
 21 58  1  0
 21 59  1  0
 22 36  1  0
 22 23  1  0
 22 60  1  1
 23 24  1  0
 24 33  1  0
 24 25  2  0
 25 26  1  0
 26 27  2  3
 26 32  1  0
 27 28  1  0
 27 29  1  0
 29 30  1  0
 29 31  2  0
 30 61  1  0
 30 62  1  0
 30 63  1  0
 32 33  1  0
 33 34  1  1
 33 36  1  0
 34 35  1  0
 35 64  1  0
 35 65  1  0
 35 66  1  0
 36 67  1  1
M  CHG  1  11   1
M  END
>  <i_m_ct_stereo_status>  (32) 
1

>  <s_m_source_file>  (32) 
/var/tmp/pbs.5076255.sched01/tmpkni74bsw/0nq93mkxh.sdf

>  <i_m_source_file_index>  (32) 
12

>  <i_lp_mmshare_version>  (32) 
48012

>  <i_f3d_flags>  (32) 
0

>  <s_epik_input>  (32) 
W0NIM10vW0NIXT1bQ0hdL1tDQF0xKFtDSDJdW0NASF0oW0NAXTIzNClbQ0gyXTIpW0NAQEhdNVtDSF09QyhDI04pW0NAXShONVtDSDNdKShbQ0BASF00TihbQ0gzXSlbQ0gyXVtDSDJdMylbQ0BASF02W0NASF0xW0NAQF03KE9bQ0gzXSlDKFM2KT1OL0MoTzcpPUMoL0JyKUMoPU8pW0NIM10=

>  <s_epik_cmdline>  (32) 
J2VwaWtfcHl0aG9uJywgJy1waHQnLCAnMi4wJywgJy1waCcsICc3LjAnLCAnLXRuJywgJzgnLCAnLW1hJywgJzIwMCcsICctaW1hZScsICc8aW5maWxlLm1hZT4nLCAnLW9tYWUnLCAnPG91dGZpbGUubWFlPic=

>  <r_epik_Ionization_Penalty>  (32) 
0.8328

>  <r_epik_Ionization_Penalty_Charging>  (32) 
0.8328

>  <r_epik_Ionization_Penalty_Neutral>  (32) 
9.0489e-09

>  <r_epik_State_Penalty>  (32) 
0.866834

>  <r_epik_Charging_Adjusted_Penalty>  (32) 
1.69963

>  <i_epik_Tot_Q>  (32) 
1

>  <i_epik_Tot_abs_Q>  (32) 
1

>  <s_epik_Chemistry_Notes>  (32) 
This compound has an imine and may undergo hydrolysis.

>  <s_lp_Force_Field>  (32) 
OPLS3e

>  <r_lp_Energy>  (32) 
150.493

>  <b_lp_Chiralities_Consistent>  (32) 
1

>  <s_lp_Variant>  (32) 
5:0-7

>  <s_i_glide_gridfile>  (32) 
pfpi4k_grid

>  <i_i_glide_lignum>  (32) 
12

>  <i_i_glide_rotatable_bonds>  (32) 
4

>  <r_i_docking_score>  (32) 
-2.38946

>  <r_i_glide_ligand_efficiency>  (32) 
-0.0663739

>  <r_i_glide_ligand_efficiency_sa>  (32) 
-0.219162

>  <r_i_glide_ligand_efficiency_ln>  (32) 
-0.521316

>  <r_i_glide_gscore>  (32) 
-2.38946

>  <r_i_glide_lipo>  (32) 
-0.57807

>  <r_i_glide_hbond>  (32) 
0

>  <r_i_glide_metal>  (32) 
-0

>  <r_i_glide_rewards>  (32) 
-0.219157

>  <r_i_glide_evdw>  (32) 
-27.9854

>  <r_i_glide_ecoul>  (32) 
-1.12283

>  <r_i_glide_erotb>  (32) 
0.0349468

>  <r_i_glide_esite>  (32) 
-0.0594859

>  <r_i_glide_emodel>  (32) 
-32.5527

>  <r_i_glide_energy>  (32) 
-29.1083

>  <r_i_glide_einternal>  (32) 
4.48468

>  <r_i_glide_intrahb_reward>  (32) 
-0

>  <i_i_glide_confnum>  (32) 
2

>  <i_i_glide_posenum>  (32) 
38

>  <r_i_glide_eff_state_penalty>  (32) 
0

>  <ligand_id>  (32) 
5

>  <original_smiles>  (32) 
CC=CC12CC3CC34CCN(C)C4C3(C(C#N)=CC1N3C)C1SC3=NC(=C(Br)C(C)=O)OC3(OC)C12

>  <smiles>  (32) 
[H]C(=C([H])C12C3([H])C([H])=C(C#N)C(N3C([H])([H])[H])(C3([H])SC4=NC(=C(Br)C(=O)C([H])([H])[H])OC4(OC([H])([H])[H])C31[H])C1([H])C3(C([H])([H])C3([H])C2([H])[H])C([H])([H])C([H])([H])[N+]1([H])C([H])([H])[H])C([H])([H])[H]

$$$$
5:6:1
     RDKit          3D

 68 74  0  0  1  0  0  0  0  0999 V2000
    7.5440   -4.4252    6.8242 C   0  0  0  0  0  0  0  0  0  0  0  0
    6.8598   -5.7332    6.4968 C   0  0  0  0  0  0  0  0  0  0  0  0
    6.0730   -5.9301    5.4222 C   0  0  0  0  0  0  0  0  0  0  0  0
    5.3402   -7.2119    5.0019 C   0  0  2  0  0  0  0  0  0  0  0  0
    3.7487   -6.8473    5.0253 C   0  0  0  0  0  0  0  0  0  0  0  0
    2.4987   -7.8423    4.9618 C   0  0  1  0  0  0  0  0  0  0  0  0
    1.9815   -8.0857    3.5774 C   0  0  0  0  0  0  0  0  0  0  0  0
    2.2870   -9.3134    4.4036 C   0  0  2  0  0  0  0  0  0  0  0  0
    1.0849  -10.2299    4.4193 C   0  0  0  0  0  0  0  0  0  0  0  0
    1.4293  -11.2742    3.3278 C   0  0  0  0  0  0  0  0  0  0  0  0
    2.9096  -11.2226    3.1355 N   0  0  2  0  0  0  0  0  0  0  0  0
    3.5423  -12.5398    2.9437 C   0  0  0  0  0  0  0  0  0  0  0  0
    3.3779  -10.4210    4.2829 C   0  0  1  0  0  0  0  0  0  0  0  0
    4.8295   -9.8810    4.4328 C   0  0  2  0  0  0  0  0  0  0  0  0
    6.1266  -10.5068    4.8781 C   0  0  0  0  0  0  0  0  0  0  0  0
    6.6343  -11.7678    4.4562 C   0  0  0  0  0  0  0  0  0  0  0  0
    7.0454  -12.7862    4.0925 N   0  0  0  0  0  0  0  0  0  0  0  0
    6.7613   -9.5488    5.5861 C   0  0  0  0  0  0  0  0  0  0  0  0
    5.7713   -8.4248    5.9694 C   0  0  2  0  0  0  0  0  0  0  0  0
    4.6245   -9.2263    5.7684 N   0  0  0  0  0  0  0  0  0  0  0  0
    4.3153  -10.0073    6.9965 C   0  0  0  0  0  0  0  0  0  0  0  0
    5.3595   -9.0136    3.1953 C   0  0  1  0  0  0  0  0  0  0  0  0
    4.4933   -8.9565    1.5833 S   0  0  0  0  0  0  0  0  0  0  0  0
    4.7424   -7.2026    1.4662 C   0  0  0  0  0  0  0  0  0  0  0  0
    4.0565   -6.3211    0.8940 N   0  0  0  0  0  0  0  0  0  0  0  0
    4.4309   -5.1178    1.5047 C   0  0  0  0  0  0  0  0  0  0  0  0
    4.0086   -3.8770    1.1684 C   0  0  0  0  0  0  0  0  0  0  0  0
    2.7876   -3.7525   -0.3949 Br  0  0  0  0  0  0  0  0  0  0  0  0
    4.4604   -2.6630    1.8866 C   0  0  0  0  0  0  0  0  0  0  0  0
    3.9434   -1.3153    1.3947 C   0  0  0  0  0  0  0  0  0  0  0  0
    5.2206   -2.6706    2.8525 O   0  0  0  0  0  0  0  0  0  0  0  0
    5.3007   -5.3909    2.5391 O   0  0  0  0  0  0  0  0  0  0  0  0
    5.7817   -6.6692    2.3601 C   0  0  2  0  0  0  0  0  0  0  0  0
    7.0000   -6.6756    1.6716 O   0  0  0  0  0  0  0  0  0  0  0  0
    7.9989   -5.7925    2.1701 C   0  0  0  0  0  0  0  0  0  0  0  0
    5.8732   -7.6206    3.6032 C   0  0  1  0  0  0  0  0  0  0  0  0
    8.6204   -4.5931    6.8816 H   0  0  0  0  0  0  0  0  0  0  0  0
    7.2061   -4.0552    7.7930 H   0  0  0  0  0  0  0  0  0  0  0  0
    7.3376   -3.6623    6.0735 H   0  0  0  0  0  0  0  0  0  0  0  0
    7.0608   -6.5110    7.2147 H   0  0  0  0  0  0  0  0  0  0  0  0
    5.9315   -5.0812    4.7720 H   0  0  0  0  0  0  0  0  0  0  0  0
    3.5930   -6.3076    5.9604 H   0  0  0  0  0  0  0  0  0  0  0  0
    3.5695   -6.0874    4.2662 H   0  0  0  0  0  0  0  0  0  0  0  0
    1.7557   -7.5899    5.7152 H   0  0  0  0  0  0  0  0  0  0  0  0
    0.9404   -7.8140    3.4160 H   0  0  0  0  0  0  0  0  0  0  0  0
    2.6060   -7.7746    2.7714 H   0  0  0  0  0  0  0  0  0  0  0  0
    1.0011  -10.7028    5.4028 H   0  0  0  0  0  0  0  0  0  0  0  0
    0.1411   -9.7129    4.2225 H   0  0  0  0  0  0  0  0  0  0  0  0
    1.0804  -12.2602    3.6327 H   0  0  0  0  0  0  0  0  0  0  0  0
    0.9201  -11.0208    2.4008 H   0  0  0  0  0  0  0  0  0  0  0  0
    3.4430  -13.1460    3.8446 H   0  0  0  0  0  0  0  0  0  0  0  0
    4.5989  -12.4379    2.7009 H   0  0  0  0  0  0  0  0  0  0  0  0
    3.0625  -13.0533    2.1082 H   0  0  0  0  0  0  0  0  0  0  0  0
    3.2312  -11.1423    5.0897 H   0  0  0  0  0  0  0  0  0  0  0  0
    7.7624   -9.6102    5.9854 H   0  0  0  0  0  0  0  0  0  0  0  0
    5.8418   -8.1589    7.0230 H   0  0  0  0  0  0  0  0  0  0  0  0
    4.3060   -9.3463    7.8674 H   0  0  0  0  0  0  0  0  0  0  0  0
    5.0320  -10.8049    7.2136 H   0  0  0  0  0  0  0  0  0  0  0  0
    3.3142  -10.4449    6.9832 H   0  0  0  0  0  0  0  0  0  0  0  0
    6.2671   -9.5001    2.8172 H   0  0  0  0  0  0  0  0  0  0  0  0
    2.8544   -1.3130    1.3865 H   0  0  0  0  0  0  0  0  0  0  0  0
    4.2947   -1.1209    0.3823 H   0  0  0  0  0  0  0  0  0  0  0  0
    4.2890   -0.5114    2.0455 H   0  0  0  0  0  0  0  0  0  0  0  0
    8.9036   -5.9316    1.5783 H   0  0  0  0  0  0  0  0  0  0  0  0
    8.2511   -5.9934    3.2130 H   0  0  0  0  0  0  0  0  0  0  0  0
    7.7000   -4.7454    2.0781 H   0  0  0  0  0  0  0  0  0  0  0  0
    6.9442   -7.7251    3.7664 H   0  0  0  0  0  0  0  0  0  0  0  0
    3.0838  -10.6887    2.2916 H   0  0  0  0  0  0  0  0  0  0  0  0
  1  2  1  0
  1 37  1  0
  1 38  1  0
  1 39  1  0
  2  3  2  3
  2 40  1  0
  3  4  1  0
  3 41  1  0
  4 19  1  0
  4 36  1  0
  4  5  1  6
  5  6  1  0
  5 42  1  0
  5 43  1  0
  6  8  1  0
  6  7  1  0
  6 44  1  1
  8  7  1  6
  7 45  1  0
  7 46  1  0
  8 13  1  0
  8  9  1  0
  9 10  1  0
  9 47  1  0
  9 48  1  0
 10 11  1  0
 10 49  1  0
 10 50  1  0
 11 12  1  0
 11 13  1  0
 11 68  1  6
 12 51  1  0
 12 52  1  0
 12 53  1  0
 13 14  1  0
 13 54  1  1
 14 20  1  0
 14 15  1  1
 14 22  1  0
 15 16  1  0
 15 18  2  0
 16 17  3  0
 18 19  1  0
 18 55  1  0
 19 20  1  0
 19 56  1  1
 20 21  1  0
 21 57  1  0
 21 58  1  0
 21 59  1  0
 22 36  1  0
 22 23  1  0
 22 60  1  6
 23 24  1  0
 24 33  1  0
 24 25  2  0
 25 26  1  0
 26 27  2  3
 26 32  1  0
 27 28  1  0
 27 29  1  0
 29 30  1  0
 29 31  2  0
 30 61  1  0
 30 62  1  0
 30 63  1  0
 32 33  1  0
 33 34  1  6
 33 36  1  0
 34 35  1  0
 35 64  1  0
 35 65  1  0
 35 66  1  0
 36 67  1  1
M  CHG  1  11   1
M  END
>  <i_m_ct_stereo_status>  (33) 
1

>  <s_m_source_file>  (33) 
/var/tmp/pbs.5076255.sched01/tmpkni74bsw/0nq93mkxh.sdf

>  <i_m_source_file_index>  (33) 
12

>  <i_lp_mmshare_version>  (33) 
48012

>  <i_f3d_flags>  (33) 
0

>  <s_epik_input>  (33) 
W0NIM10vW0NIXT1bQ0hdL1tDQF0xKFtDSDJdW0NASF0oW0NAXTIzNClbQ0gyXTIpW0NAQEhdNVtDSF09QyhDI04pW0NAXShONVtDSDNdKShbQ0BASF00TihbQ0gzXSlbQ0gyXVtDSDJdMylbQ0BASF02W0NASF0xW0NAQF03KE9bQ0gzXSlDKFM2KT1OL0MoTzcpPUMoL0JyKUMoPU8pW0NIM10=

>  <s_epik_cmdline>  (33) 
J2VwaWtfcHl0aG9uJywgJy1waHQnLCAnMi4wJywgJy1waCcsICc3LjAnLCAnLXRuJywgJzgnLCAnLW1hJywgJzIwMCcsICctaW1hZScsICc8aW5maWxlLm1hZT4nLCAnLW9tYWUnLCAnPG91dGZpbGUubWFlPic=

>  <r_epik_Ionization_Penalty>  (33) 
0.8328

>  <r_epik_Ionization_Penalty_Charging>  (33) 
0.8328

>  <r_epik_Ionization_Penalty_Neutral>  (33) 
9.0489e-09

>  <r_epik_State_Penalty>  (33) 
0.866834

>  <r_epik_Charging_Adjusted_Penalty>  (33) 
1.69963

>  <i_epik_Tot_Q>  (33) 
1

>  <i_epik_Tot_abs_Q>  (33) 
1

>  <s_epik_Chemistry_Notes>  (33) 
This compound has an imine and may undergo hydrolysis.

>  <s_lp_Force_Field>  (33) 
OPLS3e

>  <r_lp_Energy>  (33) 
150.493

>  <b_lp_Chiralities_Consistent>  (33) 
1

>  <s_lp_Variant>  (33) 
5:0-7

>  <s_i_glide_gridfile>  (33) 
pfpi4k_grid

>  <i_i_glide_lignum>  (33) 
12

>  <i_i_glide_rotatable_bonds>  (33) 
4

>  <r_i_docking_score>  (33) 
-2.31188

>  <r_i_glide_ligand_efficiency>  (33) 
-0.0642189

>  <r_i_glide_ligand_efficiency_sa>  (33) 
-0.212046

>  <r_i_glide_ligand_efficiency_ln>  (33) 
-0.50439

>  <r_i_glide_gscore>  (33) 
-2.31188

>  <r_i_glide_lipo>  (33) 
-0.267977

>  <r_i_glide_hbond>  (33) 
0

>  <r_i_glide_metal>  (33) 
-0

>  <r_i_glide_rewards>  (33) 
-0.156119

>  <r_i_glide_evdw>  (33) 
-23.6133

>  <r_i_glide_ecoul>  (33) 
-4.7356

>  <r_i_glide_erotb>  (33) 
0.0349468

>  <r_i_glide_esite>  (33) 
-0.0317241

>  <r_i_glide_emodel>  (33) 
-33.194

>  <r_i_glide_energy>  (33) 
-28.3489

>  <r_i_glide_einternal>  (33) 
1.85419

>  <r_i_glide_intrahb_reward>  (33) 
-0

>  <i_i_glide_confnum>  (33) 
3

>  <i_i_glide_posenum>  (33) 
31

>  <r_i_glide_eff_state_penalty>  (33) 
0

>  <ligand_id>  (33) 
5

>  <original_smiles>  (33) 
CC=CC12CC3CC34CCN(C)C4C3(C(C#N)=CC1N3C)C1SC3=NC(=C(Br)C(C)=O)OC3(OC)C12

>  <smiles>  (33) 
[H]C(=C([H])C12C3([H])C([H])=C(C#N)C(N3C([H])([H])[H])(C3([H])SC4=NC(=C(Br)C(=O)C([H])([H])[H])OC4(OC([H])([H])[H])C31[H])C1([H])C3(C([H])([H])C3([H])C2([H])[H])C([H])([H])C([H])([H])[N+]1([H])C([H])([H])[H])C([H])([H])[H]

$$$$
5:6:2
     RDKit          3D

 68 74  0  0  1  0  0  0  0  0999 V2000
    6.6607   -4.4120    6.8089 C   0  0  0  0  0  0  0  0  0  0  0  0
    5.6704   -5.5078    6.4677 C   0  0  0  0  0  0  0  0  0  0  0  0
    4.8600   -5.4834    5.3939 C   0  0  0  0  0  0  0  0  0  0  0  0
    3.8331   -6.5375    4.9654 C   0  0  2  0  0  0  0  0  0  0  0  0
    2.4553   -5.7210    4.6434 C   0  0  0  0  0  0  0  0  0  0  0  0
    0.9844   -6.3030    4.4234 C   0  0  1  0  0  0  0  0  0  0  0  0
    0.6549   -6.5894    2.9916 C   0  0  0  0  0  0  0  0  0  0  0  0
    0.4111   -7.7135    3.9701 C   0  0  2  0  0  0  0  0  0  0  0  0
   -1.0034   -8.2205    3.8220 C   0  0  0  0  0  0  0  0  0  0  0  0
   -0.8300   -9.4648    2.9141 C   0  0  0  0  0  0  0  0  0  0  0  0
    0.5946   -9.8886    3.0275 N   0  0  2  0  0  0  0  0  0  0  0  0
    0.7807  -11.3532    3.0957 C   0  0  0  0  0  0  0  0  0  0  0  0
    1.0982   -9.1008    4.1723 C   0  0  1  0  0  0  0  0  0  0  0  0
    2.6020   -8.9922    4.5622 C   0  0  2  0  0  0  0  0  0  0  0  0
    3.5399   -9.8995    5.3128 C   0  0  0  0  0  0  0  0  0  0  0  0
    3.6842  -11.3015    5.1109 C   0  0  0  0  0  0  0  0  0  0  0  0
    3.8269  -12.4280    4.8970 N   0  0  0  0  0  0  0  0  0  0  0  0
    4.3267   -9.0744    6.0382 C   0  0  0  0  0  0  0  0  0  0  0  0
    3.6998   -7.6619    6.1082 C   0  0  2  0  0  0  0  0  0  0  0  0
    2.4027   -8.1093    5.7619 N   0  0  0  0  0  0  0  0  0  0  0  0
    1.6737   -8.5821    6.9675 C   0  0  0  0  0  0  0  0  0  0  0  0
    3.5752   -8.5140    3.3858 C   0  0  1  0  0  0  0  0  0  0  0  0
    3.0335   -8.4411    1.6505 S   0  0  0  0  0  0  0  0  0  0  0  0
    3.8442   -6.8754    1.4109 C   0  0  0  0  0  0  0  0  0  0  0  0
    3.5674   -5.9261    0.6372 N   0  0  0  0  0  0  0  0  0  0  0  0
    4.2031   -4.8068    1.1886 C   0  0  0  0  0  0  0  0  0  0  0  0
    4.2528   -3.5606    0.6619 C   0  0  0  0  0  0  0  0  0  0  0  0
    3.4073   -3.3068   -1.1198 Br  0  0  0  0  0  0  0  0  0  0  0  0
    4.9427   -2.4403    1.3412 C   0  0  0  0  0  0  0  0  0  0  0  0
    5.0329   -1.1079    0.6038 C   0  0  0  0  0  0  0  0  0  0  0  0
    5.4407   -2.5122    2.4616 O   0  0  0  0  0  0  0  0  0  0  0  0
    4.7705   -5.1670    2.3973 O   0  0  0  0  0  0  0  0  0  0  0  0
    4.8439   -6.5427    2.4329 C   0  0  2  0  0  0  0  0  0  0  0  0
    6.0904   -7.0090    2.0005 O   0  0  0  0  0  0  0  0  0  0  0  0
    7.2239   -6.4046    2.6124 C   0  0  0  0  0  0  0  0  0  0  0  0
    4.4268   -7.2869    3.7496 C   0  0  1  0  0  0  0  0  0  0  0  0
    7.6716   -4.8225    6.8350 H   0  0  0  0  0  0  0  0  0  0  0  0
    6.4333   -3.9943    7.7906 H   0  0  0  0  0  0  0  0  0  0  0  0
    6.6358   -3.6062    6.0745 H   0  0  0  0  0  0  0  0  0  0  0  0
    5.6660   -6.3335    7.1608 H   0  0  0  0  0  0  0  0  0  0  0  0
    4.9234   -4.6188    4.7515 H   0  0  0  0  0  0  0  0  0  0  0  0
    2.3313   -5.0268    5.4769 H   0  0  0  0  0  0  0  0  0  0  0  0
    2.6495   -5.0631    3.7970 H   0  0  0  0  0  0  0  0  0  0  0  0
    0.2466   -5.7320    4.9827 H   0  0  0  0  0  0  0  0  0  0  0  0
   -0.1955   -6.0478    2.5986 H   0  0  0  0  0  0  0  0  0  0  0  0
    1.4664   -6.5940    2.3036 H   0  0  0  0  0  0  0  0  0  0  0  0
   -1.3880   -8.5055    4.8075 H   0  0  0  0  0  0  0  0  0  0  0  0
   -1.6901   -7.4823    3.3997 H   0  0  0  0  0  0  0  0  0  0  0  0
   -1.5102  -10.2507    3.2327 H   0  0  0  0  0  0  0  0  0  0  0  0
   -1.0721   -9.2313    1.8759 H   0  0  0  0  0  0  0  0  0  0  0  0
    0.3503  -11.7777    4.0042 H   0  0  0  0  0  0  0  0  0  0  0  0
    1.8400  -11.6067    3.0483 H   0  0  0  0  0  0  0  0  0  0  0  0
    0.2797  -11.8179    2.2437 H   0  0  0  0  0  0  0  0  0  0  0  0
    0.6017   -9.6186    4.9926 H   0  0  0  0  0  0  0  0  0  0  0  0
    5.1791   -9.3703    6.6283 H   0  0  0  0  0  0  0  0  0  0  0  0
    3.7019   -7.2590    7.1208 H   0  0  0  0  0  0  0  0  0  0  0  0
    1.7368   -7.8259    7.7544 H   0  0  0  0  0  0  0  0  0  0  0  0
    2.0565   -9.5176    7.3880 H   0  0  0  0  0  0  0  0  0  0  0  0
    0.6025   -8.7030    6.7919 H   0  0  0  0  0  0  0  0  0  0  0  0
    4.3277   -9.2973    3.2347 H   0  0  0  0  0  0  0  0  0  0  0  0
    4.0355   -0.7660    0.3328 H   0  0  0  0  0  0  0  0  0  0  0  0
    5.6203   -1.2161   -0.3061 H   0  0  0  0  0  0  0  0  0  0  0  0
    5.5014   -0.3511    1.2352 H   0  0  0  0  0  0  0  0  0  0  0  0
    8.1207   -6.8882    2.2229 H   0  0  0  0  0  0  0  0  0  0  0  0
    7.2248   -6.5285    3.6967 H   0  0  0  0  0  0  0  0  0  0  0  0
    7.2940   -5.3385    2.3819 H   0  0  0  0  0  0  0  0  0  0  0  0
    5.3686   -7.6779    4.1301 H   0  0  0  0  0  0  0  0  0  0  0  0
    1.0554   -9.5504    2.1949 H   0  0  0  0  0  0  0  0  0  0  0  0
  1  2  1  0
  1 37  1  0
  1 38  1  0
  1 39  1  0
  2  3  2  3
  2 40  1  0
  3  4  1  0
  3 41  1  0
  4 19  1  0
  4 36  1  0
  4  5  1  6
  5  6  1  0
  5 42  1  0
  5 43  1  0
  6  8  1  0
  6  7  1  0
  6 44  1  1
  8  7  1  6
  7 45  1  0
  7 46  1  0
  8 13  1  0
  8  9  1  0
  9 10  1  0
  9 47  1  0
  9 48  1  0
 10 11  1  0
 10 49  1  0
 10 50  1  0
 11 12  1  0
 11 13  1  0
 11 68  1  6
 12 51  1  0
 12 52  1  0
 12 53  1  0
 13 14  1  0
 13 54  1  1
 14 20  1  0
 14 15  1  1
 14 22  1  0
 15 16  1  0
 15 18  2  0
 16 17  3  0
 18 19  1  0
 18 55  1  0
 19 20  1  0
 19 56  1  1
 20 21  1  0
 21 57  1  0
 21 58  1  0
 21 59  1  0
 22 36  1  0
 22 23  1  0
 22 60  1  6
 23 24  1  0
 24 33  1  0
 24 25  2  0
 25 26  1  0
 26 27  2  3
 26 32  1  0
 27 28  1  0
 27 29  1  0
 29 30  1  0
 29 31  2  0
 30 61  1  0
 30 62  1  0
 30 63  1  0
 32 33  1  0
 33 34  1  6
 33 36  1  0
 34 35  1  0
 35 64  1  0
 35 65  1  0
 35 66  1  0
 36 67  1  1
M  CHG  1  11   1
M  END
>  <i_m_ct_stereo_status>  (34) 
1

>  <s_m_source_file>  (34) 
/var/tmp/pbs.5076255.sched01/tmpkni74bsw/0nq93mkxh.sdf

>  <i_m_source_file_index>  (34) 
12

>  <i_lp_mmshare_version>  (34) 
48012

>  <i_f3d_flags>  (34) 
0

>  <s_epik_input>  (34) 
W0NIM10vW0NIXT1bQ0hdL1tDQF0xKFtDSDJdW0NASF0oW0NAXTIzNClbQ0gyXTIpW0NAQEhdNVtDSF09QyhDI04pW0NAXShONVtDSDNdKShbQ0BASF00TihbQ0gzXSlbQ0gyXVtDSDJdMylbQ0BASF02W0NASF0xW0NAQF03KE9bQ0gzXSlDKFM2KT1OL0MoTzcpPUMoL0JyKUMoPU8pW0NIM10=

>  <s_epik_cmdline>  (34) 
J2VwaWtfcHl0aG9uJywgJy1waHQnLCAnMi4wJywgJy1waCcsICc3LjAnLCAnLXRuJywgJzgnLCAnLW1hJywgJzIwMCcsICctaW1hZScsICc8aW5maWxlLm1hZT4nLCAnLW9tYWUnLCAnPG91dGZpbGUubWFlPic=

>  <r_epik_Ionization_Penalty>  (34) 
0.8328

>  <r_epik_Ionization_Penalty_Charging>  (34) 
0.8328

>  <r_epik_Ionization_Penalty_Neutral>  (34) 
9.0489e-09

>  <r_epik_State_Penalty>  (34) 
0.866834

>  <r_epik_Charging_Adjusted_Penalty>  (34) 
1.69963

>  <i_epik_Tot_Q>  (34) 
1

>  <i_epik_Tot_abs_Q>  (34) 
1

>  <s_epik_Chemistry_Notes>  (34) 
This compound has an imine and may undergo hydrolysis.

>  <s_lp_Force_Field>  (34) 
OPLS3e

>  <r_lp_Energy>  (34) 
150.493

>  <b_lp_Chiralities_Consistent>  (34) 
1

>  <s_lp_Variant>  (34) 
5:0-7

>  <s_i_glide_gridfile>  (34) 
pfpi4k_grid

>  <i_i_glide_lignum>  (34) 
12

>  <i_i_glide_rotatable_bonds>  (34) 
4

>  <r_i_docking_score>  (34) 
-2.15602

>  <r_i_glide_ligand_efficiency>  (34) 
-0.0598895

>  <r_i_glide_ligand_efficiency_sa>  (34) 
-0.197751

>  <r_i_glide_ligand_efficiency_ln>  (34) 
-0.470386

>  <r_i_glide_gscore>  (34) 
-2.15602

>  <r_i_glide_lipo>  (34) 
-0.345081

>  <r_i_glide_hbond>  (34) 
0

>  <r_i_glide_metal>  (34) 
-0

>  <r_i_glide_rewards>  (34) 
-0.141528

>  <r_i_glide_evdw>  (34) 
-27.4327

>  <r_i_glide_ecoul>  (34) 
-1.96172

>  <r_i_glide_erotb>  (34) 
0.0349468

>  <r_i_glide_esite>  (34) 
-0.0384682

>  <r_i_glide_emodel>  (34) 
-34.0622

>  <r_i_glide_energy>  (34) 
-29.3944

>  <r_i_glide_einternal>  (34) 
1.49422

>  <r_i_glide_intrahb_reward>  (34) 
-0

>  <i_i_glide_confnum>  (34) 
3

>  <i_i_glide_posenum>  (34) 
29

>  <r_i_glide_eff_state_penalty>  (34) 
0

>  <ligand_id>  (34) 
5

>  <original_smiles>  (34) 
CC=CC12CC3CC34CCN(C)C4C3(C(C#N)=CC1N3C)C1SC3=NC(=C(Br)C(C)=O)OC3(OC)C12

>  <smiles>  (34) 
[H]C(=C([H])C12C3([H])C([H])=C(C#N)C(N3C([H])([H])[H])(C3([H])SC4=NC(=C(Br)C(=O)C([H])([H])[H])OC4(OC([H])([H])[H])C31[H])C1([H])C3(C([H])([H])C3([H])C2([H])[H])C([H])([H])C([H])([H])[N+]1([H])C([H])([H])[H])C([H])([H])[H]

$$$$
5:7:0
     RDKit          3D

 68 74  0  0  1  0  0  0  0  0999 V2000
    8.5232   -6.4350    6.2463 C   0  0  0  0  0  0  0  0  0  0  0  0
    7.5377   -5.4984    5.5770 C   0  0  0  0  0  0  0  0  0  0  0  0
    6.4111   -5.7798    4.8847 C   0  0  0  0  0  0  0  0  0  0  0  0
    5.6907   -7.1048    4.5767 C   0  0  2  0  0  0  0  0  0  0  0  0
    4.0945   -6.7575    4.7147 C   0  0  0  0  0  0  0  0  0  0  0  0
    2.8532   -7.7605    4.8058 C   0  0  1  0  0  0  0  0  0  0  0  0
    2.2064   -8.0653    3.4896 C   0  0  0  0  0  0  0  0  0  0  0  0
    2.6075   -9.2552    4.3284 C   0  0  2  0  0  0  0  0  0  0  0  0
    1.4287  -10.1865    4.4916 C   0  0  0  0  0  0  0  0  0  0  0  0
    1.6909  -11.2747    3.4199 C   0  0  0  0  0  0  0  0  0  0  0  0
    3.1480  -11.2161    3.0954 N   0  0  2  0  0  0  0  0  0  0  0  0
    3.7838  -12.5360    2.9039 C   0  0  0  0  0  0  0  0  0  0  0  0
    3.6999  -10.3518    4.1582 C   0  0  1  0  0  0  0  0  0  0  0  0
    5.1468   -9.7912    4.1578 C   0  0  2  0  0  0  0  0  0  0  0  0
    6.4715  -10.4035    4.5115 C   0  0  0  0  0  0  0  0  0  0  0  0
    6.9486  -11.6816    4.1067 C   0  0  0  0  0  0  0  0  0  0  0  0
    7.3408  -12.7136    3.7597 N   0  0  0  0  0  0  0  0  0  0  0  0
    7.1587   -9.4262    5.1307 C   0  0  0  0  0  0  0  0  0  0  0  0
    6.2088   -8.2739    5.5485 C   0  0  2  0  0  0  0  0  0  0  0  0
    5.0553   -9.0833    5.4800 N   0  0  0  0  0  0  0  0  0  0  0  0
    4.8590   -9.8056    6.7637 C   0  0  0  0  0  0  0  0  0  0  0  0
    5.5644   -8.9698    2.8477 C   0  0  1  0  0  0  0  0  0  0  0  0
    4.5512   -8.9606    1.3248 S   0  0  0  0  0  0  0  0  0  0  0  0
    4.7753   -7.2085    1.1406 C   0  0  0  0  0  0  0  0  0  0  0  0
    4.0322   -6.3447    0.6183 N   0  0  0  0  0  0  0  0  0  0  0  0
    4.4701   -5.1249    1.1437 C   0  0  0  0  0  0  0  0  0  0  0  0
    4.0081   -3.8978    0.8093 C   0  0  0  0  0  0  0  0  0  0  0  0
    2.6225   -3.8317   -0.6200 Br  0  0  0  0  0  0  0  0  0  0  0  0
    4.5257   -2.6579    1.4271 C   0  0  0  0  0  0  0  0  0  0  0  0
    3.9209   -1.3324    0.9712 C   0  0  0  0  0  0  0  0  0  0  0  0
    5.4078   -2.6271    2.2809 O   0  0  0  0  0  0  0  0  0  0  0  0
    5.4462   -5.3630    2.0869 O   0  0  0  0  0  0  0  0  0  0  0  0
    5.9013   -6.6497    1.9024 C   0  0  2  0  0  0  0  0  0  0  0  0
    7.0400   -6.6863    1.0909 O   0  0  0  0  0  0  0  0  0  0  0  0
    8.1236   -5.8531    1.4825 C   0  0  0  0  0  0  0  0  0  0  0  0
    6.1099   -7.5632    3.1601 C   0  0  1  0  0  0  0  0  0  0  0  0
    9.5137   -5.9811    6.2845 H   0  0  0  0  0  0  0  0  0  0  0  0
    8.6444   -7.3536    5.6830 H   0  0  0  0  0  0  0  0  0  0  0  0
    8.2104   -6.6632    7.2675 H   0  0  0  0  0  0  0  0  0  0  0  0
    7.7950   -4.4546    5.6941 H   0  0  0  0  0  0  0  0  0  0  0  0
    5.8990   -4.9137    4.4913 H   0  0  0  0  0  0  0  0  0  0  0  0
    4.0095   -6.1732    5.6314 H   0  0  0  0  0  0  0  0  0  0  0  0
    3.8419   -6.0387    3.9368 H   0  0  0  0  0  0  0  0  0  0  0  0
    2.1815   -7.4821    5.6142 H   0  0  0  0  0  0  0  0  0  0  0  0
    1.1504   -7.8121    3.4213 H   0  0  0  0  0  0  0  0  0  0  0  0
    2.7408   -7.7807    2.6113 H   0  0  0  0  0  0  0  0  0  0  0  0
    1.4467  -10.6141    5.5003 H   0  0  0  0  0  0  0  0  0  0  0  0
    0.4654   -9.6906    4.3599 H   0  0  0  0  0  0  0  0  0  0  0  0
    1.3952  -12.2527    3.8051 H   0  0  0  0  0  0  0  0  0  0  0  0
    1.1036  -11.0812    2.5230 H   0  0  0  0  0  0  0  0  0  0  0  0
    3.7826  -13.1152    3.8282 H   0  0  0  0  0  0  0  0  0  0  0  0
    4.8058  -12.4216    2.5496 H   0  0  0  0  0  0  0  0  0  0  0  0
    3.2354  -13.0894    2.1427 H   0  0  0  0  0  0  0  0  0  0  0  0
    3.6365  -11.0354    5.0074 H   0  0  0  0  0  0  0  0  0  0  0  0
    8.1859   -9.4980    5.4561 H   0  0  0  0  0  0  0  0  0  0  0  0
    6.3744   -7.9376    6.5718 H   0  0  0  0  0  0  0  0  0  0  0  0
    4.9323   -9.1036    7.6001 H   0  0  0  0  0  0  0  0  0  0  0  0
    5.5914  -10.5972    6.9494 H   0  0  0  0  0  0  0  0  0  0  0  0
    3.8582  -10.2330    6.8588 H   0  0  0  0  0  0  0  0  0  0  0  0
    6.4374   -9.4701    2.4078 H   0  0  0  0  0  0  0  0  0  0  0  0
    2.8418   -1.3460    1.1136 H   0  0  0  0  0  0  0  0  0  0  0  0
    4.1261   -1.1658   -0.0848 H   0  0  0  0  0  0  0  0  0  0  0  0
    4.3386   -0.5058    1.5458 H   0  0  0  0  0  0  0  0  0  0  0  0
    8.9249   -5.9797    0.7538 H   0  0  0  0  0  0  0  0  0  0  0  0
    8.5251   -6.1242    2.4597 H   0  0  0  0  0  0  0  0  0  0  0  0
    7.8458   -4.7964    1.4970 H   0  0  0  0  0  0  0  0  0  0  0  0
    7.1900   -7.6618    3.2415 H   0  0  0  0  0  0  0  0  0  0  0  0
    3.2356  -10.7158    2.2145 H   0  0  0  0  0  0  0  0  0  0  0  0
  1  2  1  0
  1 37  1  0
  1 38  1  0
  1 39  1  0
  2  3  2  3
  2 40  1  0
  3  4  1  0
  3 41  1  0
  4 19  1  0
  4 36  1  0
  4  5  1  6
  5  6  1  0
  5 42  1  0
  5 43  1  0
  6  8  1  0
  6  7  1  0
  6 44  1  1
  8  7  1  6
  7 45  1  0
  7 46  1  0
  8 13  1  0
  8  9  1  0
  9 10  1  0
  9 47  1  0
  9 48  1  0
 10 11  1  0
 10 49  1  0
 10 50  1  0
 11 12  1  0
 11 13  1  0
 11 68  1  6
 12 51  1  0
 12 52  1  0
 12 53  1  0
 13 14  1  0
 13 54  1  1
 14 20  1  0
 14 15  1  1
 14 22  1  0
 15 16  1  0
 15 18  2  0
 16 17  3  0
 18 19  1  0
 18 55  1  0
 19 20  1  0
 19 56  1  1
 20 21  1  0
 21 57  1  0
 21 58  1  0
 21 59  1  0
 22 36  1  0
 22 23  1  0
 22 60  1  6
 23 24  1  0
 24 33  1  0
 24 25  2  0
 25 26  1  0
 26 27  2  3
 26 32  1  0
 27 28  1  0
 27 29  1  0
 29 30  1  0
 29 31  2  0
 30 61  1  0
 30 62  1  0
 30 63  1  0
 32 33  1  0
 33 34  1  6
 33 36  1  0
 34 35  1  0
 35 64  1  0
 35 65  1  0
 35 66  1  0
 36 67  1  1
M  CHG  1  11   1
M  END
>  <i_m_ct_stereo_status>  (35) 
1

>  <s_m_source_file>  (35) 
/var/tmp/pbs.5076255.sched01/tmpkni74bsw/0nq93mkxh.sdf

>  <i_m_source_file_index>  (35) 
13

>  <i_lp_mmshare_version>  (35) 
48012

>  <i_f3d_flags>  (35) 
0

>  <s_epik_input>  (35) 
W0NIM10vW0NIXT1bQ0hdL1tDQF0xKFtDSDJdW0NASF0oW0NAXTIzNClbQ0gyXTIpW0NAQEhdNVtDSF09QyhDI04pW0NAXShONVtDSDNdKShbQ0BASF00TihbQ0gzXSlbQ0gyXVtDSDJdMylbQ0BASF02W0NASF0xW0NAQF03KE9bQ0gzXSlDKFM2KT1OL0MoTzcpPUMoL0JyKUMoPU8pW0NIM10=

>  <s_epik_cmdline>  (35) 
J2VwaWtfcHl0aG9uJywgJy1waHQnLCAnMi4wJywgJy1waCcsICc3LjAnLCAnLXRuJywgJzgnLCAnLW1hJywgJzIwMCcsICctaW1hZScsICc8aW5maWxlLm1hZT4nLCAnLW9tYWUnLCAnPG91dGZpbGUubWFlPic=

>  <r_epik_Ionization_Penalty>  (35) 
0.8328

>  <r_epik_Ionization_Penalty_Charging>  (35) 
0.8328

>  <r_epik_Ionization_Penalty_Neutral>  (35) 
9.0489e-09

>  <r_epik_State_Penalty>  (35) 
0.866834

>  <r_epik_Charging_Adjusted_Penalty>  (35) 
1.69963

>  <i_epik_Tot_Q>  (35) 
1

>  <i_epik_Tot_abs_Q>  (35) 
1

>  <s_epik_Chemistry_Notes>  (35) 
This compound has an imine and may undergo hydrolysis.

>  <s_lp_Force_Field>  (35) 
OPLS3e

>  <r_lp_Energy>  (35) 
154.408

>  <b_lp_Chiralities_Consistent>  (35) 
1

>  <s_lp_Variant>  (35) 
5:0-8

>  <s_i_glide_gridfile>  (35) 
pfpi4k_grid

>  <i_i_glide_lignum>  (35) 
13

>  <i_i_glide_rotatable_bonds>  (35) 
4

>  <r_i_docking_score>  (35) 
-2.42497

>  <r_i_glide_ligand_efficiency>  (35) 
-0.0673603

>  <r_i_glide_ligand_efficiency_sa>  (35) 
-0.222419

>  <r_i_glide_ligand_efficiency_ln>  (35) 
-0.529063

>  <r_i_glide_gscore>  (35) 
-2.42497

>  <r_i_glide_lipo>  (35) 
-0.265488

>  <r_i_glide_hbond>  (35) 
0

>  <r_i_glide_metal>  (35) 
-0

>  <r_i_glide_rewards>  (35) 
-0.220321

>  <r_i_glide_evdw>  (35) 
-25.2243

>  <r_i_glide_ecoul>  (35) 
-4.40537

>  <r_i_glide_erotb>  (35) 
0.0349468

>  <r_i_glide_esite>  (35) 
-0.0520915

>  <r_i_glide_emodel>  (35) 
-35.0572

>  <r_i_glide_energy>  (35) 
-29.6296

>  <r_i_glide_einternal>  (35) 
1.49858

>  <r_i_glide_intrahb_reward>  (35) 
-0

>  <i_i_glide_confnum>  (35) 
2

>  <i_i_glide_posenum>  (35) 
32

>  <r_i_glide_eff_state_penalty>  (35) 
0

>  <ligand_id>  (35) 
5

>  <original_smiles>  (35) 
CC=CC12CC3CC34CCN(C)C4C3(C(C#N)=CC1N3C)C1SC3=NC(=C(Br)C(C)=O)OC3(OC)C12

>  <smiles>  (35) 
[H]C(=C([H])C12C3([H])C([H])=C(C#N)C(N3C([H])([H])[H])(C3([H])SC4=NC(=C(Br)C(=O)C([H])([H])[H])OC4(OC([H])([H])[H])C31[H])C1([H])C3(C([H])([H])C3([H])C2([H])[H])C([H])([H])C([H])([H])[N+]1([H])C([H])([H])[H])C([H])([H])[H]

$$$$
5:7:1
     RDKit          3D

 68 74  0  0  1  0  0  0  0  0999 V2000
    7.7023   -6.3311    6.5235 C   0  0  0  0  0  0  0  0  0  0  0  0
    6.9693   -5.3087    5.6783 C   0  0  0  0  0  0  0  0  0  0  0  0
    5.8666   -5.4545    4.9089 C   0  0  0  0  0  0  0  0  0  0  0  0
    4.9327   -6.6544    4.6578 C   0  0  2  0  0  0  0  0  0  0  0  0
    3.4265   -6.0106    4.6050 C   0  0  0  0  0  0  0  0  0  0  0  0
    2.0142   -6.7563    4.6663 C   0  0  1  0  0  0  0  0  0  0  0  0
    1.4283   -7.0815    3.3259 C   0  0  0  0  0  0  0  0  0  0  0  0
    1.5273   -8.2239    4.3094 C   0  0  2  0  0  0  0  0  0  0  0  0
    0.1850   -8.9024    4.4398 C   0  0  0  0  0  0  0  0  0  0  0  0
    0.3199  -10.1343    3.5074 C   0  0  0  0  0  0  0  0  0  0  0  0
    1.7804  -10.3699    3.3181 N   0  0  2  0  0  0  0  0  0  0  0  0
    2.1638  -11.7970    3.3204 C   0  0  0  0  0  0  0  0  0  0  0  0
    2.3994   -9.5161    4.3506 C   0  0  1  0  0  0  0  0  0  0  0  0
    3.9229   -9.2291    4.4409 C   0  0  2  0  0  0  0  0  0  0  0  0
    5.0743  -10.0290    4.9799 C   0  0  0  0  0  0  0  0  0  0  0  0
    5.3251  -11.4100    4.7490 C   0  0  0  0  0  0  0  0  0  0  0  0
    5.5458  -12.5255    4.5434 N   0  0  0  0  0  0  0  0  0  0  0  0
    5.8845   -9.1277    5.5683 C   0  0  0  0  0  0  0  0  0  0  0  0
    5.1418   -7.7838    5.7805 C   0  0  2  0  0  0  0  0  0  0  0  0
    3.8620   -8.3715    5.6766 N   0  0  0  0  0  0  0  0  0  0  0  0
    3.4330   -8.9040    6.9965 C   0  0  0  0  0  0  0  0  0  0  0  0
    4.5947   -8.6453    3.1080 C   0  0  1  0  0  0  0  0  0  0  0  0
    3.7254   -8.6252    1.5002 S   0  0  0  0  0  0  0  0  0  0  0  0
    4.2917   -6.9725    1.1724 C   0  0  0  0  0  0  0  0  0  0  0  0
    3.7668   -6.0515    0.5035 N   0  0  0  0  0  0  0  0  0  0  0  0
    4.3841   -4.8771    0.9488 C   0  0  0  0  0  0  0  0  0  0  0  0
    4.1894   -3.6305    0.4572 C   0  0  0  0  0  0  0  0  0  0  0  0
    2.9570   -3.4672   -1.0958 Br  0  0  0  0  0  0  0  0  0  0  0  0
    4.8857   -2.4450    1.0065 C   0  0  0  0  0  0  0  0  0  0  0  0
    4.5614   -1.0861    0.3944 C   0  0  0  0  0  0  0  0  0  0  0  0
    5.7060   -2.4823    1.9213 O   0  0  0  0  0  0  0  0  0  0  0  0
    5.2239   -5.1837    2.0031 O   0  0  0  0  0  0  0  0  0  0  0  0
    5.4386   -6.5452    1.9840 C   0  0  2  0  0  0  0  0  0  0  0  0
    6.6094   -6.8795    1.2936 O   0  0  0  0  0  0  0  0  0  0  0  0
    7.7945   -6.2087    1.7057 C   0  0  0  0  0  0  0  0  0  0  0  0
    5.3688   -7.3342    3.3374 C   0  0  1  0  0  0  0  0  0  0  0  0
    8.7551   -6.0647    6.6150 H   0  0  0  0  0  0  0  0  0  0  0  0
    7.6888   -7.3120    6.0616 H   0  0  0  0  0  0  0  0  0  0  0  0
    7.2735   -6.3868    7.5263 H   0  0  0  0  0  0  0  0  0  0  0  0
    7.4122   -4.3218    5.7212 H   0  0  0  0  0  0  0  0  0  0  0  0
    5.5599   -4.5587    4.3905 H   0  0  0  0  0  0  0  0  0  0  0  0
    3.3814   -5.3225    5.4509 H   0  0  0  0  0  0  0  0  0  0  0  0
    3.3773   -5.3475    3.7428 H   0  0  0  0  0  0  0  0  0  0  0  0
    1.3456   -6.2737    5.3762 H   0  0  0  0  0  0  0  0  0  0  0  0
    0.4488   -6.6495    3.1324 H   0  0  0  0  0  0  0  0  0  0  0  0
    2.0755   -6.9981    2.4845 H   0  0  0  0  0  0  0  0  0  0  0  0
    0.0388   -9.2147    5.4794 H   0  0  0  0  0  0  0  0  0  0  0  0
   -0.6535   -8.2582    4.1691 H   0  0  0  0  0  0  0  0  0  0  0  0
   -0.1837  -10.9914    3.9533 H   0  0  0  0  0  0  0  0  0  0  0  0
   -0.1512   -9.9445    2.5399 H   0  0  0  0  0  0  0  0  0  0  0  0
    1.9731  -12.2576    4.2899 H   0  0  0  0  0  0  0  0  0  0  0  0
    3.2149  -11.9180    3.0586 H   0  0  0  0  0  0  0  0  0  0  0  0
    1.5797  -12.3284    2.5685 H   0  0  0  0  0  0  0  0  0  0  0  0
    2.1427  -10.0795    5.2482 H   0  0  0  0  0  0  0  0  0  0  0  0
    6.8479   -9.3498    5.9975 H   0  0  0  0  0  0  0  0  0  0  0  0
    5.2873   -7.3726    6.7787 H   0  0  0  0  0  0  0  0  0  0  0  0
    3.5718   -8.1400    7.7660 H   0  0  0  0  0  0  0  0  0  0  0  0
    3.9830   -9.7898    7.3244 H   0  0  0  0  0  0  0  0  0  0  0  0
    2.3658   -9.1311    7.0301 H   0  0  0  0  0  0  0  0  0  0  0  0
    5.3860   -9.3406    2.8061 H   0  0  0  0  0  0  0  0  0  0  0  0
    3.4901   -0.8974    0.4554 H   0  0  0  0  0  0  0  0  0  0  0  0
    4.8574   -1.0615   -0.6532 H   0  0  0  0  0  0  0  0  0  0  0  0
    5.0857   -0.2903    0.9267 H   0  0  0  0  0  0  0  0  0  0  0  0
    8.6152   -6.5561    1.0772 H   0  0  0  0  0  0  0  0  0  0  0  0
    8.0581   -6.4313    2.7403 H   0  0  0  0  0  0  0  0  0  0  0  0
    7.7179   -5.1250    1.5895 H   0  0  0  0  0  0  0  0  0  0  0  0
    6.4015   -7.6159    3.5340 H   0  0  0  0  0  0  0  0  0  0  0  0
    2.0267   -9.9814    2.4195 H   0  0  0  0  0  0  0  0  0  0  0  0
  1  2  1  0
  1 37  1  0
  1 38  1  0
  1 39  1  0
  2  3  2  3
  2 40  1  0
  3  4  1  0
  3 41  1  0
  4 19  1  0
  4 36  1  0
  4  5  1  6
  5  6  1  0
  5 42  1  0
  5 43  1  0
  6  8  1  0
  6  7  1  0
  6 44  1  1
  8  7  1  6
  7 45  1  0
  7 46  1  0
  8 13  1  0
  8  9  1  0
  9 10  1  0
  9 47  1  0
  9 48  1  0
 10 11  1  0
 10 49  1  0
 10 50  1  0
 11 12  1  0
 11 13  1  0
 11 68  1  6
 12 51  1  0
 12 52  1  0
 12 53  1  0
 13 14  1  0
 13 54  1  1
 14 20  1  0
 14 15  1  1
 14 22  1  0
 15 16  1  0
 15 18  2  0
 16 17  3  0
 18 19  1  0
 18 55  1  0
 19 20  1  0
 19 56  1  1
 20 21  1  0
 21 57  1  0
 21 58  1  0
 21 59  1  0
 22 36  1  0
 22 23  1  0
 22 60  1  6
 23 24  1  0
 24 33  1  0
 24 25  2  0
 25 26  1  0
 26 27  2  3
 26 32  1  0
 27 28  1  0
 27 29  1  0
 29 30  1  0
 29 31  2  0
 30 61  1  0
 30 62  1  0
 30 63  1  0
 32 33  1  0
 33 34  1  6
 33 36  1  0
 34 35  1  0
 35 64  1  0
 35 65  1  0
 35 66  1  0
 36 67  1  1
M  CHG  1  11   1
M  END
>  <i_m_ct_stereo_status>  (36) 
1

>  <s_m_source_file>  (36) 
/var/tmp/pbs.5076255.sched01/tmpkni74bsw/0nq93mkxh.sdf

>  <i_m_source_file_index>  (36) 
13

>  <i_lp_mmshare_version>  (36) 
48012

>  <i_f3d_flags>  (36) 
0

>  <s_epik_input>  (36) 
W0NIM10vW0NIXT1bQ0hdL1tDQF0xKFtDSDJdW0NASF0oW0NAXTIzNClbQ0gyXTIpW0NAQEhdNVtDSF09QyhDI04pW0NAXShONVtDSDNdKShbQ0BASF00TihbQ0gzXSlbQ0gyXVtDSDJdMylbQ0BASF02W0NASF0xW0NAQF03KE9bQ0gzXSlDKFM2KT1OL0MoTzcpPUMoL0JyKUMoPU8pW0NIM10=

>  <s_epik_cmdline>  (36) 
J2VwaWtfcHl0aG9uJywgJy1waHQnLCAnMi4wJywgJy1waCcsICc3LjAnLCAnLXRuJywgJzgnLCAnLW1hJywgJzIwMCcsICctaW1hZScsICc8aW5maWxlLm1hZT4nLCAnLW9tYWUnLCAnPG91dGZpbGUubWFlPic=

>  <r_epik_Ionization_Penalty>  (36) 
0.8328

>  <r_epik_Ionization_Penalty_Charging>  (36) 
0.8328

>  <r_epik_Ionization_Penalty_Neutral>  (36) 
9.0489e-09

>  <r_epik_State_Penalty>  (36) 
0.866834

>  <r_epik_Charging_Adjusted_Penalty>  (36) 
1.69963

>  <i_epik_Tot_Q>  (36) 
1

>  <i_epik_Tot_abs_Q>  (36) 
1

>  <s_epik_Chemistry_Notes>  (36) 
This compound has an imine and may undergo hydrolysis.

>  <s_lp_Force_Field>  (36) 
OPLS3e

>  <r_lp_Energy>  (36) 
154.408

>  <b_lp_Chiralities_Consistent>  (36) 
1

>  <s_lp_Variant>  (36) 
5:0-8

>  <s_i_glide_gridfile>  (36) 
pfpi4k_grid

>  <i_i_glide_lignum>  (36) 
13

>  <i_i_glide_rotatable_bonds>  (36) 
4

>  <r_i_docking_score>  (36) 
-2.13972

>  <r_i_glide_ligand_efficiency>  (36) 
-0.0594367

>  <r_i_glide_ligand_efficiency_sa>  (36) 
-0.196256

>  <r_i_glide_ligand_efficiency_ln>  (36) 
-0.466829

>  <r_i_glide_gscore>  (36) 
-2.13972

>  <r_i_glide_lipo>  (36) 
-0.163951

>  <r_i_glide_hbond>  (36) 
0

>  <r_i_glide_metal>  (36) 
-0

>  <r_i_glide_rewards>  (36) 
-0.21929

>  <r_i_glide_evdw>  (36) 
-25.778

>  <r_i_glide_ecoul>  (36) 
-3.30647

>  <r_i_glide_erotb>  (36) 
0.0349468

>  <r_i_glide_esite>  (36) 
-0.00655572

>  <r_i_glide_emodel>  (36) 
-33.7676

>  <r_i_glide_energy>  (36) 
-29.0845

>  <r_i_glide_einternal>  (36) 
1.49848

>  <r_i_glide_intrahb_reward>  (36) 
-0

>  <i_i_glide_confnum>  (36) 
2

>  <i_i_glide_posenum>  (36) 
12

>  <r_i_glide_eff_state_penalty>  (36) 
0

>  <ligand_id>  (36) 
5

>  <original_smiles>  (36) 
CC=CC12CC3CC34CCN(C)C4C3(C(C#N)=CC1N3C)C1SC3=NC(=C(Br)C(C)=O)OC3(OC)C12

>  <smiles>  (36) 
[H]C(=C([H])C12C3([H])C([H])=C(C#N)C(N3C([H])([H])[H])(C3([H])SC4=NC(=C(Br)C(=O)C([H])([H])[H])OC4(OC([H])([H])[H])C31[H])C1([H])C3(C([H])([H])C3([H])C2([H])[H])C([H])([H])C([H])([H])[N+]1([H])C([H])([H])[H])C([H])([H])[H]

$$$$
5:7:2
     RDKit          3D

 68 74  0  0  1  0  0  0  0  0999 V2000
    6.4577   -6.7713    7.1619 C   0  0  0  0  0  0  0  0  0  0  0  0
    6.0633   -5.6842    6.1813 C   0  0  0  0  0  0  0  0  0  0  0  0
    5.1078   -5.6890    5.2248 C   0  0  0  0  0  0  0  0  0  0  0  0
    4.0545   -6.7377    4.8211 C   0  0  2  0  0  0  0  0  0  0  0  0
    2.7042   -5.8702    4.4875 C   0  0  0  0  0  0  0  0  0  0  0  0
    1.2025   -6.3838    4.2999 C   0  0  1  0  0  0  0  0  0  0  0  0
    0.8205   -6.6698    2.8799 C   0  0  0  0  0  0  0  0  0  0  0  0
    0.5591   -7.7722    3.8780 C   0  0  2  0  0  0  0  0  0  0  0  0
   -0.8759   -8.2272    3.7668 C   0  0  0  0  0  0  0  0  0  0  0  0
   -0.7707   -9.4941    2.8799 C   0  0  0  0  0  0  0  0  0  0  0  0
    0.6380   -9.9690    2.9687 N   0  0  2  0  0  0  0  0  0  0  0  0
    0.7692  -11.4402    3.0581 C   0  0  0  0  0  0  0  0  0  0  0  0
    1.1909   -9.1818    4.0896 C   0  0  1  0  0  0  0  0  0  0  0  0
    2.6997   -9.1324    4.4547 C   0  0  2  0  0  0  0  0  0  0  0  0
    3.5890  -10.0800    5.2054 C   0  0  0  0  0  0  0  0  0  0  0  0
    3.6638  -11.4894    5.0370 C   0  0  0  0  0  0  0  0  0  0  0  0
    3.7783  -12.6269    4.8707 N   0  0  0  0  0  0  0  0  0  0  0  0
    4.4183   -9.2910    5.9185 C   0  0  0  0  0  0  0  0  0  0  0  0
    3.8751   -7.8409    5.9738 C   0  0  2  0  0  0  0  0  0  0  0  0
    2.5567   -8.2253    5.6455 N   0  0  0  0  0  0  0  0  0  0  0  0
    1.8229   -8.6371    6.8706 C   0  0  0  0  0  0  0  0  0  0  0  0
    3.6866   -8.7142    3.2646 C   0  0  1  0  0  0  0  0  0  0  0  0
    3.1281   -8.6220    1.5335 S   0  0  0  0  0  0  0  0  0  0  0  0
    3.9992   -7.0926    1.2843 C   0  0  0  0  0  0  0  0  0  0  0  0
    3.7515   -6.1288    0.5192 N   0  0  0  0  0  0  0  0  0  0  0  0
    4.4585   -5.0435    1.0513 C   0  0  0  0  0  0  0  0  0  0  0  0
    4.5529   -3.7981    0.5241 C   0  0  0  0  0  0  0  0  0  0  0  0
    3.6666   -3.4582   -1.2292 Br  0  0  0  0  0  0  0  0  0  0  0  0
    5.3188   -2.7170    1.1773 C   0  0  0  0  0  0  0  0  0  0  0  0
    5.4974   -1.4072    0.4151 C   0  0  0  0  0  0  0  0  0  0  0  0
    5.8102   -2.8005    2.2955 O   0  0  0  0  0  0  0  0  0  0  0  0
    5.0429   -5.4339    2.2446 O   0  0  0  0  0  0  0  0  0  0  0  0
    5.0381   -6.8127    2.2827 C   0  0  2  0  0  0  0  0  0  0  0  0
    6.2427   -7.3513    1.8169 O   0  0  0  0  0  0  0  0  0  0  0  0
    7.4288   -6.8322    2.4067 C   0  0  0  0  0  0  0  0  0  0  0  0
    4.6075   -7.5283    3.6122 C   0  0  1  0  0  0  0  0  0  0  0  0
    7.5052   -6.6676    7.4452 H   0  0  0  0  0  0  0  0  0  0  0  0
    6.3712   -7.7577    6.7193 H   0  0  0  0  0  0  0  0  0  0  0  0
    5.8508   -6.7170    8.0684 H   0  0  0  0  0  0  0  0  0  0  0  0
    6.6451   -4.7771    6.2908 H   0  0  0  0  0  0  0  0  0  0  0  0
    5.0480   -4.7797    4.6459 H   0  0  0  0  0  0  0  0  0  0  0  0
    2.6202   -5.1528    5.3046 H   0  0  0  0  0  0  0  0  0  0  0  0
    2.9159   -5.2417    3.6241 H   0  0  0  0  0  0  0  0  0  0  0  0
    0.5038   -5.7747    4.8693 H   0  0  0  0  0  0  0  0  0  0  0  0
   -0.0266   -6.1027    2.5050 H   0  0  0  0  0  0  0  0  0  0  0  0
    1.6123   -6.7184    2.1682 H   0  0  0  0  0  0  0  0  0  0  0  0
   -1.2501   -8.4778    4.7669 H   0  0  0  0  0  0  0  0  0  0  0  0
   -1.5398   -7.4700    3.3427 H   0  0  0  0  0  0  0  0  0  0  0  0
   -1.4689  -10.2466    3.2347 H   0  0  0  0  0  0  0  0  0  0  0  0
   -1.0277   -9.2720    1.8433 H   0  0  0  0  0  0  0  0  0  0  0  0
    0.3487  -11.8312    3.9866 H   0  0  0  0  0  0  0  0  0  0  0  0
    1.8170  -11.7356    2.9867 H   0  0  0  0  0  0  0  0  0  0  0  0
    0.2262  -11.8986    2.2274 H   0  0  0  0  0  0  0  0  0  0  0  0
    0.6898   -9.6631    4.9306 H   0  0  0  0  0  0  0  0  0  0  0  0
    5.2423   -9.6449    6.5149 H   0  0  0  0  0  0  0  0  0  0  0  0
    3.9024   -7.4198    6.9779 H   0  0  0  0  0  0  0  0  0  0  0  0
    1.9454   -7.8741    7.6449 H   0  0  0  0  0  0  0  0  0  0  0  0
    2.1591   -9.5871    7.2997 H   0  0  0  0  0  0  0  0  0  0  0  0
    0.7434   -8.6937    6.7128 H   0  0  0  0  0  0  0  0  0  0  0  0
    4.3962   -9.5373    3.1150 H   0  0  0  0  0  0  0  0  0  0  0  0
    4.5247   -0.9983    0.1467 H   0  0  0  0  0  0  0  0  0  0  0  0
    6.0678   -1.5756   -0.4969 H   0  0  0  0  0  0  0  0  0  0  0  0
    6.0238   -0.6748    1.0291 H   0  0  0  0  0  0  0  0  0  0  0  0
    8.2838   -7.3281    1.9450 H   0  0  0  0  0  0  0  0  0  0  0  0
    7.4724   -7.0261    3.4796 H   0  0  0  0  0  0  0  0  0  0  0  0
    7.5371   -5.7575    2.2401 H   0  0  0  0  0  0  0  0  0  0  0  0
    5.5332   -7.9557    3.9921 H   0  0  0  0  0  0  0  0  0  0  0  0
    1.0964   -9.6598    2.1234 H   0  0  0  0  0  0  0  0  0  0  0  0
  1  2  1  0
  1 37  1  0
  1 38  1  0
  1 39  1  0
  2  3  2  3
  2 40  1  0
  3  4  1  0
  3 41  1  0
  4 19  1  0
  4 36  1  0
  4  5  1  6
  5  6  1  0
  5 42  1  0
  5 43  1  0
  6  8  1  0
  6  7  1  0
  6 44  1  1
  8  7  1  6
  7 45  1  0
  7 46  1  0
  8 13  1  0
  8  9  1  0
  9 10  1  0
  9 47  1  0
  9 48  1  0
 10 11  1  0
 10 49  1  0
 10 50  1  0
 11 12  1  0
 11 13  1  0
 11 68  1  6
 12 51  1  0
 12 52  1  0
 12 53  1  0
 13 14  1  0
 13 54  1  1
 14 20  1  0
 14 15  1  1
 14 22  1  0
 15 16  1  0
 15 18  2  0
 16 17  3  0
 18 19  1  0
 18 55  1  0
 19 20  1  0
 19 56  1  1
 20 21  1  0
 21 57  1  0
 21 58  1  0
 21 59  1  0
 22 36  1  0
 22 23  1  0
 22 60  1  6
 23 24  1  0
 24 33  1  0
 24 25  2  0
 25 26  1  0
 26 27  2  3
 26 32  1  0
 27 28  1  0
 27 29  1  0
 29 30  1  0
 29 31  2  0
 30 61  1  0
 30 62  1  0
 30 63  1  0
 32 33  1  0
 33 34  1  6
 33 36  1  0
 34 35  1  0
 35 64  1  0
 35 65  1  0
 35 66  1  0
 36 67  1  1
M  CHG  1  11   1
M  END
>  <i_m_ct_stereo_status>  (37) 
1

>  <s_m_source_file>  (37) 
/var/tmp/pbs.5076255.sched01/tmpkni74bsw/0nq93mkxh.sdf

>  <i_m_source_file_index>  (37) 
13

>  <i_lp_mmshare_version>  (37) 
48012

>  <i_f3d_flags>  (37) 
0

>  <s_epik_input>  (37) 
W0NIM10vW0NIXT1bQ0hdL1tDQF0xKFtDSDJdW0NASF0oW0NAXTIzNClbQ0gyXTIpW0NAQEhdNVtDSF09QyhDI04pW0NAXShONVtDSDNdKShbQ0BASF00TihbQ0gzXSlbQ0gyXVtDSDJdMylbQ0BASF02W0NASF0xW0NAQF03KE9bQ0gzXSlDKFM2KT1OL0MoTzcpPUMoL0JyKUMoPU8pW0NIM10=

>  <s_epik_cmdline>  (37) 
J2VwaWtfcHl0aG9uJywgJy1waHQnLCAnMi4wJywgJy1waCcsICc3LjAnLCAnLXRuJywgJzgnLCAnLW1hJywgJzIwMCcsICctaW1hZScsICc8aW5maWxlLm1hZT4nLCAnLW9tYWUnLCAnPG91dGZpbGUubWFlPic=

>  <r_epik_Ionization_Penalty>  (37) 
0.8328

>  <r_epik_Ionization_Penalty_Charging>  (37) 
0.8328

>  <r_epik_Ionization_Penalty_Neutral>  (37) 
9.0489e-09

>  <r_epik_State_Penalty>  (37) 
0.866834

>  <r_epik_Charging_Adjusted_Penalty>  (37) 
1.69963

>  <i_epik_Tot_Q>  (37) 
1

>  <i_epik_Tot_abs_Q>  (37) 
1

>  <s_epik_Chemistry_Notes>  (37) 
This compound has an imine and may undergo hydrolysis.

>  <s_lp_Force_Field>  (37) 
OPLS3e

>  <r_lp_Energy>  (37) 
154.408

>  <b_lp_Chiralities_Consistent>  (37) 
1

>  <s_lp_Variant>  (37) 
5:0-8

>  <s_i_glide_gridfile>  (37) 
pfpi4k_grid

>  <i_i_glide_lignum>  (37) 
13

>  <i_i_glide_rotatable_bonds>  (37) 
4

>  <r_i_docking_score>  (37) 
-2.12261

>  <r_i_glide_ligand_efficiency>  (37) 
-0.0589614

>  <r_i_glide_ligand_efficiency_sa>  (37) 
-0.194686

>  <r_i_glide_ligand_efficiency_ln>  (37) 
-0.463096

>  <r_i_glide_gscore>  (37) 
-2.12261

>  <r_i_glide_lipo>  (37) 
-0.265961

>  <r_i_glide_hbond>  (37) 
0

>  <r_i_glide_metal>  (37) 
-0

>  <r_i_glide_rewards>  (37) 
-0.199556

>  <r_i_glide_evdw>  (37) 
-26.6247

>  <r_i_glide_ecoul>  (37) 
-2.13622

>  <r_i_glide_erotb>  (37) 
0.0349468

>  <r_i_glide_esite>  (37) 
-0.0403701

>  <r_i_glide_emodel>  (37) 
-33.3381

>  <r_i_glide_energy>  (37) 
-28.7609

>  <r_i_glide_einternal>  (37) 
1.53799

>  <r_i_glide_intrahb_reward>  (37) 
-0

>  <i_i_glide_confnum>  (37) 
2

>  <i_i_glide_posenum>  (37) 
35

>  <r_i_glide_eff_state_penalty>  (37) 
0

>  <ligand_id>  (37) 
5

>  <original_smiles>  (37) 
CC=CC12CC3CC34CCN(C)C4C3(C(C#N)=CC1N3C)C1SC3=NC(=C(Br)C(C)=O)OC3(OC)C12

>  <smiles>  (37) 
[H]C(=C([H])C12C3([H])C([H])=C(C#N)C(N3C([H])([H])[H])(C3([H])SC4=NC(=C(Br)C(=O)C([H])([H])[H])OC4(OC([H])([H])[H])C31[H])C1([H])C3(C([H])([H])C3([H])C2([H])[H])C([H])([H])C([H])([H])[N+]1([H])C([H])([H])[H])C([H])([H])[H]

$$$$
6:0:0
     RDKit          3D

 78 84  0  0  1  0  0  0  0  0999 V2000
   -0.3298   -9.3658    2.8874 C   0  0  0  0  0  0  0  0  0  0  0  0
    0.7189   -8.9372    3.7394 O   0  0  0  0  0  0  0  0  0  0  0  0
    1.7965   -9.8615    3.9947 C   0  0  1  0  0  0  0  0  0  0  0  0
    1.2363  -11.1845    4.5654 C   0  0  0  0  0  0  0  0  0  0  0  0
    2.6750  -10.0658    2.7541 C   0  0  0  0  0  0  0  0  0  0  0  0
    3.5759   -8.8251    2.7727 C   0  0  2  0  0  0  0  0  0  0  0  0
    2.9539   -7.8979    1.8901 O   0  0  0  0  0  0  0  0  0  0  0  0
    3.1906   -6.5116    2.1008 C   0  0  0  0  0  0  0  0  0  0  0  0
    4.6540   -6.0545    1.8601 C   0  0  1  0  0  0  0  0  0  0  0  0
    4.7536   -4.4797    1.8281 C   0  0  1  0  0  0  0  0  0  0  0  0
    4.4803   -4.0160    3.2964 C   0  0  0  0  0  0  0  0  0  0  0  0
    6.1299   -4.1881    1.5406 O   0  0  0  0  0  0  0  0  0  0  0  0
    6.4549   -3.8599    0.1779 C   0  0  2  0  0  0  0  0  0  0  0  0
    7.2612   -2.5010    0.1551 C   0  0  1  0  0  0  0  0  0  0  0  0
    7.8008   -2.3691   -1.1548 O   0  0  0  0  0  0  0  0  0  0  0  0
    6.5999   -1.1304    0.6397 C   0  0  0  0  0  0  0  0  0  0  0  0
    5.2036   -1.3505    1.2118 C   0  0  1  0  0  0  0  0  0  0  0  0
    4.3545   -0.5761    2.2087 C   0  0  0  0  0  0  0  0  0  0  0  0
    3.0338   -1.4502    2.2098 C   0  0  0  0  0  0  0  0  0  0  0  0
    3.0431   -2.3652    0.9456 C   0  0  1  0  0  0  0  0  0  0  0  0
    4.1727   -1.7056    0.1971 C   0  0  2  0  0  0  0  0  0  0  0  0
    4.1758   -2.9066   -0.6457 C   0  0  1  0  0  0  0  0  0  0  0  0
    3.2470   -2.8007   -1.8979 C   0  0  0  0  0  0  0  0  0  0  0  0
    5.2095   -3.9423   -0.7617 C   0  0  2  0  0  0  0  0  0  0  0  0
    4.0807   -4.7749   -0.3151 O   0  0  0  0  0  0  0  0  0  0  0  0
    3.8258   -3.7582    0.7078 C   0  0  2  0  0  0  0  0  0  0  0  0
    5.6052   -6.6166    2.9432 C   0  0  0  0  0  0  0  0  0  0  0  0
    6.0468   -8.0607    2.7872 C   0  0  0  0  0  0  0  0  0  0  0  0
    5.0264   -9.0821    2.2685 C   0  0  1  0  0  0  0  0  0  0  0  0
    5.5394  -10.4706    2.7022 C   0  0  0  0  0  0  0  0  0  0  0  0
    3.6166   -8.3920    4.1174 O   0  0  0  0  0  0  0  0  0  0  0  0
    2.7613   -9.1552    4.9712 C   0  0  0  0  0  0  0  0  0  0  0  0
    2.0528   -8.2309    5.9828 C   0  0  0  0  0  0  0  0  0  0  0  0
    3.6645  -10.1247    5.7608 C   0  0  0  0  0  0  0  0  0  0  0  0
   -1.0598   -8.5564    2.8056 H   0  0  0  0  0  0  0  0  0  0  0  0
   -0.8481  -10.2371    3.2845 H   0  0  0  0  0  0  0  0  0  0  0  0
    0.0331   -9.6004    1.8900 H   0  0  0  0  0  0  0  0  0  0  0  0
    2.0358  -11.8778    4.8265 H   0  0  0  0  0  0  0  0  0  0  0  0
    0.6279  -11.7314    3.8440 H   0  0  0  0  0  0  0  0  0  0  0  0
    0.6564  -11.0076    5.4673 H   0  0  0  0  0  0  0  0  0  0  0  0
    3.2518  -10.9685    2.9132 H   0  0  0  0  0  0  0  0  0  0  0  0
    2.1289  -10.1488    1.8134 H   0  0  0  0  0  0  0  0  0  0  0  0
    2.5280   -5.9833    1.4119 H   0  0  0  0  0  0  0  0  0  0  0  0
    2.8455   -6.2237    3.0940 H   0  0  0  0  0  0  0  0  0  0  0  0
    4.9912   -6.4677    0.9081 H   0  0  0  0  0  0  0  0  0  0  0  0
    3.4345   -4.1549    3.5585 H   0  0  0  0  0  0  0  0  0  0  0  0
    4.7264   -2.9847    3.5291 H   0  0  0  0  0  0  0  0  0  0  0  0
    5.0591   -4.5786    4.0155 H   0  0  0  0  0  0  0  0  0  0  0  0
    7.1484   -4.6363   -0.1429 H   0  0  0  0  0  0  0  0  0  0  0  0
    8.1137   -2.6484    0.8214 H   0  0  0  0  0  0  0  0  0  0  0  0
    8.6968   -2.7194   -1.1448 H   0  0  0  0  0  0  0  0  0  0  0  0
    7.2170   -0.6976    1.4321 H   0  0  0  0  0  0  0  0  0  0  0  0
    6.5439   -0.3773   -0.1420 H   0  0  0  0  0  0  0  0  0  0  0  0
    5.4689   -2.1279    1.8835 H   0  0  0  0  0  0  0  0  0  0  0  0
    4.8092   -0.4935    3.2002 H   0  0  0  0  0  0  0  0  0  0  0  0
    4.1509    0.4270    1.8327 H   0  0  0  0  0  0  0  0  0  0  0  0
    2.9013   -2.0133    3.1255 H   0  0  0  0  0  0  0  0  0  0  0  0
    2.1724   -0.7846    2.1875 H   0  0  0  0  0  0  0  0  0  0  0  0
    2.0773   -2.3540    0.4435 H   0  0  0  0  0  0  0  0  0  0  0  0
    3.8405   -0.8248   -0.3677 H   0  0  0  0  0  0  0  0  0  0  0  0
    3.0034   -3.7745   -2.3278 H   0  0  0  0  0  0  0  0  0  0  0  0
    3.7285   -2.2199   -2.6900 H   0  0  0  0  0  0  0  0  0  0  0  0
    2.2973   -2.3033   -1.7014 H   0  0  0  0  0  0  0  0  0  0  0  0
    5.4711   -4.1193   -1.8118 H   0  0  0  0  0  0  0  0  0  0  0  0
    6.5142   -6.0172    3.0087 H   0  0  0  0  0  0  0  0  0  0  0  0
    5.1212   -6.4848    3.9124 H   0  0  0  0  0  0  0  0  0  0  0  0
    6.9463   -8.0977    2.1663 H   0  0  0  0  0  0  0  0  0  0  0  0
    6.3796   -8.3591    3.7788 H   0  0  0  0  0  0  0  0  0  0  0  0
    5.0074   -9.0382    1.1775 H   0  0  0  0  0  0  0  0  0  0  0  0
    5.4339  -10.5827    3.7697 H   0  0  0  0  0  0  0  0  0  0  0  0
    6.5930  -10.5878    2.4719 H   0  0  0  0  0  0  0  0  0  0  0  0
    4.9842  -11.2662    2.2122 H   0  0  0  0  0  0  0  0  0  0  0  0
    1.3869   -8.8261    6.6161 H   0  0  0  0  0  0  0  0  0  0  0  0
    1.4538   -7.4540    5.4984 H   0  0  0  0  0  0  0  0  0  0  0  0
    2.7736   -7.7288    6.6306 H   0  0  0  0  0  0  0  0  0  0  0  0
    3.1034  -10.6043    6.5649 H   0  0  0  0  0  0  0  0  0  0  0  0
    4.4873   -9.6010    6.2356 H   0  0  0  0  0  0  0  0  0  0  0  0
    4.0958  -10.9029    5.1386 H   0  0  0  0  0  0  0  0  0  0  0  0
  1  2  1  0
  1 35  1  0
  1 36  1  0
  1 37  1  0
  3  2  1  6
  3 32  1  0
  3  4  1  0
  3  5  1  0
  4 38  1  0
  4 39  1  0
  4 40  1  0
  5  6  1  0
  5 41  1  0
  5 42  1  0
  6 29  1  0
  6  7  1  6
  6 31  1  0
  7  8  1  0
  8  9  1  0
  8 43  1  0
  8 44  1  0
  9 10  1  0
  9 27  1  0
  9 45  1  6
 10 26  1  0
 10 11  1  1
 10 12  1  0
 11 46  1  0
 11 47  1  0
 11 48  1  0
 12 13  1  0
 13 24  1  0
 13 14  1  0
 13 49  1  6
 14 15  1  0
 14 16  1  0
 14 50  1  1
 15 51  1  0
 16 17  1  0
 16 52  1  0
 16 53  1  0
 17 21  1  0
 17 18  1  0
 17 54  1  1
 18 19  1  0
 18 55  1  0
 18 56  1  0
 19 20  1  0
 19 57  1  0
 19 58  1  0
 20 26  1  0
 20 21  1  0
 20 59  1  6
 21 22  1  0
 21 60  1  6
 22 26  1  0
 22 23  1  6
 22 24  1  0
 23 61  1  0
 23 62  1  0
 23 63  1  0
 24 25  1  0
 24 64  1  6
 26 25  1  6
 27 28  1  0
 27 65  1  0
 27 66  1  0
 28 29  1  0
 28 67  1  0
 28 68  1  0
 29 30  1  0
 29 69  1  6
 30 70  1  0
 30 71  1  0
 30 72  1  0
 31 32  1  0
 32 33  1  0
 32 34  1  0
 33 73  1  0
 33 74  1  0
 33 75  1  0
 34 76  1  0
 34 77  1  0
 34 78  1  0
M  END
>  <i_m_ct_stereo_status>  (38) 
1

>  <s_m_source_file>  (38) 
/var/tmp/pbs.5076255.sched01/tmpkni74bsw/0nq93mkxh.sdf

>  <i_m_source_file_index>  (38) 
14

>  <i_lp_mmshare_version>  (38) 
48012

>  <i_f3d_flags>  (38) 
0

>  <s_epik_input>  (38) 
W0NIM11PW0NAXShbQ0gzXSkoQyhPMSkoW0NIM10pW0NIM10pW0NIMl1bQ0BAXTEyT1tDSDJdW0NASF0oW0NIMl1bQ0gyXVtDQEhdMltDSDNdKVtDQEBdMyhbQ0gzXSlPW0NAQEhdKFtDQEBIXShPNClbQ0BdNTZbQ0gzXSlbQ0BASF0oW09IXSlbQ0gyXVtDQEBIXShbQ0gyXVtDSDJdNylbQ0BASF01W0NASF03W0NAQF0zNDY=

>  <s_epik_cmdline>  (38) 
J2VwaWtfcHl0aG9uJywgJy1waHQnLCAnMi4wJywgJy1waCcsICc3LjAnLCAnLXRuJywgJzgnLCAnLW1hJywgJzIwMCcsICctaW1hZScsICc8aW5maWxlLm1hZT4nLCAnLW9tYWUnLCAnPG91dGZpbGUubWFlPic=

>  <r_lp_tautomer_probability>  (38) 
1

>  <r_epik_Ionization_Penalty>  (38) 
9.21161e-08

>  <r_epik_Ionization_Penalty_Charging>  (38) 
0

>  <r_epik_Ionization_Penalty_Neutral>  (38) 
9.21161e-08

>  <r_epik_State_Penalty>  (38) 
-0

>  <r_epik_Charging_Adjusted_Penalty>  (38) 
0

>  <i_epik_Tot_Q>  (38) 
0

>  <i_epik_Tot_abs_Q>  (38) 
0

>  <s_lp_Force_Field>  (38) 
OPLS3e

>  <r_lp_Energy>  (38) 
191.546

>  <b_lp_Chiralities_Consistent>  (38) 
1

>  <s_lp_Variant>  (38) 
6:0-1

>  <s_i_glide_gridfile>  (38) 
pfpi4k_grid

>  <i_i_glide_lignum>  (38) 
14

>  <i_i_glide_rotatable_bonds>  (38) 
3

>  <r_i_docking_score>  (38) 
-2.67218

>  <r_i_glide_ligand_efficiency>  (38) 
-0.0785934

>  <r_i_glide_ligand_efficiency_sa>  (38) 
-0.254612

>  <r_i_glide_ligand_efficiency_ln>  (38) 
-0.590359

>  <r_i_glide_gscore>  (38) 
-2.67218

>  <r_i_glide_lipo>  (38) 
-0.513531

>  <r_i_glide_hbond>  (38) 
-0.16

>  <r_i_glide_metal>  (38) 
-0

>  <r_i_glide_rewards>  (38) 
-0.159236

>  <r_i_glide_evdw>  (38) 
-24.5012

>  <r_i_glide_ecoul>  (38) 
-4.43268

>  <r_i_glide_erotb>  (38) 
0.0623965

>  <r_i_glide_esite>  (38) 
-0.0118444

>  <r_i_glide_emodel>  (38) 
-31.5293

>  <r_i_glide_energy>  (38) 
-28.9339

>  <r_i_glide_einternal>  (38) 
1.05501

>  <r_i_glide_intrahb_reward>  (38) 
-0

>  <i_i_glide_confnum>  (38) 
1

>  <i_i_glide_posenum>  (38) 
32

>  <r_i_glide_eff_state_penalty>  (38) 
0

>  <ligand_id>  (38) 
6

>  <original_smiles>  (38) 
COC1(C)CC2(OCC(C3(C)OC4C(O)CC5CCC6C5C5(C)C4OC635)CCC2C)OC1(C)C

>  <smiles>  (38) 
[H]OC1([H])C([H])([H])C2([H])C([H])([H])C([H])([H])C3([H])C2([H])C2(C([H])([H])[H])C4([H])OC32C(C([H])([H])[H])(C2([H])C([H])([H])OC3(OC(C([H])([H])[H])(C([H])([H])[H])C(OC([H])([H])[H])(C([H])([H])[H])C3([H])[H])C([H])(C([H])([H])[H])C([H])([H])C2([H])[H])OC14[H]

$$$$
6:0:1
     RDKit          3D

 78 84  0  0  1  0  0  0  0  0999 V2000
    2.9535   -3.0766    6.8345 C   0  0  0  0  0  0  0  0  0  0  0  0
    2.8402   -4.0417    5.7920 O   0  0  0  0  0  0  0  0  0  0  0  0
    1.5725   -4.6344    5.4772 C   0  0  1  0  0  0  0  0  0  0  0  0
    0.4286   -3.6075    5.6602 C   0  0  0  0  0  0  0  0  0  0  0  0
    1.6366   -5.1041    4.0313 C   0  0  0  0  0  0  0  0  0  0  0  0
    2.4140   -6.4401    4.1417 C   0  0  2  0  0  0  0  0  0  0  0  0
    3.7947   -6.2534    4.0455 O   0  0  0  0  0  0  0  0  0  0  0  0
    4.3376   -5.2677    3.1708 C   0  0  0  0  0  0  0  0  0  0  0  0
    3.7493   -5.2284    1.7244 C   0  0  1  0  0  0  0  0  0  0  0  0
    4.7074   -4.4508    0.7648 C   0  0  1  0  0  0  0  0  0  0  0  0
    5.9184   -5.4212    0.5135 C   0  0  0  0  0  0  0  0  0  0  0  0
    3.9842   -4.3194   -0.4648 O   0  0  0  0  0  0  0  0  0  0  0  0
    3.3201   -3.0635   -0.7244 C   0  0  2  0  0  0  0  0  0  0  0  0
    3.7842   -2.5400   -2.1453 C   0  0  1  0  0  0  0  0  0  0  0  0
    3.0118   -1.4173   -2.5043 O   0  0  0  0  0  0  0  0  0  0  0  0
    5.2901   -2.1752   -2.4571 C   0  0  0  0  0  0  0  0  0  0  0  0
    6.2113   -2.4828   -1.2902 C   0  0  1  0  0  0  0  0  0  0  0  0
    7.6963   -2.7999   -1.1878 C   0  0  0  0  0  0  0  0  0  0  0  0
    7.8476   -2.9524    0.3801 C   0  0  0  0  0  0  0  0  0  0  0  0
    6.5978   -2.3170    1.0715 C   0  0  1  0  0  0  0  0  0  0  0  0
    6.0251   -1.5926   -0.1126 C   0  0  2  0  0  0  0  0  0  0  0  0
    4.8040   -1.4659    0.6983 C   0  0  1  0  0  0  0  0  0  0  0  0
    4.7593   -0.1720    1.5537 C   0  0  0  0  0  0  0  0  0  0  0  0
    3.4904   -2.0752    0.4751 C   0  0  2  0  0  0  0  0  0  0  0  0
    3.7984   -2.6392    1.8046 O   0  0  0  0  0  0  0  0  0  0  0  0
    5.1219   -2.9677    1.2600 C   0  0  2  0  0  0  0  0  0  0  0  0
    3.3571   -6.6150    1.1706 C   0  0  0  0  0  0  0  0  0  0  0  0
    1.9981   -7.1090    1.6847 C   0  0  0  0  0  0  0  0  0  0  0  0
    2.0022   -7.5709    3.1495 C   0  0  1  0  0  0  0  0  0  0  0  0
    2.8750   -8.8399    3.3465 C   0  0  0  0  0  0  0  0  0  0  0  0
    2.1107   -6.9308    5.4276 O   0  0  0  0  0  0  0  0  0  0  0  0
    1.3925   -5.9901    6.2169 C   0  0  0  0  0  0  0  0  0  0  0  0
    1.9263   -6.0112    7.6520 C   0  0  0  0  0  0  0  0  0  0  0  0
   -0.0793   -6.4496    6.2179 C   0  0  0  0  0  0  0  0  0  0  0  0
    4.0029   -2.8258    7.0334 H   0  0  0  0  0  0  0  0  0  0  0  0
    2.5259   -3.4365    7.7660 H   0  0  0  0  0  0  0  0  0  0  0  0
    2.4477   -2.1528    6.5567 H   0  0  0  0  0  0  0  0  0  0  0  0
   -0.5310   -3.9879    5.3108 H   0  0  0  0  0  0  0  0  0  0  0  0
    0.6362   -2.7212    5.0640 H   0  0  0  0  0  0  0  0  0  0  0  0
    0.3058   -3.3123    6.7010 H   0  0  0  0  0  0  0  0  0  0  0  0
    0.6331   -5.3184    3.6701 H   0  0  0  0  0  0  0  0  0  0  0  0
    2.0819   -4.3382    3.4167 H   0  0  0  0  0  0  0  0  0  0  0  0
    4.2614   -4.2828    3.6525 H   0  0  0  0  0  0  0  0  0  0  0  0
    5.4090   -5.4836    3.1823 H   0  0  0  0  0  0  0  0  0  0  0  0
    2.8115   -4.7035    1.7436 H   0  0  0  0  0  0  0  0  0  0  0  0
    6.5611   -5.4994    1.3841 H   0  0  0  0  0  0  0  0  0  0  0  0
    6.5944   -5.1514   -0.3041 H   0  0  0  0  0  0  0  0  0  0  0  0
    5.5772   -6.4170    0.2626 H   0  0  0  0  0  0  0  0  0  0  0  0
    2.2545   -3.3059   -0.7826 H   0  0  0  0  0  0  0  0  0  0  0  0
    3.5135   -3.3446   -2.8205 H   0  0  0  0  0  0  0  0  0  0  0  0
    2.1873   -1.4511   -2.0428 H   0  0  0  0  0  0  0  0  0  0  0  0
    5.6133   -2.7466   -3.3278 H   0  0  0  0  0  0  0  0  0  0  0  0
    5.3901   -1.1195   -2.7127 H   0  0  0  0  0  0  0  0  0  0  0  0
    5.8800   -3.4842   -1.1664 H   0  0  0  0  0  0  0  0  0  0  0  0
    7.9847   -3.6948   -1.7401 H   0  0  0  0  0  0  0  0  0  0  0  0
    8.3013   -1.9749   -1.5493 H   0  0  0  0  0  0  0  0  0  0  0  0
    8.0104   -3.9793    0.6892 H   0  0  0  0  0  0  0  0  0  0  0  0
    8.7608   -2.4489    0.6953 H   0  0  0  0  0  0  0  0  0  0  0  0
    6.8711   -1.6656    1.9029 H   0  0  0  0  0  0  0  0  0  0  0  0
    6.4898   -0.6130   -0.2517 H   0  0  0  0  0  0  0  0  0  0  0  0
    4.0372   -0.2335    2.3666 H   0  0  0  0  0  0  0  0  0  0  0  0
    4.4659    0.6822    0.9349 H   0  0  0  0  0  0  0  0  0  0  0  0
    5.7152    0.0874    2.0004 H   0  0  0  0  0  0  0  0  0  0  0  0
    2.7091   -1.2993    0.5170 H   0  0  0  0  0  0  0  0  0  0  0  0
    3.2738   -6.5840    0.0798 H   0  0  0  0  0  0  0  0  0  0  0  0
    4.1481   -7.3510    1.3669 H   0  0  0  0  0  0  0  0  0  0  0  0
    1.2074   -6.3744    1.5030 H   0  0  0  0  0  0  0  0  0  0  0  0
    1.7159   -7.9631    1.0653 H   0  0  0  0  0  0  0  0  0  0  0  0
    0.9764   -7.8672    3.3859 H   0  0  0  0  0  0  0  0  0  0  0  0
    3.9436   -8.6582    3.2337 H   0  0  0  0  0  0  0  0  0  0  0  0
    2.6351   -9.6317    2.6305 H   0  0  0  0  0  0  0  0  0  0  0  0
    2.7502   -9.2724    4.3357 H   0  0  0  0  0  0  0  0  0  0  0  0
    1.3971   -5.2667    8.2508 H   0  0  0  0  0  0  0  0  0  0  0  0
    2.9930   -5.7790    7.6766 H   0  0  0  0  0  0  0  0  0  0  0  0
    1.7907   -6.9834    8.1266 H   0  0  0  0  0  0  0  0  0  0  0  0
   -0.6779   -5.8212    6.8783 H   0  0  0  0  0  0  0  0  0  0  0  0
   -0.1815   -7.4776    6.5589 H   0  0  0  0  0  0  0  0  0  0  0  0
   -0.5389   -6.3993    5.2300 H   0  0  0  0  0  0  0  0  0  0  0  0
  1  2  1  0
  1 35  1  0
  1 36  1  0
  1 37  1  0
  3  2  1  1
  3 32  1  0
  3  4  1  0
  3  5  1  0
  4 38  1  0
  4 39  1  0
  4 40  1  0
  5  6  1  0
  5 41  1  0
  5 42  1  0
  6 29  1  0
  6  7  1  1
  6 31  1  0
  7  8  1  0
  8  9  1  0
  8 43  1  0
  8 44  1  0
  9 10  1  0
  9 27  1  0
  9 45  1  1
 10 26  1  0
 10 11  1  6
 10 12  1  0
 11 46  1  0
 11 47  1  0
 11 48  1  0
 12 13  1  0
 13 24  1  0
 13 14  1  0
 13 49  1  6
 14 15  1  0
 14 16  1  0
 14 50  1  6
 15 51  1  0
 16 17  1  0
 16 52  1  0
 16 53  1  0
 17 21  1  0
 17 18  1  0
 17 54  1  1
 18 19  1  0
 18 55  1  0
 18 56  1  0
 19 20  1  0
 19 57  1  0
 19 58  1  0
 20 26  1  0
 20 21  1  0
 20 59  1  1
 21 22  1  0
 21 60  1  6
 22 26  1  0
 22 23  1  1
 22 24  1  0
 23 61  1  0
 23 62  1  0
 23 63  1  0
 24 25  1  0
 24 64  1  1
 26 25  1  1
 27 28  1  0
 27 65  1  0
 27 66  1  0
 28 29  1  0
 28 67  1  0
 28 68  1  0
 29 30  1  0
 29 69  1  1
 30 70  1  0
 30 71  1  0
 30 72  1  0
 31 32  1  0
 32 33  1  0
 32 34  1  0
 33 73  1  0
 33 74  1  0
 33 75  1  0
 34 76  1  0
 34 77  1  0
 34 78  1  0
M  END
>  <i_m_ct_stereo_status>  (39) 
1

>  <s_m_source_file>  (39) 
/var/tmp/pbs.5076255.sched01/tmpkni74bsw/0nq93mkxh.sdf

>  <i_m_source_file_index>  (39) 
14

>  <i_lp_mmshare_version>  (39) 
48012

>  <i_f3d_flags>  (39) 
0

>  <s_epik_input>  (39) 
W0NIM11PW0NAXShbQ0gzXSkoQyhPMSkoW0NIM10pW0NIM10pW0NIMl1bQ0BAXTEyT1tDSDJdW0NASF0oW0NIMl1bQ0gyXVtDQEhdMltDSDNdKVtDQEBdMyhbQ0gzXSlPW0NAQEhdKFtDQEBIXShPNClbQ0BdNTZbQ0gzXSlbQ0BASF0oW09IXSlbQ0gyXVtDQEBIXShbQ0gyXVtDSDJdNylbQ0BASF01W0NASF03W0NAQF0zNDY=

>  <s_epik_cmdline>  (39) 
J2VwaWtfcHl0aG9uJywgJy1waHQnLCAnMi4wJywgJy1waCcsICc3LjAnLCAnLXRuJywgJzgnLCAnLW1hJywgJzIwMCcsICctaW1hZScsICc8aW5maWxlLm1hZT4nLCAnLW9tYWUnLCAnPG91dGZpbGUubWFlPic=

>  <r_lp_tautomer_probability>  (39) 
1

>  <r_epik_Ionization_Penalty>  (39) 
9.21161e-08

>  <r_epik_Ionization_Penalty_Charging>  (39) 
0

>  <r_epik_Ionization_Penalty_Neutral>  (39) 
9.21161e-08

>  <r_epik_State_Penalty>  (39) 
-0

>  <r_epik_Charging_Adjusted_Penalty>  (39) 
0

>  <i_epik_Tot_Q>  (39) 
0

>  <i_epik_Tot_abs_Q>  (39) 
0

>  <s_lp_Force_Field>  (39) 
OPLS3e

>  <r_lp_Energy>  (39) 
191.546

>  <b_lp_Chiralities_Consistent>  (39) 
1

>  <s_lp_Variant>  (39) 
6:0-1

>  <s_i_glide_gridfile>  (39) 
pfpi4k_grid

>  <i_i_glide_lignum>  (39) 
14

>  <i_i_glide_rotatable_bonds>  (39) 
3

>  <r_i_docking_score>  (39) 
-2.40776

>  <r_i_glide_ligand_efficiency>  (39) 
-0.0708165

>  <r_i_glide_ligand_efficiency_sa>  (39) 
-0.229418

>  <r_i_glide_ligand_efficiency_ln>  (39) 
-0.531942

>  <r_i_glide_gscore>  (39) 
-2.40776

>  <r_i_glide_lipo>  (39) 
-0.753348

>  <r_i_glide_hbond>  (39) 
-0.16

>  <r_i_glide_metal>  (39) 
-0

>  <r_i_glide_rewards>  (39) 
-0.159236

>  <r_i_glide_evdw>  (39) 
-24.3048

>  <r_i_glide_ecoul>  (39) 
-1.39206

>  <r_i_glide_erotb>  (39) 
0.0891378

>  <r_i_glide_esite>  (39) 
-0.000266303

>  <r_i_glide_emodel>  (39) 
-27.1884

>  <r_i_glide_energy>  (39) 
-25.6969

>  <r_i_glide_einternal>  (39) 
4.36644

>  <r_i_glide_intrahb_reward>  (39) 
-0

>  <i_i_glide_confnum>  (39) 
4

>  <i_i_glide_posenum>  (39) 
2

>  <r_i_glide_eff_state_penalty>  (39) 
0

>  <ligand_id>  (39) 
6

>  <original_smiles>  (39) 
COC1(C)CC2(OCC(C3(C)OC4C(O)CC5CCC6C5C5(C)C4OC635)CCC2C)OC1(C)C

>  <smiles>  (39) 
[H]OC1([H])C([H])([H])C2([H])C([H])([H])C([H])([H])C3([H])C2([H])C2(C([H])([H])[H])C4([H])OC32C(C([H])([H])[H])(C2([H])C([H])([H])OC3(OC(C([H])([H])[H])(C([H])([H])[H])C(OC([H])([H])[H])(C([H])([H])[H])C3([H])[H])C([H])(C([H])([H])[H])C([H])([H])C2([H])[H])OC14[H]

$$$$
6:0:2
     RDKit          3D

 78 84  0  0  1  0  0  0  0  0999 V2000
    2.1148   -3.8387   -1.1124 C   0  0  0  0  0  0  0  0  0  0  0  0
    3.1198   -4.3554   -0.2398 O   0  0  0  0  0  0  0  0  0  0  0  0
    4.0538   -3.4813    0.4208 C   0  0  1  0  0  0  0  0  0  0  0  0
    3.3374   -2.1850    0.8652 C   0  0  0  0  0  0  0  0  0  0  0  0
    4.6070   -4.2206    1.6222 C   0  0  0  0  0  0  0  0  0  0  0  0
    5.6920   -5.1463    0.9889 C   0  0  2  0  0  0  0  0  0  0  0  0
    5.1711   -6.3796    0.5954 O   0  0  0  0  0  0  0  0  0  0  0  0
    4.1622   -7.0287    1.3632 C   0  0  0  0  0  0  0  0  0  0  0  0
    4.3815   -7.0725    2.9096 C   0  0  1  0  0  0  0  0  0  0  0  0
    3.4724   -8.1686    3.5768 C   0  0  1  0  0  0  0  0  0  0  0  0
    4.1939   -9.5405    3.3171 C   0  0  0  0  0  0  0  0  0  0  0  0
    3.5276   -7.8945    4.9846 O   0  0  0  0  0  0  0  0  0  0  0  0
    2.4215   -7.1676    5.5684 C   0  0  2  0  0  0  0  0  0  0  0  0
    1.8539   -7.9940    6.7980 C   0  0  1  0  0  0  0  0  0  0  0  0
    0.9589   -7.1716    7.5350 O   0  0  0  0  0  0  0  0  0  0  0  0
    1.2146   -9.4282    6.6244 C   0  0  0  0  0  0  0  0  0  0  0  0
    1.3193   -9.9213    5.1866 C   0  0  1  0  0  0  0  0  0  0  0  0
    1.3425  -11.3089    4.5660 C   0  0  0  0  0  0  0  0  0  0  0  0
    1.4144  -10.9336    3.0283 C   0  0  0  0  0  0  0  0  0  0  0  0
    1.0140   -9.4476    2.8536 C   0  0  1  0  0  0  0  0  0  0  0  0
    0.4427   -9.1993    4.2241 C   0  0  2  0  0  0  0  0  0  0  0  0
    0.5247   -7.7796    3.8948 C   0  0  1  0  0  0  0  0  0  0  0  0
   -0.7640   -7.2221    3.2183 C   0  0  0  0  0  0  0  0  0  0  0  0
    1.3793   -6.7432    4.4826 C   0  0  2  0  0  0  0  0  0  0  0  0
    1.8296   -6.6614    3.0890 O   0  0  0  0  0  0  0  0  0  0  0  0
    1.9194   -8.1124    3.1117 C   0  0  2  0  0  0  0  0  0  0  0  0
    5.8637   -7.2108    3.3236 C   0  0  0  0  0  0  0  0  0  0  0  0
    6.6440   -5.8943    3.2657 C   0  0  0  0  0  0  0  0  0  0  0  0
    6.9641   -5.4004    1.8506 C   0  0  1  0  0  0  0  0  0  0  0  0
    7.9499   -6.3581    1.1156 C   0  0  0  0  0  0  0  0  0  0  0  0
    6.1346   -4.4433   -0.1411 O   0  0  0  0  0  0  0  0  0  0  0  0
    5.3452   -3.2923   -0.4264 C   0  0  0  0  0  0  0  0  0  0  0  0
    5.1242   -3.1892   -1.9414 C   0  0  0  0  0  0  0  0  0  0  0  0
    6.1630   -2.0706    0.0430 C   0  0  0  0  0  0  0  0  0  0  0  0
    1.5520   -4.6509   -1.5901 H   0  0  0  0  0  0  0  0  0  0  0  0
    2.5386   -3.2066   -1.8888 H   0  0  0  0  0  0  0  0  0  0  0  0
    1.4084   -3.2554   -0.5521 H   0  0  0  0  0  0  0  0  0  0  0  0
    3.9734   -1.5507    1.4815 H   0  0  0  0  0  0  0  0  0  0  0  0
    2.4773   -2.4341    1.4783 H   0  0  0  0  0  0  0  0  0  0  0  0
    2.9941   -1.5889    0.0167 H   0  0  0  0  0  0  0  0  0  0  0  0
    5.0991   -3.5216    2.2911 H   0  0  0  0  0  0  0  0  0  0  0  0
    3.8079   -4.7186    2.1488 H   0  0  0  0  0  0  0  0  0  0  0  0
    3.1968   -6.5733    1.1143 H   0  0  0  0  0  0  0  0  0  0  0  0
    4.0946   -8.0295    0.9364 H   0  0  0  0  0  0  0  0  0  0  0  0
    4.0820   -6.1285    3.3320 H   0  0  0  0  0  0  0  0  0  0  0  0
    4.1285   -9.8192    2.2638 H   0  0  0  0  0  0  0  0  0  0  0  0
    3.8311  -10.4101    3.8730 H   0  0  0  0  0  0  0  0  0  0  0  0
    5.2490   -9.4753    3.5590 H   0  0  0  0  0  0  0  0  0  0  0  0
    2.8624   -6.2456    5.9549 H   0  0  0  0  0  0  0  0  0  0  0  0
    2.7180   -8.1343    7.4428 H   0  0  0  0  0  0  0  0  0  0  0  0
    1.4349   -6.4323    7.8385 H   0  0  0  0  0  0  0  0  0  0  0  0
    1.7598  -10.1229    7.2640 H   0  0  0  0  0  0  0  0  0  0  0  0
    0.1746   -9.4590    6.9427 H   0  0  0  0  0  0  0  0  0  0  0  0
    2.3595   -9.7412    5.0878 H   0  0  0  0  0  0  0  0  0  0  0  0
    2.1793  -11.9178    4.9020 H   0  0  0  0  0  0  0  0  0  0  0  0
    0.4139  -11.8300    4.7893 H   0  0  0  0  0  0  0  0  0  0  0  0
    2.3778  -11.1617    2.5773 H   0  0  0  0  0  0  0  0  0  0  0  0
    0.7294  -11.5834    2.4786 H   0  0  0  0  0  0  0  0  0  0  0  0
    0.3030   -9.3025    2.0379 H   0  0  0  0  0  0  0  0  0  0  0  0
   -0.5982   -9.5251    4.2985 H   0  0  0  0  0  0  0  0  0  0  0  0
   -0.5660   -6.2949    2.6876 H   0  0  0  0  0  0  0  0  0  0  0  0
   -1.5390   -7.0199    3.9634 H   0  0  0  0  0  0  0  0  0  0  0  0
   -1.2113   -7.9103    2.5043 H   0  0  0  0  0  0  0  0  0  0  0  0
    0.7681   -5.8768    4.7854 H   0  0  0  0  0  0  0  0  0  0  0  0
    5.9389   -7.5687    4.3597 H   0  0  0  0  0  0  0  0  0  0  0  0
    6.3454   -8.0012    2.7297 H   0  0  0  0  0  0  0  0  0  0  0  0
    6.1570   -5.1141    3.8540 H   0  0  0  0  0  0  0  0  0  0  0  0
    7.5850   -6.0687    3.7795 H   0  0  0  0  0  0  0  0  0  0  0  0
    7.4914   -4.4512    1.9571 H   0  0  0  0  0  0  0  0  0  0  0  0
    7.5134   -7.3173    0.8685 H   0  0  0  0  0  0  0  0  0  0  0  0
    8.8300   -6.5874    1.7123 H   0  0  0  0  0  0  0  0  0  0  0  0
    8.3136   -5.9355    0.1836 H   0  0  0  0  0  0  0  0  0  0  0  0
    4.4879   -2.3280   -2.1568 H   0  0  0  0  0  0  0  0  0  0  0  0
    4.6276   -4.0826   -2.3214 H   0  0  0  0  0  0  0  0  0  0  0  0
    6.0612   -3.0777   -2.4897 H   0  0  0  0  0  0  0  0  0  0  0  0
    5.6514   -1.1435   -0.2182 H   0  0  0  0  0  0  0  0  0  0  0  0
    7.1506   -2.0432   -0.4081 H   0  0  0  0  0  0  0  0  0  0  0  0
    6.3115   -2.0557    1.1211 H   0  0  0  0  0  0  0  0  0  0  0  0
  1  2  1  0
  1 35  1  0
  1 36  1  0
  1 37  1  0
  3  2  1  6
  3 32  1  0
  3  4  1  0
  3  5  1  0
  4 38  1  0
  4 39  1  0
  4 40  1  0
  5  6  1  0
  5 41  1  0
  5 42  1  0
  6 29  1  0
  6  7  1  6
  6 31  1  0
  7  8  1  0
  8  9  1  0
  8 43  1  0
  8 44  1  0
  9 10  1  0
  9 27  1  0
  9 45  1  1
 10 26  1  0
 10 11  1  1
 10 12  1  0
 11 46  1  0
 11 47  1  0
 11 48  1  0
 12 13  1  0
 13 24  1  0
 13 14  1  0
 13 49  1  1
 14 15  1  0
 14 16  1  0
 14 50  1  1
 15 51  1  0
 16 17  1  0
 16 52  1  0
 16 53  1  0
 17 21  1  0
 17 18  1  0
 17 54  1  6
 18 19  1  0
 18 55  1  0
 18 56  1  0
 19 20  1  0
 19 57  1  0
 19 58  1  0
 20 26  1  0
 20 21  1  0
 20 59  1  6
 21 22  1  0
 21 60  1  6
 22 26  1  0
 22 23  1  6
 22 24  1  0
 23 61  1  0
 23 62  1  0
 23 63  1  0
 24 25  1  0
 24 64  1  1
 26 25  1  6
 27 28  1  0
 27 65  1  0
 27 66  1  0
 28 29  1  0
 28 67  1  0
 28 68  1  0
 29 30  1  0
 29 69  1  1
 30 70  1  0
 30 71  1  0
 30 72  1  0
 31 32  1  0
 32 33  1  0
 32 34  1  0
 33 73  1  0
 33 74  1  0
 33 75  1  0
 34 76  1  0
 34 77  1  0
 34 78  1  0
M  END
>  <i_m_ct_stereo_status>  (40) 
1

>  <s_m_source_file>  (40) 
/var/tmp/pbs.5076255.sched01/tmpkni74bsw/0nq93mkxh.sdf

>  <i_m_source_file_index>  (40) 
14

>  <i_lp_mmshare_version>  (40) 
48012

>  <i_f3d_flags>  (40) 
0

>  <s_epik_input>  (40) 
W0NIM11PW0NAXShbQ0gzXSkoQyhPMSkoW0NIM10pW0NIM10pW0NIMl1bQ0BAXTEyT1tDSDJdW0NASF0oW0NIMl1bQ0gyXVtDQEhdMltDSDNdKVtDQEBdMyhbQ0gzXSlPW0NAQEhdKFtDQEBIXShPNClbQ0BdNTZbQ0gzXSlbQ0BASF0oW09IXSlbQ0gyXVtDQEBIXShbQ0gyXVtDSDJdNylbQ0BASF01W0NASF03W0NAQF0zNDY=

>  <s_epik_cmdline>  (40) 
J2VwaWtfcHl0aG9uJywgJy1waHQnLCAnMi4wJywgJy1waCcsICc3LjAnLCAnLXRuJywgJzgnLCAnLW1hJywgJzIwMCcsICctaW1hZScsICc8aW5maWxlLm1hZT4nLCAnLW9tYWUnLCAnPG91dGZpbGUubWFlPic=

>  <r_lp_tautomer_probability>  (40) 
1

>  <r_epik_Ionization_Penalty>  (40) 
9.21161e-08

>  <r_epik_Ionization_Penalty_Charging>  (40) 
0

>  <r_epik_Ionization_Penalty_Neutral>  (40) 
9.21161e-08

>  <r_epik_State_Penalty>  (40) 
-0

>  <r_epik_Charging_Adjusted_Penalty>  (40) 
0

>  <i_epik_Tot_Q>  (40) 
0

>  <i_epik_Tot_abs_Q>  (40) 
0

>  <s_lp_Force_Field>  (40) 
OPLS3e

>  <r_lp_Energy>  (40) 
191.546

>  <b_lp_Chiralities_Consistent>  (40) 
1

>  <s_lp_Variant>  (40) 
6:0-1

>  <s_i_glide_gridfile>  (40) 
pfpi4k_grid

>  <i_i_glide_lignum>  (40) 
14

>  <i_i_glide_rotatable_bonds>  (40) 
3

>  <r_i_docking_score>  (40) 
-2.17188

>  <r_i_glide_ligand_efficiency>  (40) 
-0.0638789

>  <r_i_glide_ligand_efficiency_sa>  (40) 
-0.206943

>  <r_i_glide_ligand_efficiency_ln>  (40) 
-0.47983

>  <r_i_glide_gscore>  (40) 
-2.17188

>  <r_i_glide_lipo>  (40) 
-0.531193

>  <r_i_glide_hbond>  (40) 
0

>  <r_i_glide_metal>  (40) 
-0

>  <r_i_glide_rewards>  (40) 
-0.273562

>  <r_i_glide_evdw>  (40) 
-25.6468

>  <r_i_glide_ecoul>  (40) 
-1.15949

>  <r_i_glide_erotb>  (40) 
0.0891378

>  <r_i_glide_esite>  (40) 
0

>  <r_i_glide_emodel>  (40) 
-27.592

>  <r_i_glide_energy>  (40) 
-26.8063

>  <r_i_glide_einternal>  (40) 
4.06292

>  <r_i_glide_intrahb_reward>  (40) 
-0

>  <i_i_glide_confnum>  (40) 
4

>  <i_i_glide_posenum>  (40) 
8

>  <r_i_glide_eff_state_penalty>  (40) 
0

>  <ligand_id>  (40) 
6

>  <original_smiles>  (40) 
COC1(C)CC2(OCC(C3(C)OC4C(O)CC5CCC6C5C5(C)C4OC635)CCC2C)OC1(C)C

>  <smiles>  (40) 
[H]OC1([H])C([H])([H])C2([H])C([H])([H])C([H])([H])C3([H])C2([H])C2(C([H])([H])[H])C4([H])OC32C(C([H])([H])[H])(C2([H])C([H])([H])OC3(OC(C([H])([H])[H])(C([H])([H])[H])C(OC([H])([H])[H])(C([H])([H])[H])C3([H])[H])C([H])(C([H])([H])[H])C([H])([H])C2([H])[H])OC14[H]

$$$$
8:0:0
     RDKit          3D

 67 74  0  0  1  0  0  0  0  0999 V2000
    1.8839   -5.0880    6.8923 C   0  0  0  0  0  0  0  0  0  0  0  0
    1.1482   -5.8425    5.7822 C   0  0  2  0  0  0  0  0  0  0  0  0
   -0.1556   -6.5582    6.0435 C   0  0  2  0  0  0  0  0  0  0  0  0
    0.7340   -7.5183    6.5907 O   0  0  0  0  0  0  0  0  0  0  0  0
    1.6253   -7.3126    5.4076 C   0  0  2  0  0  0  0  0  0  0  0  0
    1.1901   -8.8583    5.2880 C   0  0  2  0  0  0  0  0  0  0  0  0
    2.3531   -9.7739    4.9314 C   0  0  1  0  0  0  0  0  0  0  0  0
    1.9732  -11.1244    5.1559 O   0  0  0  0  0  0  0  0  0  0  0  0
    2.9966   -9.5244    3.5171 C   0  0  2  0  0  0  0  0  0  0  0  0
    2.5294  -10.6688    2.5579 C   0  0  0  0  0  0  0  0  0  0  0  0
    4.5547   -9.7537    3.7437 C   0  0  2  0  0  0  0  0  0  0  0  0
    5.2773   -8.5681    4.4262 C   0  0  0  0  0  0  0  0  0  0  0  0
    4.6658   -7.1917    4.1497 C   0  0  0  0  0  0  0  0  0  0  0  0
    3.8086   -7.0760    2.8585 C   0  0  1  0  0  0  0  0  0  0  0  0
    3.3676   -5.5922    2.8210 C   0  0  0  0  0  0  0  0  0  0  0  0
    4.6566   -7.2647    1.5252 C   0  0  1  0  0  0  0  0  0  0  0  0
    5.9195   -6.4024    1.3806 C   0  0  0  0  0  0  0  0  0  0  0  0
    7.1680   -6.5114    2.0661 C   0  0  0  0  0  0  0  0  0  0  0  0
    7.9905   -5.5455    1.5694 C   0  0  0  0  0  0  0  0  0  0  0  0
    7.3474   -4.8173    0.6247 O   0  0  0  0  0  0  0  0  0  0  0  0
    6.0963   -5.3441    0.5276 C   0  0  0  0  0  0  0  0  0  0  0  0
    4.8073   -8.6250    1.1097 O   0  0  0  0  0  0  0  0  0  0  0  0
    5.8201   -9.3849    1.5114 C   0  0  0  0  0  0  0  0  0  0  0  0
    6.9514   -9.3447    1.0370 O   0  0  0  0  0  0  0  0  0  0  0  0
    5.4134  -10.3825    2.5966 C   0  0  1  0  0  0  0  0  0  0  0  0
    6.5684  -10.9986    3.1566 O   0  0  0  0  0  0  0  0  0  0  0  0
    2.5416   -8.0659    2.9664 C   0  0  1  0  0  0  0  0  0  0  0  0
    2.0938   -8.2370    1.6329 O   0  0  0  0  0  0  0  0  0  0  0  0
    1.2693   -7.4940    3.8102 C   0  0  2  0  0  0  0  0  0  0  0  0
    0.3444   -6.4131    3.0612 C   0  0  1  0  0  0  0  0  0  0  0  0
   -0.0484   -6.7185    1.7394 O   0  0  0  0  0  0  0  0  0  0  0  0
   -0.8358   -6.3385    3.8164 O   0  0  0  0  0  0  0  0  0  0  0  0
   -0.8418   -7.3053    4.8540 C   0  0  1  0  0  0  0  0  0  0  0  0
    0.1389   -8.3689    4.2971 C   0  0  2  0  0  0  0  0  0  0  0  0
   -0.5736   -9.3666    3.3672 C   0  0  0  0  0  0  0  0  0  0  0  0
    2.0395   -5.6847    7.7912 H   0  0  0  0  0  0  0  0  0  0  0  0
    1.3502   -4.1826    7.1776 H   0  0  0  0  0  0  0  0  0  0  0  0
    2.8639   -4.7683    6.5387 H   0  0  0  0  0  0  0  0  0  0  0  0
    1.0199   -5.1253    4.9808 H   0  0  0  0  0  0  0  0  0  0  0  0
   -0.8006   -6.0678    6.7701 H   0  0  0  0  0  0  0  0  0  0  0  0
    0.6246   -9.4109    6.0615 H   0  0  0  0  0  0  0  0  0  0  0  0
    3.1037   -9.5798    5.7018 H   0  0  0  0  0  0  0  0  0  0  0  0
    1.8051  -11.2872    6.0836 H   0  0  0  0  0  0  0  0  0  0  0  0
    2.9119  -10.5349    1.5470 H   0  0  0  0  0  0  0  0  0  0  0  0
    1.4515  -10.7674    2.4886 H   0  0  0  0  0  0  0  0  0  0  0  0
    2.8950  -11.6461    2.8755 H   0  0  0  0  0  0  0  0  0  0  0  0
    4.6055  -10.5567    4.4784 H   0  0  0  0  0  0  0  0  0  0  0  0
    5.3270   -8.7266    5.5072 H   0  0  0  0  0  0  0  0  0  0  0  0
    6.3209   -8.5517    4.1216 H   0  0  0  0  0  0  0  0  0  0  0  0
    4.0481   -6.9564    5.0113 H   0  0  0  0  0  0  0  0  0  0  0  0
    5.4449   -6.4258    4.1780 H   0  0  0  0  0  0  0  0  0  0  0  0
    2.7117   -5.3917    1.9728 H   0  0  0  0  0  0  0  0  0  0  0  0
    4.2179   -4.9178    2.7229 H   0  0  0  0  0  0  0  0  0  0  0  0
    2.8736   -5.2821    3.7377 H   0  0  0  0  0  0  0  0  0  0  0  0
    4.0151   -6.8795    0.7285 H   0  0  0  0  0  0  0  0  0  0  0  0
    7.4647   -7.2337    2.8061 H   0  0  0  0  0  0  0  0  0  0  0  0
    9.0131   -5.2761    1.7694 H   0  0  0  0  0  0  0  0  0  0  0  0
    5.4709   -4.8665   -0.2142 H   0  0  0  0  0  0  0  0  0  0  0  0
    4.9016  -11.1987    2.0953 H   0  0  0  0  0  0  0  0  0  0  0  0
    6.2927  -11.7171    3.7095 H   0  0  0  0  0  0  0  0  0  0  0  0
    1.5803   -9.0314    1.5924 H   0  0  0  0  0  0  0  0  0  0  0  0
    0.7581   -5.4113    3.0001 H   0  0  0  0  0  0  0  0  0  0  0  0
   -0.2007   -7.6510    1.7043 H   0  0  0  0  0  0  0  0  0  0  0  0
   -1.8234   -7.7120    5.0824 H   0  0  0  0  0  0  0  0  0  0  0  0
   -1.6380   -9.1499    3.2775 H   0  0  0  0  0  0  0  0  0  0  0  0
   -0.4787  -10.3936    3.7156 H   0  0  0  0  0  0  0  0  0  0  0  0
   -0.1751   -9.3240    2.3581 H   0  0  0  0  0  0  0  0  0  0  0  0
  1  2  1  0
  1 36  1  0
  1 37  1  0
  1 38  1  0
  2  5  1  0
  2  3  1  0
  2 39  1  6
  3 33  1  0
  3  4  1  0
  3 40  1  1
  5  4  1  1
  5 29  1  0
  5  6  1  0
  6 34  1  0
  6  7  1  0
  6 41  1  1
  7  8  1  0
  7  9  1  0
  7 42  1  1
  8 43  1  0
  9 27  1  0
  9 10  1  6
  9 11  1  0
 10 44  1  0
 10 45  1  0
 10 46  1  0
 11 25  1  0
 11 12  1  0
 11 47  1  1
 12 13  1  0
 12 48  1  0
 12 49  1  0
 13 14  1  0
 13 50  1  0
 13 51  1  0
 14 15  1  6
 14 16  1  0
 14 27  1  0
 15 52  1  0
 15 53  1  0
 15 54  1  0
 16 17  1  0
 16 22  1  0
 16 55  1  6
 17 21  2  0
 17 18  1  0
 18 19  2  0
 18 56  1  0
 19 20  1  0
 19 57  1  0
 20 21  1  0
 21 58  1  0
 22 23  1  0
 23 24  2  0
 23 25  1  0
 25 26  1  0
 25 59  1  6
 26 60  1  0
 27 28  1  6
 29 27  1  6
 28 61  1  0
 29 34  1  0
 29 30  1  0
 30 31  1  0
 30 32  1  0
 30 62  1  6
 31 63  1  0
 32 33  1  0
 33 34  1  0
 33 64  1  1
 34 35  1  6
 35 65  1  0
 35 66  1  0
 35 67  1  0
M  END
>  <i_m_ct_stereo_status>  (41) 
1

>  <s_m_source_file>  (41) 
/var/tmp/pbs.5076255.sched01/tmpkni74bsw/0nq93mkxh.sdf

>  <i_m_source_file_index>  (41) 
16

>  <i_lp_mmshare_version>  (41) 
48012

>  <i_f3d_flags>  (41) 
0

>  <s_epik_input>  (41) 
W0NIM11bQ0BASF0xW0NASF0oTzIpW0NAQEhdKE9bQ0BASF0zW09IXSlbQ0BdNChbQ0gzXSlbQ0BIXTVbQ0BASF0oW09IXSlbQ0BAXShbQ0gzXSkoW0NAQF02KFtPSF0pW0NAQF0zNFtDQEBdMTI1KVtDQEBIXTdbQ0gyXVtDSDJdW0NAQF02KFtDSDNdKVtDQEhdKE9DKD1PKVtDQEhdN1tPSF0pYzhbY0hdW2NIXW9bY0hdOA==

>  <s_epik_cmdline>  (41) 
J2VwaWtfcHl0aG9uJywgJy1waHQnLCAnMi4wJywgJy1waCcsICc3LjAnLCAnLXRuJywgJzgnLCAnLW1hJywgJzIwMCcsICctaW1hZScsICc8aW5maWxlLm1hZT4nLCAnLW9tYWUnLCAnPG91dGZpbGUubWFlPic=

>  <r_lp_tautomer_probability>  (41) 
1

>  <r_epik_Ionization_Penalty>  (41) 
3.09732e-05

>  <r_epik_Ionization_Penalty_Charging>  (41) 
0

>  <r_epik_Ionization_Penalty_Neutral>  (41) 
3.09732e-05

>  <r_epik_State_Penalty>  (41) 
-0

>  <r_epik_Charging_Adjusted_Penalty>  (41) 
0

>  <i_epik_Tot_Q>  (41) 
0

>  <i_epik_Tot_abs_Q>  (41) 
0

>  <s_epik_Chemistry_Notes>  (41) 
This compound has an ester and may undergo hydrolysis at high or low pH. This compound contains an acetal/aminal-like group ( X-CH(R)-Y where X, Y are N, S, or O) that may be acid/base labile, releasing an aldehyde.

>  <s_lp_Force_Field>  (41) 
OPLS3e

>  <r_lp_Energy>  (41) 
247.263

>  <b_lp_Chiralities_Consistent>  (41) 
1

>  <s_lp_Variant>  (41) 
8:0-1

>  <s_i_glide_gridfile>  (41) 
pfpi4k_grid

>  <i_i_glide_lignum>  (41) 
16

>  <i_i_glide_rotatable_bonds>  (41) 
5

>  <r_i_docking_score>  (41) 
-3.56485

>  <r_i_glide_ligand_efficiency>  (41) 
-0.101853

>  <r_i_glide_ligand_efficiency_sa>  (41) 
-0.333168

>  <r_i_glide_ligand_efficiency_ln>  (41) 
-0.782564

>  <r_i_glide_gscore>  (41) 
-3.56485

>  <r_i_glide_lipo>  (41) 
-0.402878

>  <r_i_glide_hbond>  (41) 
-0.251976

>  <r_i_glide_metal>  (41) 
-0

>  <r_i_glide_rewards>  (41) 
-0.0868782

>  <r_i_glide_evdw>  (41) 
-24.225

>  <r_i_glide_ecoul>  (41) 
-10.8564

>  <r_i_glide_erotb>  (41) 
0.0852141

>  <r_i_glide_esite>  (41) 
-0.0686174

>  <r_i_glide_emodel>  (41) 
-42.4088

>  <r_i_glide_energy>  (41) 
-35.0814

>  <r_i_glide_einternal>  (41) 
1.46872

>  <r_i_glide_intrahb_reward>  (41) 
-0

>  <i_i_glide_confnum>  (41) 
4

>  <i_i_glide_posenum>  (41) 
8

>  <r_i_glide_eff_state_penalty>  (41) 
0

>  <ligand_id>  (41) 
8

>  <original_smiles>  (41) 
CC1C2OC13C1C(O)C4(C)C5CCC(C)(C(c6ccoc6)OC(=O)C5O)C4(O)C34C(O)OC2C14C

>  <smiles>  (41) 
[H]OC1([H])OC2([H])C3([H])OC4(C3([H])C([H])([H])[H])C3([H])C([H])(O[H])C5(C([H])([H])[H])C6([H])C([H])(O[H])C(=O)OC([H])(c7c([H])oc([H])c7[H])C(C([H])([H])[H])(C([H])([H])C6([H])[H])C5(O[H])C14C23C([H])([H])[H]

$$$$
8:0:1
     RDKit          3D

 67 74  0  0  1  0  0  0  0  0999 V2000
    1.8611   -5.0024    6.8364 C   0  0  0  0  0  0  0  0  0  0  0  0
    1.1292   -5.7785    5.7376 C   0  0  2  0  0  0  0  0  0  0  0  0
   -0.1466   -6.5354    6.0183 C   0  0  2  0  0  0  0  0  0  0  0  0
    0.7814   -7.4714    6.5400 O   0  0  0  0  0  0  0  0  0  0  0  0
    1.6449   -7.2315    5.3434 C   0  0  2  0  0  0  0  0  0  0  0  0
    1.2569   -8.7914    5.2172 C   0  0  2  0  0  0  0  0  0  0  0  0
    2.4333   -9.6724    4.8145 C   0  0  1  0  0  0  0  0  0  0  0  0
    2.1187  -11.0380    5.0260 O   0  0  0  0  0  0  0  0  0  0  0  0
    3.0523   -9.3839    3.4048 C   0  0  2  0  0  0  0  0  0  0  0  0
    2.6060  -10.5351    2.4452 C   0  0  0  0  0  0  0  0  0  0  0  0
    4.6223   -9.5616    3.6119 C   0  0  2  0  0  0  0  0  0  0  0  0
    5.3224   -8.3562    4.2857 C   0  0  0  0  0  0  0  0  0  0  0  0
    4.6575   -7.0022    4.0389 C   0  0  0  0  0  0  0  0  0  0  0  0
    3.7754   -6.9106    2.7662 C   0  0  1  0  0  0  0  0  0  0  0  0
    3.2849   -5.4419    2.7385 C   0  0  0  0  0  0  0  0  0  0  0  0
    4.6181   -7.0768    1.4306 C   0  0  1  0  0  0  0  0  0  0  0  0
    5.8248   -6.1488    1.2480 C   0  0  0  0  0  0  0  0  0  0  0  0
    5.8664   -4.9989    0.4052 C   0  0  0  0  0  0  0  0  0  0  0  0
    7.1260   -4.4766    0.5018 C   0  0  0  0  0  0  0  0  0  0  0  0
    7.8834   -5.2157    1.3462 O   0  0  0  0  0  0  0  0  0  0  0  0
    7.0792   -6.2120    1.7983 C   0  0  0  0  0  0  0  0  0  0  0  0
    4.8098   -8.4245    0.9894 O   0  0  0  0  0  0  0  0  0  0  0  0
    5.8485   -9.1555    1.3725 C   0  0  0  0  0  0  0  0  0  0  0  0
    6.9781   -9.0751    0.8902 O   0  0  0  0  0  0  0  0  0  0  0  0
    5.4853  -10.1669    2.4547 C   0  0  1  0  0  0  0  0  0  0  0  0
    6.6646  -10.7467    2.9945 O   0  0  0  0  0  0  0  0  0  0  0  0
    2.5413   -7.9371    2.8816 C   0  0  1  0  0  0  0  0  0  0  0  0
    2.0756   -8.1081    1.5551 O   0  0  0  0  0  0  0  0  0  0  0  0
    1.2647   -7.4138    3.7535 C   0  0  2  0  0  0  0  0  0  0  0  0
    0.2907   -6.3594    3.0309 C   0  0  1  0  0  0  0  0  0  0  0  0
   -0.1180   -6.6665    1.7149 O   0  0  0  0  0  0  0  0  0  0  0  0
   -0.8777   -6.3303    3.8090 O   0  0  0  0  0  0  0  0  0  0  0  0
   -0.8319   -7.3002    4.8419 C   0  0  1  0  0  0  0  0  0  0  0  0
    0.1706   -8.3272    4.2569 C   0  0  2  0  0  0  0  0  0  0  0  0
   -0.5283   -9.3417    3.3364 C   0  0  0  0  0  0  0  0  0  0  0  0
    2.0518   -5.5990    7.7279 H   0  0  0  0  0  0  0  0  0  0  0  0
    1.3035   -4.1159    7.1357 H   0  0  0  0  0  0  0  0  0  0  0  0
    2.8234   -4.6502    6.4654 H   0  0  0  0  0  0  0  0  0  0  0  0
    0.9622   -5.0624    4.9441 H   0  0  0  0  0  0  0  0  0  0  0  0
   -0.7882   -6.0691    6.7623 H   0  0  0  0  0  0  0  0  0  0  0  0
    0.7347   -9.3662    6.0051 H   0  0  0  0  0  0  0  0  0  0  0  0
    3.1871   -9.4697    5.5776 H   0  0  0  0  0  0  0  0  0  0  0  0
    1.2895  -11.2413    4.6167 H   0  0  0  0  0  0  0  0  0  0  0  0
    2.9672  -10.3784    1.4294 H   0  0  0  0  0  0  0  0  0  0  0  0
    1.5298  -10.6545    2.3874 H   0  0  0  0  0  0  0  0  0  0  0  0
    3.0044  -11.5053    2.7478 H   0  0  0  0  0  0  0  0  0  0  0  0
    4.7105  -10.3636    4.3442 H   0  0  0  0  0  0  0  0  0  0  0  0
    5.4062   -8.5216    5.3637 H   0  0  0  0  0  0  0  0  0  0  0  0
    6.3550   -8.2888    3.9459 H   0  0  0  0  0  0  0  0  0  0  0  0
    4.0496   -6.7948    4.9148 H   0  0  0  0  0  0  0  0  0  0  0  0
    5.4132   -6.2118    4.0494 H   0  0  0  0  0  0  0  0  0  0  0  0
    2.6092   -5.2603    1.9015 H   0  0  0  0  0  0  0  0  0  0  0  0
    4.1095   -4.7381    2.6301 H   0  0  0  0  0  0  0  0  0  0  0  0
    2.7956   -5.1496    3.6635 H   0  0  0  0  0  0  0  0  0  0  0  0
    3.9538   -6.7143    0.6497 H   0  0  0  0  0  0  0  0  0  0  0  0
    5.0787   -4.6113   -0.2208 H   0  0  0  0  0  0  0  0  0  0  0  0
    7.6284   -3.6386    0.0468 H   0  0  0  0  0  0  0  0  0  0  0  0
    7.5736   -6.8999    2.4692 H   0  0  0  0  0  0  0  0  0  0  0  0
    4.9881  -11.0025    1.9701 H   0  0  0  0  0  0  0  0  0  0  0  0
    6.4171  -11.4636    3.5620 H   0  0  0  0  0  0  0  0  0  0  0  0
    1.5121   -8.8689    1.5333 H   0  0  0  0  0  0  0  0  0  0  0  0
    0.6711   -5.3441    2.9705 H   0  0  0  0  0  0  0  0  0  0  0  0
   -0.2766   -7.5988    1.6827 H   0  0  0  0  0  0  0  0  0  0  0  0
   -1.7940   -7.7394    5.0935 H   0  0  0  0  0  0  0  0  0  0  0  0
   -1.6003   -9.1548    3.2615 H   0  0  0  0  0  0  0  0  0  0  0  0
   -0.4016  -10.3655    3.6849 H   0  0  0  0  0  0  0  0  0  0  0  0
   -0.1483   -9.2829    2.3207 H   0  0  0  0  0  0  0  0  0  0  0  0
  1  2  1  0
  1 36  1  0
  1 37  1  0
  1 38  1  0
  2  5  1  0
  2  3  1  0
  2 39  1  6
  3 33  1  0
  3  4  1  0
  3 40  1  1
  5  4  1  1
  5 29  1  0
  5  6  1  0
  6 34  1  0
  6  7  1  0
  6 41  1  1
  7  8  1  0
  7  9  1  0
  7 42  1  1
  8 43  1  0
  9 27  1  0
  9 10  1  6
  9 11  1  0
 10 44  1  0
 10 45  1  0
 10 46  1  0
 11 25  1  0
 11 12  1  0
 11 47  1  1
 12 13  1  0
 12 48  1  0
 12 49  1  0
 13 14  1  0
 13 50  1  0
 13 51  1  0
 14 15  1  6
 14 16  1  0
 14 27  1  0
 15 52  1  0
 15 53  1  0
 15 54  1  0
 16 17  1  0
 16 22  1  0
 16 55  1  6
 17 21  2  0
 17 18  1  0
 18 19  2  0
 18 56  1  0
 19 20  1  0
 19 57  1  0
 20 21  1  0
 21 58  1  0
 22 23  1  0
 23 24  2  0
 23 25  1  0
 25 26  1  0
 25 59  1  6
 26 60  1  0
 27 28  1  6
 29 27  1  6
 28 61  1  0
 29 34  1  0
 29 30  1  0
 30 31  1  0
 30 32  1  0
 30 62  1  6
 31 63  1  0
 32 33  1  0
 33 34  1  0
 33 64  1  1
 34 35  1  6
 35 65  1  0
 35 66  1  0
 35 67  1  0
M  END
>  <i_m_ct_stereo_status>  (42) 
1

>  <s_m_source_file>  (42) 
/var/tmp/pbs.5076255.sched01/tmpkni74bsw/0nq93mkxh.sdf

>  <i_m_source_file_index>  (42) 
16

>  <i_lp_mmshare_version>  (42) 
48012

>  <i_f3d_flags>  (42) 
0

>  <s_epik_input>  (42) 
W0NIM11bQ0BASF0xW0NASF0oTzIpW0NAQEhdKE9bQ0BASF0zW09IXSlbQ0BdNChbQ0gzXSlbQ0BIXTVbQ0BASF0oW09IXSlbQ0BAXShbQ0gzXSkoW0NAQF02KFtPSF0pW0NAQF0zNFtDQEBdMTI1KVtDQEBIXTdbQ0gyXVtDSDJdW0NAQF02KFtDSDNdKVtDQEhdKE9DKD1PKVtDQEhdN1tPSF0pYzhbY0hdW2NIXW9bY0hdOA==

>  <s_epik_cmdline>  (42) 
J2VwaWtfcHl0aG9uJywgJy1waHQnLCAnMi4wJywgJy1waCcsICc3LjAnLCAnLXRuJywgJzgnLCAnLW1hJywgJzIwMCcsICctaW1hZScsICc8aW5maWxlLm1hZT4nLCAnLW9tYWUnLCAnPG91dGZpbGUubWFlPic=

>  <r_lp_tautomer_probability>  (42) 
1

>  <r_epik_Ionization_Penalty>  (42) 
3.09732e-05

>  <r_epik_Ionization_Penalty_Charging>  (42) 
0

>  <r_epik_Ionization_Penalty_Neutral>  (42) 
3.09732e-05

>  <r_epik_State_Penalty>  (42) 
-0

>  <r_epik_Charging_Adjusted_Penalty>  (42) 
0

>  <i_epik_Tot_Q>  (42) 
0

>  <i_epik_Tot_abs_Q>  (42) 
0

>  <s_epik_Chemistry_Notes>  (42) 
This compound has an ester and may undergo hydrolysis at high or low pH. This compound contains an acetal/aminal-like group ( X-CH(R)-Y where X, Y are N, S, or O) that may be acid/base labile, releasing an aldehyde.

>  <s_lp_Force_Field>  (42) 
OPLS3e

>  <r_lp_Energy>  (42) 
247.263

>  <b_lp_Chiralities_Consistent>  (42) 
1

>  <s_lp_Variant>  (42) 
8:0-1

>  <s_i_glide_gridfile>  (42) 
pfpi4k_grid

>  <i_i_glide_lignum>  (42) 
16

>  <i_i_glide_rotatable_bonds>  (42) 
5

>  <r_i_docking_score>  (42) 
-3.1255

>  <r_i_glide_ligand_efficiency>  (42) 
-0.0892999

>  <r_i_glide_ligand_efficiency_sa>  (42) 
-0.292106

>  <r_i_glide_ligand_efficiency_ln>  (42) 
-0.686116

>  <r_i_glide_gscore>  (42) 
-3.1255

>  <r_i_glide_lipo>  (42) 
-0.483396

>  <r_i_glide_hbond>  (42) 
-0.0911229

>  <r_i_glide_metal>  (42) 
-0

>  <r_i_glide_rewards>  (42) 
-0.144439

>  <r_i_glide_evdw>  (42) 
-24.3971

>  <r_i_glide_ecoul>  (42) 
-7.98379

>  <r_i_glide_erotb>  (42) 
0.0852141

>  <r_i_glide_esite>  (42) 
-0.0743284

>  <r_i_glide_emodel>  (42) 
-39.0481

>  <r_i_glide_energy>  (42) 
-32.3809

>  <r_i_glide_einternal>  (42) 
0.720951

>  <r_i_glide_intrahb_reward>  (42) 
-0

>  <i_i_glide_confnum>  (42) 
4

>  <i_i_glide_posenum>  (42) 
2

>  <r_i_glide_eff_state_penalty>  (42) 
0

>  <ligand_id>  (42) 
8

>  <original_smiles>  (42) 
CC1C2OC13C1C(O)C4(C)C5CCC(C)(C(c6ccoc6)OC(=O)C5O)C4(O)C34C(O)OC2C14C

>  <smiles>  (42) 
[H]OC1([H])OC2([H])C3([H])OC4(C3([H])C([H])([H])[H])C3([H])C([H])(O[H])C5(C([H])([H])[H])C6([H])C([H])(O[H])C(=O)OC([H])(c7c([H])oc([H])c7[H])C(C([H])([H])[H])(C([H])([H])C6([H])[H])C5(O[H])C14C23C([H])([H])[H]

$$$$
8:0:2
     RDKit          3D

 67 74  0  0  1  0  0  0  0  0999 V2000
    1.8487   -5.8469    7.0854 C   0  0  0  0  0  0  0  0  0  0  0  0
    1.4000   -6.5062    5.7782 C   0  0  2  0  0  0  0  0  0  0  0  0
    0.9005   -7.9328    5.7485 C   0  0  2  0  0  0  0  0  0  0  0  0
    2.2992   -8.1814    5.8125 O   0  0  0  0  0  0  0  0  0  0  0  0
    2.5031   -7.1052    4.7979 C   0  0  2  0  0  0  0  0  0  0  0  0
    3.0284   -8.4255    4.0352 C   0  0  2  0  0  0  0  0  0  0  0  0
    4.3328   -8.2054    3.2747 C   0  0  1  0  0  0  0  0  0  0  0  0
    4.9075   -9.4573    2.9204 O   0  0  0  0  0  0  0  0  0  0  0  0
    4.2765   -7.1638    2.0991 C   0  0  2  0  0  0  0  0  0  0  0  0
    4.3117   -7.9619    0.7472 C   0  0  0  0  0  0  0  0  0  0  0  0
    5.6654   -6.3819    2.1926 C   0  0  2  0  0  0  0  0  0  0  0  0
    5.7211   -5.2986    3.2945 C   0  0  0  0  0  0  0  0  0  0  0  0
    4.3759   -4.6758    3.6649 C   0  0  0  0  0  0  0  0  0  0  0  0
    3.2889   -4.7344    2.5610 C   0  0  1  0  0  0  0  0  0  0  0  0
    2.0843   -3.9713    3.1628 C   0  0  0  0  0  0  0  0  0  0  0  0
    3.6752   -3.8973    1.2635 C   0  0  1  0  0  0  0  0  0  0  0  0
    4.0622   -2.4307    1.4435 C   0  0  0  0  0  0  0  0  0  0  0  0
    3.4419   -1.3242    0.7995 C   0  0  0  0  0  0  0  0  0  0  0  0
    4.0764   -0.1969    1.2284 C   0  0  0  0  0  0  0  0  0  0  0  0
    5.0812   -0.5086    2.0848 O   0  0  0  0  0  0  0  0  0  0  0  0
    5.0636   -1.8606    2.2016 C   0  0  0  0  0  0  0  0  0  0  0  0
    4.4559   -4.6128    0.3047 O   0  0  0  0  0  0  0  0  0  0  0  0
    5.7824   -4.5873    0.3272 C   0  0  0  0  0  0  0  0  0  0  0  0
    6.4820   -3.6586   -0.0818 O   0  0  0  0  0  0  0  0  0  0  0  0
    6.3614   -5.8917    0.8776 C   0  0  1  0  0  0  0  0  0  0  0  0
    7.7647   -5.7618    1.0772 O   0  0  0  0  0  0  0  0  0  0  0  0
    2.9229   -6.2716    2.2449 C   0  0  1  0  0  0  0  0  0  0  0  0
    2.3026   -6.2483    0.9662 O   0  0  0  0  0  0  0  0  0  0  0  0
    1.8680   -6.9680    3.2869 C   0  0  2  0  0  0  0  0  0  0  0  0
    0.3197   -6.5894    3.0967 C   0  0  1  0  0  0  0  0  0  0  0  0
   -0.1852   -6.6540    1.7815 O   0  0  0  0  0  0  0  0  0  0  0  0
   -0.4120   -7.5288    3.8476 O   0  0  0  0  0  0  0  0  0  0  0  0
    0.4511   -8.5314    4.3763 C   0  0  1  0  0  0  0  0  0  0  0  0
    1.6519   -8.4606    3.3861 C   0  0  2  0  0  0  0  0  0  0  0  0
    1.4265   -9.3251    2.1370 C   0  0  0  0  0  0  0  0  0  0  0  0
    2.5759   -6.4412    7.6409 H   0  0  0  0  0  0  0  0  0  0  0  0
    1.0023   -5.6526    7.7439 H   0  0  0  0  0  0  0  0  0  0  0  0
    2.3071   -4.8801    6.8790 H   0  0  0  0  0  0  0  0  0  0  0  0
    0.6531   -5.8405    5.3658 H   0  0  0  0  0  0  0  0  0  0  0  0
    0.3505   -8.2541    6.6352 H   0  0  0  0  0  0  0  0  0  0  0  0
    3.1628   -9.4109    4.5241 H   0  0  0  0  0  0  0  0  0  0  0  0
    5.0186   -7.8304    4.0381 H   0  0  0  0  0  0  0  0  0  0  0  0
    4.3178   -9.9208    2.3402 H   0  0  0  0  0  0  0  0  0  0  0  0
    4.2340   -7.3146   -0.1271 H   0  0  0  0  0  0  0  0  0  0  0  0
    3.5217   -8.7015    0.6635 H   0  0  0  0  0  0  0  0  0  0  0  0
    5.2484   -8.5075    0.6233 H   0  0  0  0  0  0  0  0  0  0  0  0
    6.3861   -7.1324    2.5204 H   0  0  0  0  0  0  0  0  0  0  0  0
    6.1885   -5.6978    4.1982 H   0  0  0  0  0  0  0  0  0  0  0  0
    6.3895   -4.5051    2.9716 H   0  0  0  0  0  0  0  0  0  0  0  0
    4.0281   -5.1884    4.5564 H   0  0  0  0  0  0  0  0  0  0  0  0
    4.5264   -3.6565    4.0191 H   0  0  0  0  0  0  0  0  0  0  0  0
    1.2245   -3.9976    2.4955 H   0  0  0  0  0  0  0  0  0  0  0  0
    2.3103   -2.9194    3.3346 H   0  0  0  0  0  0  0  0  0  0  0  0
    1.7928   -4.3585    4.1355 H   0  0  0  0  0  0  0  0  0  0  0  0
    2.7351   -3.8005    0.7212 H   0  0  0  0  0  0  0  0  0  0  0  0
    2.6240   -1.3470    0.0956 H   0  0  0  0  0  0  0  0  0  0  0  0
    3.9555    0.8558    1.0173 H   0  0  0  0  0  0  0  0  0  0  0  0
    5.8300   -2.2492    2.8504 H   0  0  0  0  0  0  0  0  0  0  0  0
    6.2709   -6.6275    0.0875 H   0  0  0  0  0  0  0  0  0  0  0  0
    8.1307   -6.5993    1.3293 H   0  0  0  0  0  0  0  0  0  0  0  0
    2.9412   -5.9501    0.3324 H   0  0  0  0  0  0  0  0  0  0  0  0
    0.0537   -5.6027    3.4585 H   0  0  0  0  0  0  0  0  0  0  0  0
    0.0249   -7.5133    1.4494 H   0  0  0  0  0  0  0  0  0  0  0  0
    0.0061   -9.5251    4.4705 H   0  0  0  0  0  0  0  0  0  0  0  0
    0.4586   -9.8256    2.1573 H   0  0  0  0  0  0  0  0  0  0  0  0
    2.1929  -10.0897    2.0152 H   0  0  0  0  0  0  0  0  0  0  0  0
    1.4244   -8.7044    1.2456 H   0  0  0  0  0  0  0  0  0  0  0  0
  1  2  1  0
  1 36  1  0
  1 37  1  0
  1 38  1  0
  2  5  1  0
  2  3  1  0
  2 39  1  6
  3 33  1  0
  3  4  1  0
  3 40  1  1
  5  4  1  1
  5 29  1  0
  5  6  1  0
  6 34  1  0
  6  7  1  0
  6 41  1  1
  7  8  1  0
  7  9  1  0
  7 42  1  1
  8 43  1  0
  9 27  1  0
  9 10  1  6
  9 11  1  0
 10 44  1  0
 10 45  1  0
 10 46  1  0
 11 25  1  0
 11 12  1  0
 11 47  1  1
 12 13  1  0
 12 48  1  0
 12 49  1  0
 13 14  1  0
 13 50  1  0
 13 51  1  0
 14 15  1  1
 14 16  1  0
 14 27  1  0
 15 52  1  0
 15 53  1  0
 15 54  1  0
 16 17  1  0
 16 22  1  0
 16 55  1  6
 17 21  2  0
 17 18  1  0
 18 19  2  0
 18 56  1  0
 19 20  1  0
 19 57  1  0
 20 21  1  0
 21 58  1  0
 22 23  1  0
 23 24  2  0
 23 25  1  0
 25 26  1  0
 25 59  1  6
 26 60  1  0
 27 28  1  6
 29 27  1  6
 28 61  1  0
 29 34  1  0
 29 30  1  0
 30 31  1  0
 30 32  1  0
 30 62  1  1
 31 63  1  0
 32 33  1  0
 33 34  1  0
 33 64  1  1
 34 35  1  6
 35 65  1  0
 35 66  1  0
 35 67  1  0
M  END
>  <i_m_ct_stereo_status>  (43) 
1

>  <s_m_source_file>  (43) 
/var/tmp/pbs.5076255.sched01/tmpkni74bsw/0nq93mkxh.sdf

>  <i_m_source_file_index>  (43) 
16

>  <i_lp_mmshare_version>  (43) 
48012

>  <i_f3d_flags>  (43) 
0

>  <s_epik_input>  (43) 
W0NIM11bQ0BASF0xW0NASF0oTzIpW0NAQEhdKE9bQ0BASF0zW09IXSlbQ0BdNChbQ0gzXSlbQ0BIXTVbQ0BASF0oW09IXSlbQ0BAXShbQ0gzXSkoW0NAQF02KFtPSF0pW0NAQF0zNFtDQEBdMTI1KVtDQEBIXTdbQ0gyXVtDSDJdW0NAQF02KFtDSDNdKVtDQEhdKE9DKD1PKVtDQEhdN1tPSF0pYzhbY0hdW2NIXW9bY0hdOA==

>  <s_epik_cmdline>  (43) 
J2VwaWtfcHl0aG9uJywgJy1waHQnLCAnMi4wJywgJy1waCcsICc3LjAnLCAnLXRuJywgJzgnLCAnLW1hJywgJzIwMCcsICctaW1hZScsICc8aW5maWxlLm1hZT4nLCAnLW9tYWUnLCAnPG91dGZpbGUubWFlPic=

>  <r_lp_tautomer_probability>  (43) 
1

>  <r_epik_Ionization_Penalty>  (43) 
3.09732e-05

>  <r_epik_Ionization_Penalty_Charging>  (43) 
0

>  <r_epik_Ionization_Penalty_Neutral>  (43) 
3.09732e-05

>  <r_epik_State_Penalty>  (43) 
-0

>  <r_epik_Charging_Adjusted_Penalty>  (43) 
0

>  <i_epik_Tot_Q>  (43) 
0

>  <i_epik_Tot_abs_Q>  (43) 
0

>  <s_epik_Chemistry_Notes>  (43) 
This compound has an ester and may undergo hydrolysis at high or low pH. This compound contains an acetal/aminal-like group ( X-CH(R)-Y where X, Y are N, S, or O) that may be acid/base labile, releasing an aldehyde.

>  <s_lp_Force_Field>  (43) 
OPLS3e

>  <r_lp_Energy>  (43) 
247.263

>  <b_lp_Chiralities_Consistent>  (43) 
1

>  <s_lp_Variant>  (43) 
8:0-1

>  <s_i_glide_gridfile>  (43) 
pfpi4k_grid

>  <i_i_glide_lignum>  (43) 
16

>  <i_i_glide_rotatable_bonds>  (43) 
5

>  <r_i_docking_score>  (43) 
-2.90265

>  <r_i_glide_ligand_efficiency>  (43) 
-0.0829329

>  <r_i_glide_ligand_efficiency_sa>  (43) 
-0.271279

>  <r_i_glide_ligand_efficiency_ln>  (43) 
-0.637197

>  <r_i_glide_gscore>  (43) 
-2.90265

>  <r_i_glide_lipo>  (43) 
-0.383894

>  <r_i_glide_hbond>  (43) 
0

>  <r_i_glide_metal>  (43) 
-0

>  <r_i_glide_rewards>  (43) 
-0.200789

>  <r_i_glide_evdw>  (43) 
-25.5525

>  <r_i_glide_ecoul>  (43) 
-7.08174

>  <r_i_glide_erotb>  (43) 
0.0852141

>  <r_i_glide_esite>  (43) 
-0.0632979

>  <r_i_glide_emodel>  (43) 
-39.2995

>  <r_i_glide_energy>  (43) 
-32.6342

>  <r_i_glide_einternal>  (43) 
0.0959365

>  <r_i_glide_intrahb_reward>  (43) 
-0

>  <i_i_glide_confnum>  (43) 
4

>  <i_i_glide_posenum>  (43) 
1

>  <r_i_glide_eff_state_penalty>  (43) 
0

>  <ligand_id>  (43) 
8

>  <original_smiles>  (43) 
CC1C2OC13C1C(O)C4(C)C5CCC(C)(C(c6ccoc6)OC(=O)C5O)C4(O)C34C(O)OC2C14C

>  <smiles>  (43) 
[H]OC1([H])OC2([H])C3([H])OC4(C3([H])C([H])([H])[H])C3([H])C([H])(O[H])C5(C([H])([H])[H])C6([H])C([H])(O[H])C(=O)OC([H])(c7c([H])oc([H])c7[H])C(C([H])([H])[H])(C([H])([H])C6([H])[H])C5(O[H])C14C23C([H])([H])[H]

$$$$
9:0:0
     RDKit          3D

 90 97  0  0  1  0  0  0  0  0999 V2000
    6.5680   -1.4989    1.0367 C   0  0  0  0  0  0  0  0  0  0  0  0
    5.2560   -1.9292    0.3564 C   0  0  2  0  0  0  0  0  0  0  0  0
    4.0433   -1.8287    1.3148 C   0  0  0  0  0  0  0  0  0  0  0  0
    3.9672   -2.8318    2.4919 C   0  0  0  0  0  0  0  0  0  0  0  0
    4.0594   -4.3132    2.1154 C   0  0  2  0  0  0  0  0  0  0  0  0
    3.0324   -5.2844    2.7069 C   0  0  0  0  0  0  0  0  0  0  0  0
    2.9479   -6.0042    1.3470 C   0  0  2  0  0  0  0  0  0  0  0  0
    1.5759   -6.3555    0.8953 C   0  0  0  0  0  0  0  0  0  0  0  0
    0.9671   -5.8628   -0.0570 O   0  0  0  0  0  0  0  0  0  0  0  0
    3.8353   -7.2598    1.3081 C   0  0  0  0  0  0  0  0  0  0  0  0
    5.1195   -7.4074    1.7007 C   0  0  0  0  0  0  0  0  0  0  0  0
    5.7317   -8.8151    1.7550 C   0  0  0  0  0  0  0  0  0  0  0  0
    5.9418   -9.5230    3.1402 C   0  0  2  0  0  0  0  0  0  0  0  0
    4.6973  -10.1136    3.9165 C   0  0  2  0  0  0  0  0  0  0  0  0
    3.4146  -10.4498    3.1109 C   0  0  0  0  0  0  0  0  0  0  0  0
    2.1257  -10.5555    3.9690 C   0  0  0  0  0  0  0  0  0  0  0  0
    1.9233   -9.3886    4.9678 C   0  0  0  0  0  0  0  0  0  0  0  0
    1.5627   -8.0865    4.2286 C   0  0  0  0  0  0  0  0  0  0  0  0
    0.7489   -9.7130    5.9041 C   0  0  0  0  0  0  0  0  0  0  0  0
    3.2106   -9.2208    5.8070 C   0  0  0  0  0  0  0  0  0  0  0  0
    4.4647   -8.9949    4.9199 C   0  0  1  0  0  0  0  0  0  0  0  0
    5.8693   -9.0849    5.5421 C   0  0  1  0  0  0  0  0  0  0  0  0
    6.0629   -8.1473    6.7522 C   0  0  0  0  0  0  0  0  0  0  0  0
    5.8847  -10.5678    5.9930 C   0  0  0  0  0  0  0  0  0  0  0  0
    5.2589  -11.2943    4.7915 C   0  0  1  0  0  0  0  0  0  0  0  0
    4.3531  -12.2920    5.2339 O   0  0  0  0  0  0  0  0  0  0  0  0
    6.8292   -8.8663    4.2795 C   0  0  1  0  0  0  0  0  0  0  0  0
    8.1427   -9.7009    4.4268 C   0  0  0  0  0  0  0  0  0  0  0  0
    7.3048   -7.3588    4.1116 C   0  0  1  0  0  0  0  0  0  0  0  0
    8.6204   -7.1880    3.6095 O   0  0  0  0  0  0  0  0  0  0  0  0
    6.3760   -6.2579    3.5434 C   0  0  0  0  0  0  0  0  0  0  0  0
    6.0525   -6.2231    2.0303 C   0  0  1  0  0  0  0  0  0  0  0  0
    7.3398   -6.2960    1.1605 C   0  0  0  0  0  0  0  0  0  0  0  0
    5.4427   -4.8433    1.6609 C   0  0  1  0  0  0  0  0  0  0  0  0
    4.9872   -4.5484    0.2107 C   0  0  2  0  0  0  0  0  0  0  0  0
    5.3829   -3.2386   -0.4869 C   0  0  1  0  0  0  0  0  0  0  0  0
    4.6351   -3.0927   -1.8222 C   0  0  0  0  0  0  0  0  0  0  0  0
    3.5614   -4.7362    0.7302 C   0  0  2  0  0  0  0  0  0  0  0  0
    6.7840   -2.0908    1.9192 H   0  0  0  0  0  0  0  0  0  0  0  0
    6.5012   -0.4648    1.3677 H   0  0  0  0  0  0  0  0  0  0  0  0
    7.4204   -1.5727    0.3624 H   0  0  0  0  0  0  0  0  0  0  0  0
    5.0895   -1.1218   -0.3677 H   0  0  0  0  0  0  0  0  0  0  0  0
    4.0384   -0.8291    1.7483 H   0  0  0  0  0  0  0  0  0  0  0  0
    3.1201   -1.8727    0.7357 H   0  0  0  0  0  0  0  0  0  0  0  0
    4.7555   -2.6014    3.2060 H   0  0  0  0  0  0  0  0  0  0  0  0
    3.0367   -2.6453    3.0319 H   0  0  0  0  0  0  0  0  0  0  0  0
    3.4129   -5.8834    3.5290 H   0  0  0  0  0  0  0  0  0  0  0  0
    2.1026   -4.7896    2.9808 H   0  0  0  0  0  0  0  0  0  0  0  0
    1.0516   -7.1038    1.4995 H   0  0  0  0  0  0  0  0  0  0  0  0
    3.3001   -8.1443    0.9979 H   0  0  0  0  0  0  0  0  0  0  0  0
    5.1031   -9.4723    1.1483 H   0  0  0  0  0  0  0  0  0  0  0  0
    6.6686   -8.8401    1.2075 H   0  0  0  0  0  0  0  0  0  0  0  0
    6.4831  -10.3999    2.7901 H   0  0  0  0  0  0  0  0  0  0  0  0
    3.2272   -9.6882    2.3698 H   0  0  0  0  0  0  0  0  0  0  0  0
    3.5543  -11.3740    2.5458 H   0  0  0  0  0  0  0  0  0  0  0  0
    1.2625  -10.6214    3.3057 H   0  0  0  0  0  0  0  0  0  0  0  0
    2.1168  -11.4972    4.5158 H   0  0  0  0  0  0  0  0  0  0  0  0
    1.5467   -7.2293    4.9045 H   0  0  0  0  0  0  0  0  0  0  0  0
    0.5871   -8.1557    3.7475 H   0  0  0  0  0  0  0  0  0  0  0  0
    2.2877   -7.8776    3.4477 H   0  0  0  0  0  0  0  0  0  0  0  0
    0.5863   -8.9291    6.6450 H   0  0  0  0  0  0  0  0  0  0  0  0
    0.9379  -10.6418    6.4389 H   0  0  0  0  0  0  0  0  0  0  0  0
   -0.1775   -9.8548    5.3497 H   0  0  0  0  0  0  0  0  0  0  0  0
    3.0948   -8.3927    6.5060 H   0  0  0  0  0  0  0  0  0  0  0  0
    3.3058  -10.1124    6.4230 H   0  0  0  0  0  0  0  0  0  0  0  0
    4.3394   -8.0427    4.4118 H   0  0  0  0  0  0  0  0  0  0  0  0
    7.0932   -8.1664    7.1102 H   0  0  0  0  0  0  0  0  0  0  0  0
    5.4259   -8.4433    7.5863 H   0  0  0  0  0  0  0  0  0  0  0  0
    5.7976   -7.1167    6.5129 H   0  0  0  0  0  0  0  0  0  0  0  0
    6.8623  -10.9509    6.2814 H   0  0  0  0  0  0  0  0  0  0  0  0
    5.2833  -10.7028    6.8911 H   0  0  0  0  0  0  0  0  0  0  0  0
    6.0177  -11.8558    4.2542 H   0  0  0  0  0  0  0  0  0  0  0  0
    3.6624  -11.9070    5.7383 H   0  0  0  0  0  0  0  0  0  0  0  0
    8.7086   -9.3922    5.3071 H   0  0  0  0  0  0  0  0  0  0  0  0
    8.7958   -9.5964    3.5605 H   0  0  0  0  0  0  0  0  0  0  0  0
    7.9907  -10.7760    4.4923 H   0  0  0  0  0  0  0  0  0  0  0  0
    7.5130   -7.0106    5.1177 H   0  0  0  0  0  0  0  0  0  0  0  0
    8.6676   -7.4757    2.7165 H   0  0  0  0  0  0  0  0  0  0  0  0
    5.4618   -6.2286    4.1293 H   0  0  0  0  0  0  0  0  0  0  0  0
    6.8564   -5.3103    3.7829 H   0  0  0  0  0  0  0  0  0  0  0  0
    8.0024   -5.4575    1.3790 H   0  0  0  0  0  0  0  0  0  0  0  0
    7.1095   -6.2432    0.1008 H   0  0  0  0  0  0  0  0  0  0  0  0
    7.9334   -7.1980    1.2677 H   0  0  0  0  0  0  0  0  0  0  0  0
    6.1639   -4.0711    1.9201 H   0  0  0  0  0  0  0  0  0  0  0  0
    5.1932   -5.4040   -0.4490 H   0  0  0  0  0  0  0  0  0  0  0  0
    6.4323   -3.3212   -0.7679 H   0  0  0  0  0  0  0  0  0  0  0  0
    3.5688   -2.9223   -1.6801 H   0  0  0  0  0  0  0  0  0  0  0  0
    4.7440   -3.9916   -2.4246 H   0  0  0  0  0  0  0  0  0  0  0  0
    5.0253   -2.2604   -2.4141 H   0  0  0  0  0  0  0  0  0  0  0  0
    2.8214   -4.0408    0.3107 H   0  0  0  0  0  0  0  0  0  0  0  0
  1  2  1  0
  1 39  1  0
  1 40  1  0
  1 41  1  0
  2 36  1  0
  2  3  1  0
  2 42  1  6
  3  4  1  0
  3 43  1  0
  3 44  1  0
  5  4  1  1
  4 45  1  0
  4 46  1  0
  5 34  1  0
  5 38  1  0
  5  6  1  0
  6  7  1  0
  6 47  1  0
  6 48  1  0
  7 38  1  0
  7  8  1  6
  7 10  1  0
  8  9  2  0
  8 49  1  0
 10 11  2  0
 10 50  1  0
 11 32  1  0
 11 12  1  0
 12 13  1  0
 12 51  1  0
 12 52  1  0
 13 27  1  0
 13 14  1  0
 13 53  1  6
 14 21  1  0
 14 25  1  0
 14 15  1  6
 15 16  1  0
 15 54  1  0
 15 55  1  0
 16 17  1  0
 16 56  1  0
 16 57  1  0
 17 18  1  0
 17 19  1  0
 17 20  1  0
 18 58  1  0
 18 59  1  0
 18 60  1  0
 19 61  1  0
 19 62  1  0
 19 63  1  0
 20 21  1  0
 20 64  1  0
 20 65  1  0
 21 22  1  0
 21 66  1  6
 22 23  1  1
 22 24  1  0
 22 27  1  0
 23 67  1  0
 23 68  1  0
 23 69  1  0
 24 25  1  0
 24 70  1  0
 24 71  1  0
 25 26  1  0
 25 72  1  6
 26 73  1  0
 27 28  1  1
 27 29  1  0
 28 74  1  0
 28 75  1  0
 28 76  1  0
 29 30  1  0
 29 31  1  0
 29 77  1  1
 30 78  1  0
 31 32  1  0
 31 79  1  0
 31 80  1  0
 32 33  1  6
 32 34  1  0
 33 81  1  0
 33 82  1  0
 33 83  1  0
 34 35  1  0
 34 84  1  1
 35 36  1  0
 35 38  1  0
 35 85  1  6
 36 37  1  0
 36 86  1  6
 37 87  1  0
 37 88  1  0
 37 89  1  0
 38 90  1  6
M  END
>  <i_m_ct_stereo_status>  (44) 
1

>  <s_m_source_file>  (44) 
/var/tmp/pbs.5076255.sched01/tmpkni74bsw/0nq93mkxh.sdf

>  <i_m_source_file_index>  (44) 
17

>  <i_lp_mmshare_version>  (44) 
48012

>  <i_f3d_flags>  (44) 
0

>  <s_epik_input>  (44) 
W0NIMl0xW0NIMl1bQ0BASF0oW0NIM10pW0NASF0oW0NIM10pW0NAQEhdMltDQEhdM1tDQEBdKFtDSDJdNCkoW0NIXT1PKVtDSF09QyhbQ0BAXTUoW0NIM10pW0NAQEhdMltDQEBdMTM0KVtDSDJdW0NAQEhdNltDQEBdNzhbQ0BASF0oW0NIMl1DKFtDSDNdKShbQ0gzXSlbQ0gyXVtDSDJdNylbQ0BAXShbQ0gzXSkoW0NIMl1bQ0BIXThbT0hdKVtDQF02KFtDSDNdKVtDQEBIXShbT0hdKVtDSDJdNQ==

>  <s_epik_cmdline>  (44) 
J2VwaWtfcHl0aG9uJywgJy1waHQnLCAnMi4wJywgJy1waCcsICc3LjAnLCAnLXRuJywgJzgnLCAnLW1hJywgJzIwMCcsICctaW1hZScsICc8aW5maWxlLm1hZT4nLCAnLW9tYWUnLCAnPG91dGZpbGUubWFlPic=

>  <r_lp_tautomer_probability>  (44) 
1

>  <r_epik_Ionization_Penalty>  (44) 
3.41574e-06

>  <r_epik_Ionization_Penalty_Charging>  (44) 
0

>  <r_epik_Ionization_Penalty_Neutral>  (44) 
3.41574e-06

>  <r_epik_State_Penalty>  (44) 
-0

>  <r_epik_Charging_Adjusted_Penalty>  (44) 
0

>  <i_epik_Tot_Q>  (44) 
0

>  <i_epik_Tot_abs_Q>  (44) 
0

>  <s_lp_Force_Field>  (44) 
OPLS3e

>  <r_lp_Energy>  (44) 
152.917

>  <b_lp_Chiralities_Consistent>  (44) 
1

>  <s_lp_Variant>  (44) 
9:0-1

>  <s_i_glide_gridfile>  (44) 
pfpi4k_grid

>  <i_i_glide_lignum>  (44) 
17

>  <i_i_glide_rotatable_bonds>  (44) 
3

>  <r_i_docking_score>  (44) 
-3.38551

>  <r_i_glide_ligand_efficiency>  (44) 
-0.0890925

>  <r_i_glide_ligand_efficiency_sa>  (44) 
-0.299527

>  <r_i_glide_ligand_efficiency_ln>  (44) 
-0.730016

>  <r_i_glide_gscore>  (44) 
-3.38551

>  <r_i_glide_lipo>  (44) 
-0.549817

>  <r_i_glide_hbond>  (44) 
-0.477109

>  <r_i_glide_metal>  (44) 
-0

>  <r_i_glide_rewards>  (44) 
0

>  <r_i_glide_evdw>  (44) 
-33.2205

>  <r_i_glide_ecoul>  (44) 
-4.25526

>  <r_i_glide_erotb>  (44) 
0

>  <r_i_glide_esite>  (44) 
-0.0592744

>  <r_i_glide_emodel>  (44) 
-45.6356

>  <r_i_glide_energy>  (44) 
-37.4758

>  <r_i_glide_einternal>  (44) 
0.0877618

>  <r_i_glide_intrahb_reward>  (44) 
-0

>  <i_i_glide_confnum>  (44) 
1

>  <i_i_glide_posenum>  (44) 
1

>  <r_i_glide_eff_state_penalty>  (44) 
0

>  <ligand_id>  (44) 
9

>  <original_smiles>  (44) 
CC1CCC23CC4(C=O)C=C5CC6C78CCC(C)(C)CC7C(C)(CC8O)C6(C)C(O)CC5(C)C2C(C1C)C43

>  <smiles>  (44) 
[H]OC1([H])C([H])([H])C2(C([H])([H])[H])C3([H])C([H])([H])C(C([H])([H])[H])(C([H])([H])[H])C([H])([H])C([H])([H])C13C1([H])C([H])([H])C3=C([H])C4(C([H])=O)C([H])([H])C56C([H])([H])C([H])([H])C([H])(C([H])([H])[H])C([H])(C([H])([H])[H])C([H])(C45[H])C6([H])C3(C([H])([H])[H])C([H])([H])C([H])(O[H])C12C([H])([H])[H]

$$$$
9:0:1
     RDKit          3D

 90 97  0  0  1  0  0  0  0  0999 V2000
    6.2132   -1.1469    1.3311 C   0  0  0  0  0  0  0  0  0  0  0  0
    4.9387   -1.5938    0.5859 C   0  0  2  0  0  0  0  0  0  0  0  0
    3.6974   -1.6155    1.5157 C   0  0  0  0  0  0  0  0  0  0  0  0
    3.6492   -2.6886    2.6340 C   0  0  0  0  0  0  0  0  0  0  0  0
    3.8303   -4.1429    2.1654 C   0  0  2  0  0  0  0  0  0  0  0  0
    2.8424   -5.1914    2.6842 C   0  0  0  0  0  0  0  0  0  0  0  0
    2.8251   -5.8412    1.2931 C   0  0  2  0  0  0  0  0  0  0  0  0
    1.4960   -6.2419    0.7901 C   0  0  0  0  0  0  0  0  0  0  0  0
    0.9588   -5.8605   -0.2527 O   0  0  0  0  0  0  0  0  0  0  0  0
    3.7848   -7.0432    1.2112 C   0  0  0  0  0  0  0  0  0  0  0  0
    5.0662   -7.1375    1.6149 C   0  0  0  0  0  0  0  0  0  0  0  0
    5.7507   -8.5170    1.5957 C   0  0  0  0  0  0  0  0  0  0  0  0
    5.9684   -9.2916    2.9372 C   0  0  2  0  0  0  0  0  0  0  0  0
    4.7384   -9.9853    3.6479 C   0  0  2  0  0  0  0  0  0  0  0  0
    3.4872  -10.3300    2.8056 C   0  0  0  0  0  0  0  0  0  0  0  0
    2.1895  -10.5648    3.6152 C   0  0  0  0  0  0  0  0  0  0  0  0
    1.9088   -9.4792    4.6779 C   0  0  0  0  0  0  0  0  0  0  0  0
    1.4909   -8.1534    4.0012 C   0  0  0  0  0  0  0  0  0  0  0  0
    0.7295   -9.9156    5.5675 C   0  0  0  0  0  0  0  0  0  0  0  0
    3.1655   -9.2903    5.5486 C   0  0  0  0  0  0  0  0  0  0  0  0
    4.4262   -8.9500    4.7086 C   0  0  1  0  0  0  0  0  0  0  0  0
    5.8199   -9.0023    5.3589 C   0  0  1  0  0  0  0  0  0  0  0  0
    5.9394   -8.1313    6.6241 C   0  0  0  0  0  0  0  0  0  0  0  0
    5.9086  -10.5065    5.7158 C   0  0  0  0  0  0  0  0  0  0  0  0
    5.3540  -11.1903    4.4516 C   0  0  1  0  0  0  0  0  0  0  0  0
    4.4649  -12.2185    4.8245 O   0  0  0  0  0  0  0  0  0  0  0  0
    6.7927   -8.6612    4.1357 C   0  0  1  0  0  0  0  0  0  0  0  0
    8.1469   -9.4330    4.2642 C   0  0  0  0  0  0  0  0  0  0  0  0
    7.1915   -7.1173    4.0685 C   0  0  1  0  0  0  0  0  0  0  0  0
    8.4994   -6.8552    3.5993 O   0  0  0  0  0  0  0  0  0  0  0  0
    6.2173   -6.0336    3.5433 C   0  0  0  0  0  0  0  0  0  0  0  0
    5.9322   -5.9281    2.0187 C   0  0  1  0  0  0  0  0  0  0  0  0
    7.2296   -5.8902    1.1731 C   0  0  0  0  0  0  0  0  0  0  0  0
    5.2500   -4.5666    1.7189 C   0  0  1  0  0  0  0  0  0  0  0  0
    4.8073   -4.2077    0.2793 C   0  0  2  0  0  0  0  0  0  0  0  0
    5.1464   -2.8442   -0.3291 C   0  0  1  0  0  0  0  0  0  0  0  0
    4.4200   -2.6530   -1.6751 C   0  0  0  0  0  0  0  0  0  0  0  0
    3.3825   -4.5111    0.7480 C   0  0  2  0  0  0  0  0  0  0  0  0
    6.4629   -1.7705    2.1824 H   0  0  0  0  0  0  0  0  0  0  0  0
    6.0780   -0.1392    1.7220 H   0  0  0  0  0  0  0  0  0  0  0  0
    7.0707   -1.1200    0.6654 H   0  0  0  0  0  0  0  0  0  0  0  0
    4.7460   -0.7587   -0.0882 H   0  0  0  0  0  0  0  0  0  0  0  0
    3.6304   -0.6407    2.0074 H   0  0  0  0  0  0  0  0  0  0  0  0
    2.7893   -1.6723    0.9107 H   0  0  0  0  0  0  0  0  0  0  0  0
    4.4114   -2.4594    3.3767 H   0  0  0  0  0  0  0  0  0  0  0  0
    2.6971   -2.5805    3.1601 H   0  0  0  0  0  0  0  0  0  0  0  0
    3.2361   -5.8165    3.4790 H   0  0  0  0  0  0  0  0  0  0  0  0
    1.8831   -4.7666    2.9570 H   0  0  0  0  0  0  0  0  0  0  0  0
    0.9212   -6.9280    1.4221 H   0  0  0  0  0  0  0  0  0  0  0  0
    3.3067   -7.9426    0.8575 H   0  0  0  0  0  0  0  0  0  0  0  0
    5.1696   -9.1688    0.9351 H   0  0  0  0  0  0  0  0  0  0  0  0
    6.7003   -8.4630    1.0692 H   0  0  0  0  0  0  0  0  0  0  0  0
    6.5611  -10.1203    2.5478 H   0  0  0  0  0  0  0  0  0  0  0  0
    3.2743   -9.5421    2.1039 H   0  0  0  0  0  0  0  0  0  0  0  0
    3.6797  -11.2083    2.1970 H   0  0  0  0  0  0  0  0  0  0  0  0
    1.3477  -10.6396    2.9284 H   0  0  0  0  0  0  0  0  0  0  0  0
    2.2194  -11.5343    4.1093 H   0  0  0  0  0  0  0  0  0  0  0  0
    1.4152   -7.3370    4.7225 H   0  0  0  0  0  0  0  0  0  0  0  0
    0.5319   -8.2447    3.4895 H   0  0  0  0  0  0  0  0  0  0  0  0
    2.2229   -7.8617    3.2515 H   0  0  0  0  0  0  0  0  0  0  0  0
    0.5059   -9.1762    6.3415 H   0  0  0  0  0  0  0  0  0  0  0  0
    0.9634  -10.8476    6.0848 H   0  0  0  0  0  0  0  0  0  0  0  0
   -0.1714  -10.0820    4.9860 H   0  0  0  0  0  0  0  0  0  0  0  0
    2.9917   -8.5202    6.2956 H   0  0  0  0  0  0  0  0  0  0  0  0
    3.2949  -10.2202    6.1079 H   0  0  0  0  0  0  0  0  0  0  0  0
    4.2602   -7.9749    4.2545 H   0  0  0  0  0  0  0  0  0  0  0  0
    6.9546   -8.1174    7.0055 H   0  0  0  0  0  0  0  0  0  0  0  0
    5.2957   -8.5082    7.4259 H   0  0  0  0  0  0  0  0  0  0  0  0
    5.6200   -7.1024    6.4381 H   0  0  0  0  0  0  0  0  0  0  0  0
    6.8916  -10.8572    6.0115 H   0  0  0  0  0  0  0  0  0  0  0  0
    5.2852  -10.7336    6.5827 H   0  0  0  0  0  0  0  0  0  0  0  0
    6.1485  -11.6903    3.9044 H   0  0  0  0  0  0  0  0  0  0  0  0
    4.1126  -12.6124    4.0452 H   0  0  0  0  0  0  0  0  0  0  0  0
    8.6758   -9.1505    5.1753 H   0  0  0  0  0  0  0  0  0  0  0  0
    8.8100   -9.2423    3.4198 H   0  0  0  0  0  0  0  0  0  0  0  0
    8.0498  -10.5155    4.2626 H   0  0  0  0  0  0  0  0  0  0  0  0
    7.3574   -6.8211    5.0982 H   0  0  0  0  0  0  0  0  0  0  0  0
    8.5789   -7.1480    2.7105 H   0  0  0  0  0  0  0  0  0  0  0  0
    5.2900   -6.0933    4.0989 H   0  0  0  0  0  0  0  0  0  0  0  0
    6.6297   -5.0763    3.8468 H   0  0  0  0  0  0  0  0  0  0  0  0
    7.8387   -5.0321    1.4563 H   0  0  0  0  0  0  0  0  0  0  0  0
    7.0210   -5.7898    0.1082 H   0  0  0  0  0  0  0  0  0  0  0  0
    7.8673   -6.7597    1.2461 H   0  0  0  0  0  0  0  0  0  0  0  0
    5.9230   -3.7735    2.0396 H   0  0  0  0  0  0  0  0  0  0  0  0
    5.0740   -5.0133   -0.4243 H   0  0  0  0  0  0  0  0  0  0  0  0
    6.2028   -2.8574   -0.5867 H   0  0  0  0  0  0  0  0  0  0  0  0
    3.3467   -2.5484   -1.5465 H   0  0  0  0  0  0  0  0  0  0  0  0
    4.5889   -3.5120   -2.3231 H   0  0  0  0  0  0  0  0  0  0  0  0
    4.7795   -1.7747   -2.2010 H   0  0  0  0  0  0  0  0  0  0  0  0
    2.6108   -3.8327    0.3495 H   0  0  0  0  0  0  0  0  0  0  0  0
  1  2  1  0
  1 39  1  0
  1 40  1  0
  1 41  1  0
  2 36  1  0
  2  3  1  0
  2 42  1  6
  3  4  1  0
  3 43  1  0
  3 44  1  0
  5  4  1  1
  4 45  1  0
  4 46  1  0
  5 34  1  0
  5 38  1  0
  5  6  1  0
  6  7  1  0
  6 47  1  0
  6 48  1  0
  7 38  1  0
  7  8  1  6
  7 10  1  0
  8  9  2  0
  8 49  1  0
 10 11  2  0
 10 50  1  0
 11 32  1  0
 11 12  1  0
 12 13  1  0
 12 51  1  0
 12 52  1  0
 13 27  1  0
 13 14  1  0
 13 53  1  6
 14 21  1  0
 14 25  1  0
 14 15  1  6
 15 16  1  0
 15 54  1  0
 15 55  1  0
 16 17  1  0
 16 56  1  0
 16 57  1  0
 17 18  1  0
 17 19  1  0
 17 20  1  0
 18 58  1  0
 18 59  1  0
 18 60  1  0
 19 61  1  0
 19 62  1  0
 19 63  1  0
 20 21  1  0
 20 64  1  0
 20 65  1  0
 21 22  1  0
 21 66  1  6
 22 23  1  1
 22 24  1  0
 22 27  1  0
 23 67  1  0
 23 68  1  0
 23 69  1  0
 24 25  1  0
 24 70  1  0
 24 71  1  0
 25 26  1  0
 25 72  1  6
 26 73  1  0
 27 28  1  1
 27 29  1  0
 28 74  1  0
 28 75  1  0
 28 76  1  0
 29 30  1  0
 29 31  1  0
 29 77  1  1
 30 78  1  0
 31 32  1  0
 31 79  1  0
 31 80  1  0
 32 33  1  6
 32 34  1  0
 33 81  1  0
 33 82  1  0
 33 83  1  0
 34 35  1  0
 34 84  1  1
 35 36  1  0
 35 38  1  0
 35 85  1  6
 36 37  1  0
 36 86  1  6
 37 87  1  0
 37 88  1  0
 37 89  1  0
 38 90  1  6
M  END
>  <i_m_ct_stereo_status>  (45) 
1

>  <s_m_source_file>  (45) 
/var/tmp/pbs.5076255.sched01/tmpkni74bsw/0nq93mkxh.sdf

>  <i_m_source_file_index>  (45) 
17

>  <i_lp_mmshare_version>  (45) 
48012

>  <i_f3d_flags>  (45) 
0

>  <s_epik_input>  (45) 
W0NIMl0xW0NIMl1bQ0BASF0oW0NIM10pW0NASF0oW0NIM10pW0NAQEhdMltDQEhdM1tDQEBdKFtDSDJdNCkoW0NIXT1PKVtDSF09QyhbQ0BAXTUoW0NIM10pW0NAQEhdMltDQEBdMTM0KVtDSDJdW0NAQEhdNltDQEBdNzhbQ0BASF0oW0NIMl1DKFtDSDNdKShbQ0gzXSlbQ0gyXVtDSDJdNylbQ0BAXShbQ0gzXSkoW0NIMl1bQ0BIXThbT0hdKVtDQF02KFtDSDNdKVtDQEBIXShbT0hdKVtDSDJdNQ==

>  <s_epik_cmdline>  (45) 
J2VwaWtfcHl0aG9uJywgJy1waHQnLCAnMi4wJywgJy1waCcsICc3LjAnLCAnLXRuJywgJzgnLCAnLW1hJywgJzIwMCcsICctaW1hZScsICc8aW5maWxlLm1hZT4nLCAnLW9tYWUnLCAnPG91dGZpbGUubWFlPic=

>  <r_lp_tautomer_probability>  (45) 
1

>  <r_epik_Ionization_Penalty>  (45) 
3.41574e-06

>  <r_epik_Ionization_Penalty_Charging>  (45) 
0

>  <r_epik_Ionization_Penalty_Neutral>  (45) 
3.41574e-06

>  <r_epik_State_Penalty>  (45) 
-0

>  <r_epik_Charging_Adjusted_Penalty>  (45) 
0

>  <i_epik_Tot_Q>  (45) 
0

>  <i_epik_Tot_abs_Q>  (45) 
0

>  <s_lp_Force_Field>  (45) 
OPLS3e

>  <r_lp_Energy>  (45) 
152.917

>  <b_lp_Chiralities_Consistent>  (45) 
1

>  <s_lp_Variant>  (45) 
9:0-1

>  <s_i_glide_gridfile>  (45) 
pfpi4k_grid

>  <i_i_glide_lignum>  (45) 
17

>  <i_i_glide_rotatable_bonds>  (45) 
3

>  <r_i_docking_score>  (45) 
-3.35614

>  <r_i_glide_ligand_efficiency>  (45) 
-0.0883194

>  <r_i_glide_ligand_efficiency_sa>  (45) 
-0.296928

>  <r_i_glide_ligand_efficiency_ln>  (45) 
-0.723682

>  <r_i_glide_gscore>  (45) 
-3.35614

>  <r_i_glide_lipo>  (45) 
-0.669047

>  <r_i_glide_hbond>  (45) 
-0.465441

>  <r_i_glide_metal>  (45) 
-0

>  <r_i_glide_rewards>  (45) 
0

>  <r_i_glide_evdw>  (45) 
-32.6904

>  <r_i_glide_ecoul>  (45) 
-3.43263

>  <r_i_glide_erotb>  (45) 
0

>  <r_i_glide_esite>  (45) 
-0.0722346

>  <r_i_glide_emodel>  (45) 
-44.0276

>  <r_i_glide_energy>  (45) 
-36.123

>  <r_i_glide_einternal>  (45) 
0.462391

>  <r_i_glide_intrahb_reward>  (45) 
-0

>  <i_i_glide_confnum>  (45) 
2

>  <i_i_glide_posenum>  (45) 
11

>  <r_i_glide_eff_state_penalty>  (45) 
0

>  <ligand_id>  (45) 
9

>  <original_smiles>  (45) 
CC1CCC23CC4(C=O)C=C5CC6C78CCC(C)(C)CC7C(C)(CC8O)C6(C)C(O)CC5(C)C2C(C1C)C43

>  <smiles>  (45) 
[H]OC1([H])C([H])([H])C2(C([H])([H])[H])C3([H])C([H])([H])C(C([H])([H])[H])(C([H])([H])[H])C([H])([H])C([H])([H])C13C1([H])C([H])([H])C3=C([H])C4(C([H])=O)C([H])([H])C56C([H])([H])C([H])([H])C([H])(C([H])([H])[H])C([H])(C([H])([H])[H])C([H])(C45[H])C6([H])C3(C([H])([H])[H])C([H])([H])C([H])(O[H])C12C([H])([H])[H]

$$$$
9:0:2
     RDKit          3D

 90 97  0  0  1  0  0  0  0  0999 V2000
    3.7700  -11.1002    5.5573 C   0  0  0  0  0  0  0  0  0  0  0  0
    3.1182  -10.8564    4.1762 C   0  0  2  0  0  0  0  0  0  0  0  0
    4.1216  -10.2814    3.1450 C   0  0  0  0  0  0  0  0  0  0  0  0
    4.6352   -8.8377    3.3635 C   0  0  0  0  0  0  0  0  0  0  0  0
    3.5361   -7.7685    3.5019 C   0  0  2  0  0  0  0  0  0  0  0  0
    3.6834   -6.4826    2.6776 C   0  0  0  0  0  0  0  0  0  0  0  0
    2.1695   -6.5144    2.4006 C   0  0  2  0  0  0  0  0  0  0  0  0
    1.7518   -6.2486    1.0049 C   0  0  0  0  0  0  0  0  0  0  0  0
    0.6111   -6.3168    0.5449 O   0  0  0  0  0  0  0  0  0  0  0  0
    1.3995   -5.5907    3.3753 C   0  0  0  0  0  0  0  0  0  0  0  0
    1.5125   -5.4838    4.7124 C   0  0  0  0  0  0  0  0  0  0  0  0
    0.7713   -4.3471    5.4384 C   0  0  0  0  0  0  0  0  0  0  0  0
    1.5699   -3.0980    5.9501 C   0  0  2  0  0  0  0  0  0  0  0  0
    2.0797   -2.0119    4.9153 C   0  0  2  0  0  0  0  0  0  0  0  0
    1.3705   -1.9089    3.5461 C   0  0  0  0  0  0  0  0  0  0  0  0
    2.1952   -1.1972    2.4442 C   0  0  0  0  0  0  0  0  0  0  0  0
    3.6630   -1.6708    2.3371 C   0  0  0  0  0  0  0  0  0  0  0  0
    3.7335   -3.0937    1.7372 C   0  0  0  0  0  0  0  0  0  0  0  0
    4.4361   -0.7383    1.3796 C   0  0  0  0  0  0  0  0  0  0  0  0
    4.3194   -1.6250    3.7314 C   0  0  0  0  0  0  0  0  0  0  0  0
    3.5272   -2.4448    4.7815 C   0  0  1  0  0  0  0  0  0  0  0  0
    3.8549   -2.2906    6.2772 C   0  0  1  0  0  0  0  0  0  0  0  0
    5.3386   -2.5374    6.6137 C   0  0  0  0  0  0  0  0  0  0  0  0
    3.4839   -0.8023    6.4970 C   0  0  0  0  0  0  0  0  0  0  0  0
    2.1573   -0.6634    5.7267 C   0  0  1  0  0  0  0  0  0  0  0  0
    2.1406    0.5405    4.9874 O   0  0  0  0  0  0  0  0  0  0  0  0
    2.7748   -3.2429    6.9684 C   0  0  1  0  0  0  0  0  0  0  0  0
    2.3261   -2.6688    8.3522 C   0  0  0  0  0  0  0  0  0  0  0  0
    3.3477   -4.7005    7.2888 C   0  0  1  0  0  0  0  0  0  0  0  0
    2.8263   -5.3058    8.4536 O   0  0  0  0  0  0  0  0  0  0  0  0
    3.5234   -5.7798    6.1912 C   0  0  0  0  0  0  0  0  0  0  0  0
    2.2743   -6.4949    5.5970 C   0  0  1  0  0  0  0  0  0  0  0  0
    1.3351   -7.0537    6.6959 C   0  0  0  0  0  0  0  0  0  0  0  0
    2.7266   -7.7544    4.8211 C   0  0  1  0  0  0  0  0  0  0  0  0
    1.6988   -8.6474    4.0848 C   0  0  2  0  0  0  0  0  0  0  0  0
    1.7167  -10.1650    4.2534 C   0  0  1  0  0  0  0  0  0  0  0  0
    0.7366  -10.8181    3.2655 C   0  0  0  0  0  0  0  0  0  0  0  0
    2.1976   -7.9932    2.7936 C   0  0  2  0  0  0  0  0  0  0  0  0
    4.1994  -10.2112    6.0017 H   0  0  0  0  0  0  0  0  0  0  0  0
    4.5774  -11.8330    5.4743 H   0  0  0  0  0  0  0  0  0  0  0  0
    3.0474  -11.5109    6.2546 H   0  0  0  0  0  0  0  0  0  0  0  0
    2.9231  -11.8754    3.8243 H   0  0  0  0  0  0  0  0  0  0  0  0
    4.9989  -10.9364    3.1369 H   0  0  0  0  0  0  0  0  0  0  0  0
    3.7053  -10.3845    2.1410 H   0  0  0  0  0  0  0  0  0  0  0  0
    5.2633   -8.8176    4.2509 H   0  0  0  0  0  0  0  0  0  0  0  0
    5.2984   -8.5900    2.5307 H   0  0  0  0  0  0  0  0  0  0  0  0
    4.0393   -5.6274    3.2461 H   0  0  0  0  0  0  0  0  0  0  0  0
    4.2777   -6.6281    1.7788 H   0  0  0  0  0  0  0  0  0  0  0  0
    2.5617   -5.9493    0.3192 H   0  0  0  0  0  0  0  0  0  0  0  0
    0.7527   -4.8879    2.8716 H   0  0  0  0  0  0  0  0  0  0  0  0
   -0.0069   -3.9769    4.7668 H   0  0  0  0  0  0  0  0  0  0  0  0
    0.1830   -4.7397    6.2595 H   0  0  0  0  0  0  0  0  0  0  0  0
    0.7626   -2.5999    6.4920 H   0  0  0  0  0  0  0  0  0  0  0  0
    1.1445   -2.8910    3.1642 H   0  0  0  0  0  0  0  0  0  0  0  0
    0.4023   -1.4119    3.6527 H   0  0  0  0  0  0  0  0  0  0  0  0
    1.7014   -1.3287    1.4814 H   0  0  0  0  0  0  0  0  0  0  0  0
    2.1823   -0.1198    2.6053 H   0  0  0  0  0  0  0  0  0  0  0  0
    4.7459   -3.5025    1.7741 H   0  0  0  0  0  0  0  0  0  0  0  0
    3.3995   -3.1184    0.7007 H   0  0  0  0  0  0  0  0  0  0  0  0
    3.0893   -3.7729    2.2891 H   0  0  0  0  0  0  0  0  0  0  0  0
    5.4867   -1.0393    1.2855 H   0  0  0  0  0  0  0  0  0  0  0  0
    4.4262    0.2927    1.7505 H   0  0  0  0  0  0  0  0  0  0  0  0
    4.0014   -0.7309    0.3856 H   0  0  0  0  0  0  0  0  0  0  0  0
    5.3471   -1.9788    3.6751 H   0  0  0  0  0  0  0  0  0  0  0  0
    4.3904   -0.5723    4.0114 H   0  0  0  0  0  0  0  0  0  0  0  0
    3.5915   -3.4933    4.4897 H   0  0  0  0  0  0  0  0  0  0  0  0
    5.5140   -2.5107    7.6826 H   0  0  0  0  0  0  0  0  0  0  0  0
    5.9793   -1.7751    6.1594 H   0  0  0  0  0  0  0  0  0  0  0  0
    5.6876   -3.4980    6.2242 H   0  0  0  0  0  0  0  0  0  0  0  0
    3.4247   -0.4892    7.5342 H   0  0  0  0  0  0  0  0  0  0  0  0
    4.2535   -0.1497    6.0769 H   0  0  0  0  0  0  0  0  0  0  0  0
    1.3311   -0.5607    6.4189 H   0  0  0  0  0  0  0  0  0  0  0  0
    2.8219    0.5216    4.3435 H   0  0  0  0  0  0  0  0  0  0  0  0
    3.1670   -2.5940    9.0460 H   0  0  0  0  0  0  0  0  0  0  0  0
    1.5609   -3.2898    8.8246 H   0  0  0  0  0  0  0  0  0  0  0  0
    1.8537   -1.6921    8.3035 H   0  0  0  0  0  0  0  0  0  0  0  0
    4.3569   -4.5405    7.6527 H   0  0  0  0  0  0  0  0  0  0  0  0
    3.3446   -6.0619    8.6540 H   0  0  0  0  0  0  0  0  0  0  0  0
    4.1372   -5.3726    5.3948 H   0  0  0  0  0  0  0  0  0  0  0  0
    4.1480   -6.5584    6.6230 H   0  0  0  0  0  0  0  0  0  0  0  0
    1.8651   -7.7784    7.3166 H   0  0  0  0  0  0  0  0  0  0  0  0
    0.4707   -7.5747    6.2825 H   0  0  0  0  0  0  0  0  0  0  0  0
    0.9189   -6.3227    7.3769 H   0  0  0  0  0  0  0  0  0  0  0  0
    3.2566   -8.4085    5.5134 H   0  0  0  0  0  0  0  0  0  0  0  0
    0.6773   -8.2620    4.2421 H   0  0  0  0  0  0  0  0  0  0  0  0
    1.3123  -10.4016    5.2336 H   0  0  0  0  0  0  0  0  0  0  0  0
    1.0580  -10.6911    2.2369 H   0  0  0  0  0  0  0  0  0  0  0  0
   -0.2531  -10.3653    3.3506 H   0  0  0  0  0  0  0  0  0  0  0  0
    0.6206  -11.8811    3.4645 H   0  0  0  0  0  0  0  0  0  0  0  0
    2.2789   -8.6753    1.9279 H   0  0  0  0  0  0  0  0  0  0  0  0
  1  2  1  0
  1 39  1  0
  1 40  1  0
  1 41  1  0
  2 36  1  0
  2  3  1  0
  2 42  1  6
  3  4  1  0
  3 43  1  0
  3 44  1  0
  5  4  1  1
  4 45  1  0
  4 46  1  0
  5 34  1  0
  5 38  1  0
  5  6  1  0
  6  7  1  0
  6 47  1  0
  6 48  1  0
  7 38  1  0
  7  8  1  6
  7 10  1  0
  8  9  2  0
  8 49  1  0
 10 11  2  0
 10 50  1  0
 11 32  1  0
 11 12  1  0
 12 13  1  0
 12 51  1  0
 12 52  1  0
 13 27  1  0
 13 14  1  0
 13 53  1  1
 14 21  1  0
 14 25  1  0
 14 15  1  6
 15 16  1  0
 15 54  1  0
 15 55  1  0
 16 17  1  0
 16 56  1  0
 16 57  1  0
 17 18  1  0
 17 19  1  0
 17 20  1  0
 18 58  1  0
 18 59  1  0
 18 60  1  0
 19 61  1  0
 19 62  1  0
 19 63  1  0
 20 21  1  0
 20 64  1  0
 20 65  1  0
 21 22  1  0
 21 66  1  6
 22 23  1  6
 22 24  1  0
 22 27  1  0
 23 67  1  0
 23 68  1  0
 23 69  1  0
 24 25  1  0
 24 70  1  0
 24 71  1  0
 25 26  1  0
 25 72  1  1
 26 73  1  0
 27 28  1  1
 27 29  1  0
 28 74  1  0
 28 75  1  0
 28 76  1  0
 29 30  1  0
 29 31  1  0
 29 77  1  1
 30 78  1  0
 31 32  1  0
 31 79  1  0
 31 80  1  0
 32 33  1  1
 32 34  1  0
 33 81  1  0
 33 82  1  0
 33 83  1  0
 34 35  1  0
 34 84  1  1
 35 36  1  0
 35 38  1  0
 35 85  1  1
 36 37  1  0
 36 86  1  1
 37 87  1  0
 37 88  1  0
 37 89  1  0
 38 90  1  6
M  END
>  <i_m_ct_stereo_status>  (46) 
1

>  <s_m_source_file>  (46) 
/var/tmp/pbs.5076255.sched01/tmpkni74bsw/0nq93mkxh.sdf

>  <i_m_source_file_index>  (46) 
17

>  <i_lp_mmshare_version>  (46) 
48012

>  <i_f3d_flags>  (46) 
0

>  <s_epik_input>  (46) 
W0NIMl0xW0NIMl1bQ0BASF0oW0NIM10pW0NASF0oW0NIM10pW0NAQEhdMltDQEhdM1tDQEBdKFtDSDJdNCkoW0NIXT1PKVtDSF09QyhbQ0BAXTUoW0NIM10pW0NAQEhdMltDQEBdMTM0KVtDSDJdW0NAQEhdNltDQEBdNzhbQ0BASF0oW0NIMl1DKFtDSDNdKShbQ0gzXSlbQ0gyXVtDSDJdNylbQ0BAXShbQ0gzXSkoW0NIMl1bQ0BIXThbT0hdKVtDQF02KFtDSDNdKVtDQEBIXShbT0hdKVtDSDJdNQ==

>  <s_epik_cmdline>  (46) 
J2VwaWtfcHl0aG9uJywgJy1waHQnLCAnMi4wJywgJy1waCcsICc3LjAnLCAnLXRuJywgJzgnLCAnLW1hJywgJzIwMCcsICctaW1hZScsICc8aW5maWxlLm1hZT4nLCAnLW9tYWUnLCAnPG91dGZpbGUubWFlPic=

>  <r_lp_tautomer_probability>  (46) 
1

>  <r_epik_Ionization_Penalty>  (46) 
3.41574e-06

>  <r_epik_Ionization_Penalty_Charging>  (46) 
0

>  <r_epik_Ionization_Penalty_Neutral>  (46) 
3.41574e-06

>  <r_epik_State_Penalty>  (46) 
-0

>  <r_epik_Charging_Adjusted_Penalty>  (46) 
0

>  <i_epik_Tot_Q>  (46) 
0

>  <i_epik_Tot_abs_Q>  (46) 
0

>  <s_lp_Force_Field>  (46) 
OPLS3e

>  <r_lp_Energy>  (46) 
152.917

>  <b_lp_Chiralities_Consistent>  (46) 
1

>  <s_lp_Variant>  (46) 
9:0-1

>  <s_i_glide_gridfile>  (46) 
pfpi4k_grid

>  <i_i_glide_lignum>  (46) 
17

>  <i_i_glide_rotatable_bonds>  (46) 
3

>  <r_i_docking_score>  (46) 
-2.60505

>  <r_i_glide_ligand_efficiency>  (46) 
-0.068554

>  <r_i_glide_ligand_efficiency_sa>  (46) 
-0.230477

>  <r_i_glide_ligand_efficiency_ln>  (46) 
-0.561726

>  <r_i_glide_gscore>  (46) 
-2.60505

>  <r_i_glide_lipo>  (46) 
-0.224725

>  <r_i_glide_hbond>  (46) 
-0.20943

>  <r_i_glide_metal>  (46) 
-0

>  <r_i_glide_rewards>  (46) 
0

>  <r_i_glide_evdw>  (46) 
-28.5271

>  <r_i_glide_ecoul>  (46) 
-4.61177

>  <r_i_glide_erotb>  (46) 
0

>  <r_i_glide_esite>  (46) 
-0.0527765

>  <r_i_glide_emodel>  (46) 
-38.5769

>  <r_i_glide_energy>  (46) 
-33.1389

>  <r_i_glide_einternal>  (46) 
1.72964

>  <r_i_glide_intrahb_reward>  (46) 
-0

>  <i_i_glide_confnum>  (46) 
2

>  <i_i_glide_posenum>  (46) 
34

>  <r_i_glide_eff_state_penalty>  (46) 
0

>  <ligand_id>  (46) 
9

>  <original_smiles>  (46) 
CC1CCC23CC4(C=O)C=C5CC6C78CCC(C)(C)CC7C(C)(CC8O)C6(C)C(O)CC5(C)C2C(C1C)C43

>  <smiles>  (46) 
[H]OC1([H])C([H])([H])C2(C([H])([H])[H])C3([H])C([H])([H])C(C([H])([H])[H])(C([H])([H])[H])C([H])([H])C([H])([H])C13C1([H])C([H])([H])C3=C([H])C4(C([H])=O)C([H])([H])C56C([H])([H])C([H])([H])C([H])(C([H])([H])[H])C([H])(C([H])([H])[H])C([H])(C45[H])C6([H])C3(C([H])([H])[H])C([H])([H])C([H])(O[H])C12C([H])([H])[H]

$$$$
11:0:0
     RDKit          3D

 92 98  0  0  1  0  0  0  0  0999 V2000
   -2.0898    2.8086    6.4340 C   0  0  0  0  0  0  0  0  0  0  0  0
   -0.7801    2.1503    5.9440 C   0  0  0  0  0  0  0  0  0  0  0  0
   -0.7280    2.2811    4.4064 C   0  0  0  0  0  0  0  0  0  0  0  0
    0.3884    2.9405    6.5978 C   0  0  0  0  0  0  0  0  0  0  0  0
    1.6956    2.1495    6.7627 C   0  0  0  0  0  0  0  0  0  0  0  0
    1.4717    0.7885    7.4621 C   0  0  2  0  0  0  0  0  0  0  0  0
    0.8578    1.0092    8.8737 C   0  0  0  0  0  0  0  0  0  0  0  0
    2.7826    0.0242    7.7112 C   0  0  0  0  0  0  0  0  0  0  0  0
    3.5530   -0.2529    6.4261 C   0  0  0  0  0  0  0  0  0  0  0  0
    2.7489   -1.0297    5.3330 C   0  0  1  0  0  0  0  0  0  0  0  0
    2.7702   -2.5201    5.7736 C   0  0  0  0  0  0  0  0  0  0  0  0
    1.2574   -0.6197    5.2746 C   0  0  0  0  0  0  0  0  0  0  0  0
    0.5712   -0.9269    4.1554 C   0  0  0  0  0  0  0  0  0  0  0  0
    1.1422   -1.7249    2.9981 C   0  0  0  0  0  0  0  0  0  0  0  0
    2.6662   -1.5847    2.7332 C   0  0  1  0  0  0  0  0  0  0  0  0
    3.4281   -0.8273    3.8998 C   0  0  1  0  0  0  0  0  0  0  0  0
    3.3944    0.6916    3.5081 C   0  0  0  0  0  0  0  0  0  0  0  0
    4.9308   -1.1998    3.9590 C   0  0  0  0  0  0  0  0  0  0  0  0
    5.5213   -1.6744    2.6326 C   0  0  0  0  0  0  0  0  0  0  0  0
    4.9020   -2.9928    2.0923 C   0  0  2  0  0  0  0  0  0  0  0  0
    5.1444   -4.0802    3.1949 C   0  0  0  0  0  0  0  0  0  0  0  0
    5.4904   -3.4336    0.6573 C   0  0  2  0  0  0  0  0  0  0  0  0
    6.1213   -4.8513    0.6678 C   0  0  0  0  0  0  0  0  0  0  0  0
    6.6020   -2.4756    0.1170 C   0  0  0  0  0  0  0  0  0  0  0  0
    6.1330   -1.3125   -0.5754 O   0  0  0  0  0  0  0  0  0  0  0  0
    4.8753   -1.3994   -1.2599 C   0  0  2  0  0  0  0  0  0  0  0  0
    3.7776   -1.1172   -0.2252 C   0  0  0  0  0  0  0  0  0  0  0  0
    3.3133   -2.4852    0.3517 C   0  0  1  0  0  0  0  0  0  0  0  0
    4.2852   -3.4450   -0.3392 C   0  0  1  0  0  0  0  0  0  0  0  0
    4.5408   -2.8139   -1.7402 C   0  0  0  0  0  0  0  0  0  0  0  0
    3.2619   -2.8251   -2.6252 C   0  0  0  0  0  0  0  0  0  0  0  0
    5.6390   -3.4519   -2.6164 C   0  0  0  0  0  0  0  0  0  0  0  0
    3.3669   -2.7581    1.8842 C   0  0  2  0  0  0  0  0  0  0  0  0
    2.6068   -4.1009    2.0876 C   0  0  0  0  0  0  0  0  0  0  0  0
    0.5638   -0.0674    6.5494 C   0  0  2  0  0  0  0  0  0  0  0  0
   -0.8112    0.6516    6.3774 C   0  0  0  0  0  0  0  0  0  0  0  0
   -2.1402    3.8642    6.1627 H   0  0  0  0  0  0  0  0  0  0  0  0
   -2.1563    2.7593    7.5279 H   0  0  0  0  0  0  0  0  0  0  0  0
   -2.9751    2.3128    6.0385 H   0  0  0  0  0  0  0  0  0  0  0  0
    0.1938    1.8885    3.9935 H   0  0  0  0  0  0  0  0  0  0  0  0
   -0.8021    3.3203    4.0867 H   0  0  0  0  0  0  0  0  0  0  0  0
   -1.5543    1.7511    3.9321 H   0  0  0  0  0  0  0  0  0  0  0  0
    0.6046    3.8296    6.0008 H   0  0  0  0  0  0  0  0  0  0  0  0
    0.0935    3.3283    7.5736 H   0  0  0  0  0  0  0  0  0  0  0  0
    2.1170    2.0033    5.7677 H   0  0  0  0  0  0  0  0  0  0  0  0
    2.4290    2.7464    7.3096 H   0  0  0  0  0  0  0  0  0  0  0  0
    0.6768    0.0611    9.3808 H   0  0  0  0  0  0  0  0  0  0  0  0
   -0.0879    1.5455    8.8631 H   0  0  0  0  0  0  0  0  0  0  0  0
    1.5344    1.5958    9.4984 H   0  0  0  0  0  0  0  0  0  0  0  0
    3.4210    0.5813    8.4034 H   0  0  0  0  0  0  0  0  0  0  0  0
    2.5603   -0.9230    8.2071 H   0  0  0  0  0  0  0  0  0  0  0  0
    3.9268    0.7044    6.0821 H   0  0  0  0  0  0  0  0  0  0  0  0
    4.4581   -0.8044    6.6888 H   0  0  0  0  0  0  0  0  0  0  0  0
    3.7644   -2.8803    6.0296 H   0  0  0  0  0  0  0  0  0  0  0  0
    2.3808   -3.1822    5.0063 H   0  0  0  0  0  0  0  0  0  0  0  0
    2.1621   -2.6802    6.6616 H   0  0  0  0  0  0  0  0  0  0  0  0
   -0.4906   -0.7608    4.0850 H   0  0  0  0  0  0  0  0  0  0  0  0
    0.8519   -2.7437    3.2383 H   0  0  0  0  0  0  0  0  0  0  0  0
    0.6136   -1.4528    2.0842 H   0  0  0  0  0  0  0  0  0  0  0  0
    2.5957   -0.8121    1.9776 H   0  0  0  0  0  0  0  0  0  0  0  0
    3.8137    0.8661    2.5197 H   0  0  0  0  0  0  0  0  0  0  0  0
    3.9696    1.3480    4.1560 H   0  0  0  0  0  0  0  0  0  0  0  0
    2.3810    1.0882    3.4787 H   0  0  0  0  0  0  0  0  0  0  0  0
    5.5135   -0.3321    4.2693 H   0  0  0  0  0  0  0  0  0  0  0  0
    5.1573   -1.9270    4.7317 H   0  0  0  0  0  0  0  0  0  0  0  0
    5.4803   -0.8591    1.9208 H   0  0  0  0  0  0  0  0  0  0  0  0
    6.5798   -1.8239    2.8009 H   0  0  0  0  0  0  0  0  0  0  0  0
    4.8584   -5.0876    2.9103 H   0  0  0  0  0  0  0  0  0  0  0  0
    4.5752   -3.8885    4.0995 H   0  0  0  0  0  0  0  0  0  0  0  0
    6.1997   -4.1431    3.4855 H   0  0  0  0  0  0  0  0  0  0  0  0
    6.5277   -5.1033   -0.3074 H   0  0  0  0  0  0  0  0  0  0  0  0
    5.3950   -5.6324    0.8930 H   0  0  0  0  0  0  0  0  0  0  0  0
    6.9481   -4.9310    1.3798 H   0  0  0  0  0  0  0  0  0  0  0  0
    7.3246   -2.1744    0.8726 H   0  0  0  0  0  0  0  0  0  0  0  0
    7.2412   -3.0124   -0.5765 H   0  0  0  0  0  0  0  0  0  0  0  0
    4.8460   -0.6691   -2.0712 H   0  0  0  0  0  0  0  0  0  0  0  0
    4.0648   -0.3487    0.4856 H   0  0  0  0  0  0  0  0  0  0  0  0
    2.9438   -0.7000   -0.7751 H   0  0  0  0  0  0  0  0  0  0  0  0
    2.3015   -2.6570   -0.0015 H   0  0  0  0  0  0  0  0  0  0  0  0
    3.8569   -4.4428   -0.4336 H   0  0  0  0  0  0  0  0  0  0  0  0
    2.9813   -3.8464   -2.8839 H   0  0  0  0  0  0  0  0  0  0  0  0
    3.4172   -2.3078   -3.5713 H   0  0  0  0  0  0  0  0  0  0  0  0
    2.3770   -2.3876   -2.1743 H   0  0  0  0  0  0  0  0  0  0  0  0
    5.7550   -4.4908   -2.3316 H   0  0  0  0  0  0  0  0  0  0  0  0
    6.6065   -2.9576   -2.5644 H   0  0  0  0  0  0  0  0  0  0  0  0
    5.3837   -3.4565   -3.6762 H   0  0  0  0  0  0  0  0  0  0  0  0
    3.0882   -4.9415    1.5896 H   0  0  0  0  0  0  0  0  0  0  0  0
    1.6098   -4.0627    1.6736 H   0  0  0  0  0  0  0  0  0  0  0  0
    2.4962   -4.3733    3.1323 H   0  0  0  0  0  0  0  0  0  0  0  0
    0.3475   -0.9769    7.1068 H   0  0  0  0  0  0  0  0  0  0  0  0
   -1.3251    0.5861    7.3336 H   0  0  0  0  0  0  0  0  0  0  0  0
   -1.4727    0.0974    5.7177 H   0  0  0  0  0  0  0  0  0  0  0  0
  1  2  1  0
  1 37  1  0
  1 38  1  0
  1 39  1  0
  2 36  1  0
  2  3  1  0
  2  4  1  0
  3 40  1  0
  3 41  1  0
  3 42  1  0
  4  5  1  0
  4 43  1  0
  4 44  1  0
  5  6  1  0
  5 45  1  0
  5 46  1  0
  6 35  1  0
  6  7  1  1
  6  8  1  0
  7 47  1  0
  7 48  1  0
  7 49  1  0
  8  9  1  0
  8 50  1  0
  8 51  1  0
  9 10  1  0
  9 52  1  0
  9 53  1  0
 10 16  1  0
 10 11  1  1
 10 12  1  0
 11 54  1  0
 11 55  1  0
 11 56  1  0
 12 13  2  0
 12 35  1  0
 13 14  1  0
 13 57  1  0
 14 15  1  0
 14 58  1  0
 14 59  1  0
 15 33  1  0
 15 16  1  0
 15 60  1  6
 16 17  1  6
 16 18  1  0
 17 61  1  0
 17 62  1  0
 17 63  1  0
 18 19  1  0
 18 64  1  0
 18 65  1  0
 19 20  1  0
 19 66  1  0
 19 67  1  0
 20 33  1  0
 20 21  1  1
 20 22  1  0
 21 68  1  0
 21 69  1  0
 21 70  1  0
 22 29  1  0
 22 23  1  1
 22 24  1  0
 23 71  1  0
 23 72  1  0
 23 73  1  0
 24 25  1  0
 24 74  1  0
 24 75  1  0
 25 26  1  0
 26 30  1  0
 26 27  1  0
 26 76  1  6
 27 28  1  0
 27 77  1  0
 27 78  1  0
 28 29  1  0
 28 33  1  0
 28 79  1  6
 29 30  1  0
 29 80  1  6
 30 31  1  0
 30 32  1  0
 31 81  1  0
 31 82  1  0
 31 83  1  0
 32 84  1  0
 32 85  1  0
 32 86  1  0
 33 34  1  6
 34 87  1  0
 34 88  1  0
 34 89  1  0
 35 36  1  0
 35 90  1  1
 36 91  1  0
 36 92  1  0
M  END
>  <i_m_ct_stereo_status>  (47) 
1

>  <s_m_source_file>  (47) 
/var/tmp/pbs.5076255.sched01/tmpkni74bsw/0nq93mkxh.sdf

>  <i_m_source_file_index>  (47) 
19

>  <i_lp_mmshare_version>  (47) 
48012

>  <i_f3d_flags>  (47) 
0

>  <s_epik_input>  (47) 
W0NIMl0xW0NIMl1DKFtDSDNdKShbQ0gzXSlbQ0gyXVtDQEhdKFtDQF0xMltDSDNdKUM9M1tDQF0oW0NIM10pKFtDSDJdW0NIMl0yKVtDQF00KFtDSDNdKVtDQEhdKFtDSDJdW0NIXTMpW0NAXTUoW0NIM10pW0NAXShbQ0gzXSkoW0NIMl1bQ0gyXTQpW0NAQF02KFtDSDNdKVtDQEhdN1tDQEBIXTVbQ0gyXVtDQEBIXShPW0NIMl02KUM3KFtDSDNdKVtDSDNd

>  <s_epik_cmdline>  (47) 
J2VwaWtfcHl0aG9uJywgJy1waHQnLCAnMi4wJywgJy1waCcsICc3LjAnLCAnLXRuJywgJzgnLCAnLW1hJywgJzIwMCcsICctaW1hZScsICc8aW5maWxlLm1hZT4nLCAnLW9tYWUnLCAnPG91dGZpbGUubWFlPic=

>  <r_lp_tautomer_probability>  (47) 
1

>  <r_epik_Ionization_Penalty>  (47) 
1.54556e-10

>  <r_epik_Ionization_Penalty_Charging>  (47) 
0

>  <r_epik_Ionization_Penalty_Neutral>  (47) 
1.54556e-10

>  <r_epik_State_Penalty>  (47) 
-0

>  <r_epik_Charging_Adjusted_Penalty>  (47) 
0

>  <i_epik_Tot_Q>  (47) 
0

>  <i_epik_Tot_abs_Q>  (47) 
0

>  <s_lp_Force_Field>  (47) 
OPLS3e

>  <r_lp_Energy>  (47) 
137.695

>  <b_lp_Chiralities_Consistent>  (47) 
1

>  <s_lp_Variant>  (47) 
11:0-1

>  <s_i_glide_gridfile>  (47) 
pfpi4k_grid

>  <i_i_glide_lignum>  (47) 
19

>  <i_i_glide_rotatable_bonds>  (47) 
0

>  <r_i_docking_score>  (47) 
-2.62172

>  <r_i_glide_ligand_efficiency>  (47) 
-0.0728255

>  <r_i_glide_ligand_efficiency_sa>  (47) 
-0.240464

>  <r_i_glide_ligand_efficiency_ln>  (47) 
-0.571988

>  <r_i_glide_gscore>  (47) 
-2.62172

>  <r_i_glide_lipo>  (47) 
-0.801388

>  <r_i_glide_hbond>  (47) 
-0.0853774

>  <r_i_glide_metal>  (47) 
-0

>  <r_i_glide_rewards>  (47) 
-0.0489645

>  <r_i_glide_evdw>  (47) 
-28.9851

>  <r_i_glide_ecoul>  (47) 
-1.57823

>  <r_i_glide_erotb>  (47) 
0

>  <r_i_glide_esite>  (47) 
0

>  <r_i_glide_emodel>  (47) 
-34.5726

>  <r_i_glide_energy>  (47) 
-30.5633

>  <r_i_glide_einternal>  (47) 
0

>  <r_i_glide_intrahb_reward>  (47) 
-0

>  <i_i_glide_confnum>  (47) 
2

>  <i_i_glide_posenum>  (47) 
21

>  <r_i_glide_eff_state_penalty>  (47) 
0

>  <ligand_id>  (47) 
11

>  <original_smiles>  (47) 
CC1(C)CCC2(C)CCC3(C)C(=CCC4C3(C)CCC3(C)C5(C)COC6CC(C5C6(C)C)C43C)C2C1

>  <smiles>  (47) 
[H]C1=C2C3([H])C([H])([H])C(C([H])([H])[H])(C([H])([H])[H])C([H])([H])C([H])([H])C3(C([H])([H])[H])C([H])([H])C([H])([H])C2(C([H])([H])[H])C2(C([H])([H])[H])C([H])([H])C([H])([H])C3(C([H])([H])[H])C4(C([H])([H])[H])C([H])([H])OC5([H])C([H])([H])C([H])(C4([H])C5(C([H])([H])[H])C([H])([H])[H])C3(C([H])([H])[H])C2([H])C1([H])[H]

$$$$
11:0:1
     RDKit          3D

 92 98  0  0  1  0  0  0  0  0999 V2000
    4.8856   -2.3972   -3.4368 C   0  0  0  0  0  0  0  0  0  0  0  0
    4.4449   -2.3469   -1.9850 C   0  0  0  0  0  0  0  0  0  0  0  0
    3.0753   -1.6618   -1.9952 C   0  0  0  0  0  0  0  0  0  0  0  0
    4.3078   -3.8109   -1.5091 C   0  0  0  0  0  0  0  0  0  0  0  0
    4.4013   -4.0203   -0.0016 C   0  0  0  0  0  0  0  0  0  0  0  0
    5.6430   -3.3439    0.5910 C   0  0  2  0  0  0  0  0  0  0  0  0
    6.9368   -3.9081   -0.0544 C   0  0  0  0  0  0  0  0  0  0  0  0
    5.7719   -3.6370    2.0808 C   0  0  0  0  0  0  0  0  0  0  0  0
    4.6062   -3.1606    2.9209 C   0  0  0  0  0  0  0  0  0  0  0  0
    4.2707   -1.6391    2.7619 C   0  0  1  0  0  0  0  0  0  0  0  0
    5.2955   -0.8580    3.6268 C   0  0  0  0  0  0  0  0  0  0  0  0
    4.4768   -1.1319    1.3142 C   0  0  0  0  0  0  0  0  0  0  0  0
    3.8701    0.0115    0.9825 C   0  0  0  0  0  0  0  0  0  0  0  0
    3.0092    0.8470    1.9041 C   0  0  0  0  0  0  0  0  0  0  0  0
    2.3168    0.1323    3.0819 C   0  0  1  0  0  0  0  0  0  0  0  0
    2.7822   -1.3626    3.2399 C   0  0  1  0  0  0  0  0  0  0  0  0
    1.8031   -2.1824    2.3308 C   0  0  0  0  0  0  0  0  0  0  0  0
    2.5707   -1.9101    4.6738 C   0  0  0  0  0  0  0  0  0  0  0  0
    1.4924   -1.1997    5.4866 C   0  0  0  0  0  0  0  0  0  0  0  0
    1.7838    0.3108    5.7335 C   0  0  2  0  0  0  0  0  0  0  0  0
    3.1176    0.3312    6.5515 C   0  0  0  0  0  0  0  0  0  0  0  0
    0.5984    1.0745    6.5053 C   0  0  2  0  0  0  0  0  0  0  0  0
    1.0366    1.7100    7.8543 C   0  0  0  0  0  0  0  0  0  0  0  0
   -0.5973    0.1433    6.8620 C   0  0  0  0  0  0  0  0  0  0  0  0
   -1.5523   -0.0537    5.8180 O   0  0  0  0  0  0  0  0  0  0  0  0
   -1.7102    1.0128    4.8712 C   0  0  2  0  0  0  0  0  0  0  0  0
   -0.6779    0.8372    3.7547 C   0  0  0  0  0  0  0  0  0  0  0  0
    0.5398    1.7005    4.1812 C   0  0  1  0  0  0  0  0  0  0  0  0
    0.1072    2.2184    5.5605 C   0  0  1  0  0  0  0  0  0  0  0  0
   -1.4313    2.4030    5.4577 C   0  0  0  0  0  0  0  0  0  0  0  0
   -1.7972    3.5464    4.4746 C   0  0  0  0  0  0  0  0  0  0  0  0
   -2.2065    2.7417    6.7624 C   0  0  0  0  0  0  0  0  0  0  0  0
    1.9357    1.0431    4.3510 C   0  0  2  0  0  0  0  0  0  0  0  0
    2.9097    2.2523    4.4990 C   0  0  0  0  0  0  0  0  0  0  0  0
    5.5257   -1.8182    0.3909 C   0  0  2  0  0  0  0  0  0  0  0  0
    5.4646   -1.5198   -1.1386 C   0  0  0  0  0  0  0  0  0  0  0  0
    4.2138   -2.9829   -4.0703 H   0  0  0  0  0  0  0  0  0  0  0  0
    5.8702   -2.8506   -3.5146 H   0  0  0  0  0  0  0  0  0  0  0  0
    4.9326   -1.3931   -3.8595 H   0  0  0  0  0  0  0  0  0  0  0  0
    2.6513   -1.6610   -0.9909 H   0  0  0  0  0  0  0  0  0  0  0  0
    2.3524   -2.1671   -2.6416 H   0  0  0  0  0  0  0  0  0  0  0  0
    3.1378   -0.6314   -2.3345 H   0  0  0  0  0  0  0  0  0  0  0  0
    3.3391   -4.1706   -1.8155 H   0  0  0  0  0  0  0  0  0  0  0  0
    5.0432   -4.4504   -2.0141 H   0  0  0  0  0  0  0  0  0  0  0  0
    3.4964   -3.6089    0.4428 H   0  0  0  0  0  0  0  0  0  0  0  0
    4.3922   -5.0889    0.2244 H   0  0  0  0  0  0  0  0  0  0  0  0
    7.8367   -3.4368    0.3409 H   0  0  0  0  0  0  0  0  0  0  0  0
    6.9738   -3.7907   -1.1364 H   0  0  0  0  0  0  0  0  0  0  0  0
    7.0177   -4.9816    0.1273 H   0  0  0  0  0  0  0  0  0  0  0  0
    5.9784   -4.7008    2.2601 H   0  0  0  0  0  0  0  0  0  0  0  0
    6.6180   -3.0746    2.4174 H   0  0  0  0  0  0  0  0  0  0  0  0
    3.7864   -3.8236    2.6919 H   0  0  0  0  0  0  0  0  0  0  0  0
    4.8453   -3.3786    3.9623 H   0  0  0  0  0  0  0  0  0  0  0  0
    5.4080   -1.2537    4.6354 H   0  0  0  0  0  0  0  0  0  0  0  0
    5.0473    0.1956    3.7216 H   0  0  0  0  0  0  0  0  0  0  0  0
    6.2837   -0.8891    3.1806 H   0  0  0  0  0  0  0  0  0  0  0  0
    4.1272    0.5008    0.0671 H   0  0  0  0  0  0  0  0  0  0  0  0
    3.7509    1.5459    2.3023 H   0  0  0  0  0  0  0  0  0  0  0  0
    2.3079    1.4404    1.3277 H   0  0  0  0  0  0  0  0  0  0  0  0
    1.3579    0.0388    2.5952 H   0  0  0  0  0  0  0  0  0  0  0  0
    0.7684   -1.9977    2.6040 H   0  0  0  0  0  0  0  0  0  0  0  0
    1.8971   -3.2571    2.3901 H   0  0  0  0  0  0  0  0  0  0  0  0
    1.8966   -1.9087    1.2829 H   0  0  0  0  0  0  0  0  0  0  0  0
    2.2809   -2.9512    4.6219 H   0  0  0  0  0  0  0  0  0  0  0  0
    3.4955   -1.9453    5.2530 H   0  0  0  0  0  0  0  0  0  0  0  0
    0.5326   -1.3658    4.9972 H   0  0  0  0  0  0  0  0  0  0  0  0
    1.4268   -1.7315    6.4389 H   0  0  0  0  0  0  0  0  0  0  0  0
    3.4026    1.3166    6.9209 H   0  0  0  0  0  0  0  0  0  0  0  0
    3.9674    0.0189    5.9523 H   0  0  0  0  0  0  0  0  0  0  0  0
    3.0719   -0.3314    7.4182 H   0  0  0  0  0  0  0  0  0  0  0  0
    0.2027    2.1863    8.3645 H   0  0  0  0  0  0  0  0  0  0  0  0
    1.7820    2.4930    7.7161 H   0  0  0  0  0  0  0  0  0  0  0  0
    1.4339    0.9687    8.5473 H   0  0  0  0  0  0  0  0  0  0  0  0
   -0.2997   -0.8253    7.2560 H   0  0  0  0  0  0  0  0  0  0  0  0
   -1.1371    0.5559    7.7046 H   0  0  0  0  0  0  0  0  0  0  0  0
   -2.6777    0.9329    4.4139 H   0  0  0  0  0  0  0  0  0  0  0  0
   -0.4942   -0.2135    3.5646 H   0  0  0  0  0  0  0  0  0  0  0  0
   -1.0853    1.2352    2.8255 H   0  0  0  0  0  0  0  0  0  0  0  0
    0.6036    2.5226    3.4679 H   0  0  0  0  0  0  0  0  0  0  0  0
    0.5929    3.1621    5.8012 H   0  0  0  0  0  0  0  0  0  0  0  0
   -1.4740    4.5068    4.8668 H   0  0  0  0  0  0  0  0  0  0  0  0
   -2.8755    3.5992    4.3174 H   0  0  0  0  0  0  0  0  0  0  0  0
   -1.3653    3.4510    3.4782 H   0  0  0  0  0  0  0  0  0  0  0  0
   -1.5696    3.2419    7.4918 H   0  0  0  0  0  0  0  0  0  0  0  0
   -2.6731    1.8817    7.2330 H   0  0  0  0  0  0  0  0  0  0  0  0
   -3.0377    3.4207    6.5771 H   0  0  0  0  0  0  0  0  0  0  0  0
    2.7291    2.8311    5.4008 H   0  0  0  0  0  0  0  0  0  0  0  0
    2.8054    2.9578    3.6773 H   0  0  0  0  0  0  0  0  0  0  0  0
    3.9549    1.9491    4.5313 H   0  0  0  0  0  0  0  0  0  0  0  0
    6.4601   -1.3830    0.7326 H   0  0  0  0  0  0  0  0  0  0  0  0
    6.4640   -1.7183   -1.5518 H   0  0  0  0  0  0  0  0  0  0  0  0
    5.3299   -0.4723   -1.3384 H   0  0  0  0  0  0  0  0  0  0  0  0
  1  2  1  0
  1 37  1  0
  1 38  1  0
  1 39  1  0
  2 36  1  0
  2  3  1  0
  2  4  1  0
  3 40  1  0
  3 41  1  0
  3 42  1  0
  4  5  1  0
  4 43  1  0
  4 44  1  0
  5  6  1  0
  5 45  1  0
  5 46  1  0
  6 35  1  0
  6  7  1  6
  6  8  1  0
  7 47  1  0
  7 48  1  0
  7 49  1  0
  8  9  1  0
  8 50  1  0
  8 51  1  0
  9 10  1  0
  9 52  1  0
  9 53  1  0
 10 16  1  0
 10 11  1  1
 10 12  1  0
 11 54  1  0
 11 55  1  0
 11 56  1  0
 12 13  2  0
 12 35  1  0
 13 14  1  0
 13 57  1  0
 14 15  1  0
 14 58  1  0
 14 59  1  0
 15 33  1  0
 15 16  1  0
 15 60  1  6
 16 17  1  6
 16 18  1  0
 17 61  1  0
 17 62  1  0
 17 63  1  0
 18 19  1  0
 18 64  1  0
 18 65  1  0
 19 20  1  0
 19 66  1  0
 19 67  1  0
 20 33  1  0
 20 21  1  1
 20 22  1  0
 21 68  1  0
 21 69  1  0
 21 70  1  0
 22 29  1  0
 22 23  1  1
 22 24  1  0
 23 71  1  0
 23 72  1  0
 23 73  1  0
 24 25  1  0
 24 74  1  0
 24 75  1  0
 25 26  1  0
 26 30  1  0
 26 27  1  0
 26 76  1  6
 27 28  1  0
 27 77  1  0
 27 78  1  0
 28 29  1  0
 28 33  1  0
 28 79  1  6
 29 30  1  0
 29 80  1  1
 30 31  1  0
 30 32  1  0
 31 81  1  0
 31 82  1  0
 31 83  1  0
 32 84  1  0
 32 85  1  0
 32 86  1  0
 33 34  1  1
 34 87  1  0
 34 88  1  0
 34 89  1  0
 35 36  1  0
 35 90  1  1
 36 91  1  0
 36 92  1  0
M  END
>  <i_m_ct_stereo_status>  (48) 
1

>  <s_m_source_file>  (48) 
/var/tmp/pbs.5076255.sched01/tmpkni74bsw/0nq93mkxh.sdf

>  <i_m_source_file_index>  (48) 
19

>  <i_lp_mmshare_version>  (48) 
48012

>  <i_f3d_flags>  (48) 
0

>  <s_epik_input>  (48) 
W0NIMl0xW0NIMl1DKFtDSDNdKShbQ0gzXSlbQ0gyXVtDQEhdKFtDQF0xMltDSDNdKUM9M1tDQF0oW0NIM10pKFtDSDJdW0NIMl0yKVtDQF00KFtDSDNdKVtDQEhdKFtDSDJdW0NIXTMpW0NAXTUoW0NIM10pW0NAXShbQ0gzXSkoW0NIMl1bQ0gyXTQpW0NAQF02KFtDSDNdKVtDQEhdN1tDQEBIXTVbQ0gyXVtDQEBIXShPW0NIMl02KUM3KFtDSDNdKVtDSDNd

>  <s_epik_cmdline>  (48) 
J2VwaWtfcHl0aG9uJywgJy1waHQnLCAnMi4wJywgJy1waCcsICc3LjAnLCAnLXRuJywgJzgnLCAnLW1hJywgJzIwMCcsICctaW1hZScsICc8aW5maWxlLm1hZT4nLCAnLW9tYWUnLCAnPG91dGZpbGUubWFlPic=

>  <r_lp_tautomer_probability>  (48) 
1

>  <r_epik_Ionization_Penalty>  (48) 
1.54556e-10

>  <r_epik_Ionization_Penalty_Charging>  (48) 
0

>  <r_epik_Ionization_Penalty_Neutral>  (48) 
1.54556e-10

>  <r_epik_State_Penalty>  (48) 
-0

>  <r_epik_Charging_Adjusted_Penalty>  (48) 
0

>  <i_epik_Tot_Q>  (48) 
0

>  <i_epik_Tot_abs_Q>  (48) 
0

>  <s_lp_Force_Field>  (48) 
OPLS3e

>  <r_lp_Energy>  (48) 
137.695

>  <b_lp_Chiralities_Consistent>  (48) 
1

>  <s_lp_Variant>  (48) 
11:0-1

>  <s_i_glide_gridfile>  (48) 
pfpi4k_grid

>  <i_i_glide_lignum>  (48) 
19

>  <i_i_glide_rotatable_bonds>  (48) 
0

>  <r_i_docking_score>  (48) 
-2.4389

>  <r_i_glide_ligand_efficiency>  (48) 
-0.0677472

>  <r_i_glide_ligand_efficiency_sa>  (48) 
-0.223696

>  <r_i_glide_ligand_efficiency_ln>  (48) 
-0.532102

>  <r_i_glide_gscore>  (48) 
-2.4389

>  <r_i_glide_lipo>  (48) 
-0.708399

>  <r_i_glide_hbond>  (48) 
-0.0434274

>  <r_i_glide_metal>  (48) 
-0

>  <r_i_glide_rewards>  (48) 
-0.0489645

>  <r_i_glide_evdw>  (48) 
-28.1121

>  <r_i_glide_ecoul>  (48) 
-1.55003

>  <r_i_glide_erotb>  (48) 
0

>  <r_i_glide_esite>  (48) 
0

>  <r_i_glide_emodel>  (48) 
-32.8302

>  <r_i_glide_energy>  (48) 
-29.6621

>  <r_i_glide_einternal>  (48) 
0

>  <r_i_glide_intrahb_reward>  (48) 
-0

>  <i_i_glide_confnum>  (48) 
2

>  <i_i_glide_posenum>  (48) 
36

>  <r_i_glide_eff_state_penalty>  (48) 
0

>  <ligand_id>  (48) 
11

>  <original_smiles>  (48) 
CC1(C)CCC2(C)CCC3(C)C(=CCC4C3(C)CCC3(C)C5(C)COC6CC(C5C6(C)C)C43C)C2C1

>  <smiles>  (48) 
[H]C1=C2C3([H])C([H])([H])C(C([H])([H])[H])(C([H])([H])[H])C([H])([H])C([H])([H])C3(C([H])([H])[H])C([H])([H])C([H])([H])C2(C([H])([H])[H])C2(C([H])([H])[H])C([H])([H])C([H])([H])C3(C([H])([H])[H])C4(C([H])([H])[H])C([H])([H])OC5([H])C([H])([H])C([H])(C4([H])C5(C([H])([H])[H])C([H])([H])[H])C3(C([H])([H])[H])C2([H])C1([H])[H]

$$$$
11:0:2
     RDKit          3D

 92 98  0  0  1  0  0  0  0  0999 V2000
    5.0979   -3.6187   -2.3332 C   0  0  0  0  0  0  0  0  0  0  0  0
    4.4565   -3.3340   -0.9611 C   0  0  0  0  0  0  0  0  0  0  0  0
    3.1637   -2.5427   -1.2189 C   0  0  0  0  0  0  0  0  0  0  0  0
    4.1117   -4.7059   -0.3126 C   0  0  0  0  0  0  0  0  0  0  0  0
    4.0345   -4.7160    1.2179 C   0  0  0  0  0  0  0  0  0  0  0  0
    5.2799   -4.0832    1.8679 C   0  0  2  0  0  0  0  0  0  0  0  0
    6.5556   -4.8629    1.4448 C   0  0  0  0  0  0  0  0  0  0  0  0
    5.2333   -4.1658    3.4016 C   0  0  0  0  0  0  0  0  0  0  0  0
    4.0212   -3.4672    4.0004 C   0  0  0  0  0  0  0  0  0  0  0  0
    3.8470   -1.9643    3.5882 C   0  0  1  0  0  0  0  0  0  0  0  0
    4.8149   -1.1560    4.4803 C   0  0  0  0  0  0  0  0  0  0  0  0
    4.2683   -1.6833    2.1219 C   0  0  0  0  0  0  0  0  0  0  0  0
    3.8196   -0.5454    1.5420 C   0  0  0  0  0  0  0  0  0  0  0  0
    3.0145    0.5135    2.2683 C   0  0  0  0  0  0  0  0  0  0  0  0
    2.0947    0.0145    3.4178 C   0  0  1  0  0  0  0  0  0  0  0  0
    2.3477   -1.4969    3.8337 C   0  0  1  0  0  0  0  0  0  0  0  0
    1.3963   -2.3391    2.9285 C   0  0  0  0  0  0  0  0  0  0  0  0
    1.9229   -1.8102    5.2916 C   0  0  0  0  0  0  0  0  0  0  0  0
    0.8462   -0.9000    5.8653 C   0  0  0  0  0  0  0  0  0  0  0  0
    1.2732    0.5965    5.9525 C   0  0  2  0  0  0  0  0  0  0  0  0
    2.4950    0.6189    6.9222 C   0  0  0  0  0  0  0  0  0  0  0  0
    0.0990    1.5649    6.4690 C   0  0  2  0  0  0  0  0  0  0  0  0
    0.4353    2.3494    7.7636 C   0  0  0  0  0  0  0  0  0  0  0  0
   -1.2217    0.8003    6.7827 C   0  0  0  0  0  0  0  0  0  0  0  0
   -2.0373    0.5322    5.6428 O   0  0  0  0  0  0  0  0  0  0  0  0
   -2.0131    1.4873    4.5647 C   0  0  2  0  0  0  0  0  0  0  0  0
   -0.8903    1.0580    3.6201 C   0  0  0  0  0  0  0  0  0  0  0  0
    0.3583    1.8590    4.0774 C   0  0  1  0  0  0  0  0  0  0  0  0
   -0.1576    2.6024    5.3234 C   0  0  1  0  0  0  0  0  0  0  0  0
   -1.6388    2.8949    5.0104 C   0  0  0  0  0  0  0  0  0  0  0  0
   -1.7854    3.9208    3.8495 C   0  0  0  0  0  0  0  0  0  0  0  0
   -2.5272    3.4192    6.1612 C   0  0  0  0  0  0  0  0  0  0  0  0
    1.6536    1.1084    4.5098 C   0  0  2  0  0  0  0  0  0  0  0  0
    2.7212    2.2390    4.6177 C   0  0  0  0  0  0  0  0  0  0  0  0
    5.3351   -2.5960    1.4396 C   0  0  2  0  0  0  0  0  0  0  0  0
    5.4725   -2.5070   -0.1095 C   0  0  0  0  0  0  0  0  0  0  0  0
    4.4393   -4.2017   -2.9788 H   0  0  0  0  0  0  0  0  0  0  0  0
    6.0031   -4.2058   -2.1984 H   0  0  0  0  0  0  0  0  0  0  0  0
    5.3760   -2.7066   -2.8570 H   0  0  0  0  0  0  0  0  0  0  0  0
    2.6172   -2.3451   -0.3015 H   0  0  0  0  0  0  0  0  0  0  0  0
    2.4883   -3.0782   -1.8867 H   0  0  0  0  0  0  0  0  0  0  0  0
    3.3687   -1.5840   -1.6883 H   0  0  0  0  0  0  0  0  0  0  0  0
    3.1494   -5.0441   -0.7047 H   0  0  0  0  0  0  0  0  0  0  0  0
    4.8225   -5.4719   -0.6359 H   0  0  0  0  0  0  0  0  0  0  0  0
    3.1421   -4.1680    1.5020 H   0  0  0  0  0  0  0  0  0  0  0  0
    3.8943   -5.7326    1.5823 H   0  0  0  0  0  0  0  0  0  0  0  0
    7.4592   -4.4248    1.8727 H   0  0  0  0  0  0  0  0  0  0  0  0
    6.7116   -4.9000    0.3685 H   0  0  0  0  0  0  0  0  0  0  0  0
    6.5012   -5.9011    1.7786 H   0  0  0  0  0  0  0  0  0  0  0  0
    5.2568   -5.2105    3.7255 H   0  0  0  0  0  0  0  0  0  0  0  0
    6.1233   -3.7106    3.8280 H   0  0  0  0  0  0  0  0  0  0  0  0
    3.1704   -4.0835    3.7468 H   0  0  0  0  0  0  0  0  0  0  0  0
    4.0944   -3.5514    5.0830 H   0  0  0  0  0  0  0  0  0  0  0  0
    4.7809   -1.4192    5.5334 H   0  0  0  0  0  0  0  0  0  0  0  0
    4.6810   -0.0824    4.4001 H   0  0  0  0  0  0  0  0  0  0  0  0
    5.8176   -1.3621    4.1565 H   0  0  0  0  0  0  0  0  0  0  0  0
    4.1503   -0.2416    0.5677 H   0  0  0  0  0  0  0  0  0  0  0  0
    3.7821    1.1856    2.6326 H   0  0  0  0  0  0  0  0  0  0  0  0
    2.4303    1.0744    1.5390 H   0  0  0  0  0  0  0  0  0  0  0  0
    1.1899   -0.0653    2.8304 H   0  0  0  0  0  0  0  0  0  0  0  0
    0.3602   -2.0307    3.0505 H   0  0  0  0  0  0  0  0  0  0  0  0
    1.3751   -3.4017    3.1432 H   0  0  0  0  0  0  0  0  0  0  0  0
    1.6307   -2.2310    1.8714 H   0  0  0  0  0  0  0  0  0  0  0  0
    1.5357   -2.8253    5.3449 H   0  0  0  0  0  0  0  0  0  0  0  0
    2.7600   -1.8406    5.9831 H   0  0  0  0  0  0  0  0  0  0  0  0
   -0.0641   -1.0497    5.2922 H   0  0  0  0  0  0  0  0  0  0  0  0
    0.6260   -1.2833    6.8604 H   0  0  0  0  0  0  0  0  0  0  0  0
    2.8317    1.6179    7.1849 H   0  0  0  0  0  0  0  0  0  0  0  0
    3.3648    0.1482    6.4780 H   0  0  0  0  0  0  0  0  0  0  0  0
    2.2756    0.0965    7.8527 H   0  0  0  0  0  0  0  0  0  0  0  0
   -0.4005    2.9629    8.0971 H   0  0  0  0  0  0  0  0  0  0  0  0
    1.2665    3.0375    7.6178 H   0  0  0  0  0  0  0  0  0  0  0  0
    0.6715    1.6796    8.5920 H   0  0  0  0  0  0  0  0  0  0  0  0
   -1.0532   -0.1229    7.3269 H   0  0  0  0  0  0  0  0  0  0  0  0
   -1.8174    1.3452    7.5111 H   0  0  0  0  0  0  0  0  0  0  0  0
   -2.9604    1.5192    4.0836 H   0  0  0  0  0  0  0  0  0  0  0  0
   -0.7908   -0.0252    3.5982 H   0  0  0  0  0  0  0  0  0  0  0  0
   -1.1493    1.3506    2.6007 H   0  0  0  0  0  0  0  0  0  0  0  0
    0.5946    2.5653    3.2790 H   0  0  0  0  0  0  0  0  0  0  0  0
    0.3943    3.5288    5.4970 H   0  0  0  0  0  0  0  0  0  0  0  0
   -1.4096    4.8993    4.1448 H   0  0  0  0  0  0  0  0  0  0  0  0
   -2.8263    4.0397    3.5600 H   0  0  0  0  0  0  0  0  0  0  0  0
   -1.2683    3.6521    2.9322 H   0  0  0  0  0  0  0  0  0  0  0  0
   -1.9667    4.0242    6.8747 H   0  0  0  0  0  0  0  0  0  0  0  0
   -3.1005    2.6693    6.6955 H   0  0  0  0  0  0  0  0  0  0  0  0
   -3.3119    4.0419    5.7620 H   0  0  0  0  0  0  0  0  0  0  0  0
    2.4979    2.9556    5.4068 H   0  0  0  0  0  0  0  0  0  0  0  0
    2.7759    2.8267    3.7016 H   0  0  0  0  0  0  0  0  0  0  0  0
    3.7155    1.8529    4.8241 H   0  0  0  0  0  0  0  0  0  0  0  0
    6.2668   -2.1950    1.8367 H   0  0  0  0  0  0  0  0  0  0  0  0
    6.4794   -2.8409   -0.3633 H   0  0  0  0  0  0  0  0  0  0  0  0
    5.4762   -1.4803   -0.4555 H   0  0  0  0  0  0  0  0  0  0  0  0
  1  2  1  0
  1 37  1  0
  1 38  1  0
  1 39  1  0
  2 36  1  0
  2  3  1  0
  2  4  1  0
  3 40  1  0
  3 41  1  0
  3 42  1  0
  4  5  1  0
  4 43  1  0
  4 44  1  0
  5  6  1  0
  5 45  1  0
  5 46  1  0
  6 35  1  0
  6  7  1  6
  6  8  1  0
  7 47  1  0
  7 48  1  0
  7 49  1  0
  8  9  1  0
  8 50  1  0
  8 51  1  0
  9 10  1  0
  9 52  1  0
  9 53  1  0
 10 16  1  0
 10 11  1  1
 10 12  1  0
 11 54  1  0
 11 55  1  0
 11 56  1  0
 12 13  2  0
 12 35  1  0
 13 14  1  0
 13 57  1  0
 14 15  1  0
 14 58  1  0
 14 59  1  0
 15 33  1  0
 15 16  1  0
 15 60  1  6
 16 17  1  6
 16 18  1  0
 17 61  1  0
 17 62  1  0
 17 63  1  0
 18 19  1  0
 18 64  1  0
 18 65  1  0
 19 20  1  0
 19 66  1  0
 19 67  1  0
 20 33  1  0
 20 21  1  1
 20 22  1  0
 21 68  1  0
 21 69  1  0
 21 70  1  0
 22 29  1  0
 22 23  1  1
 22 24  1  0
 23 71  1  0
 23 72  1  0
 23 73  1  0
 24 25  1  0
 24 74  1  0
 24 75  1  0
 25 26  1  0
 26 30  1  0
 26 27  1  0
 26 76  1  6
 27 28  1  0
 27 77  1  0
 27 78  1  0
 28 29  1  0
 28 33  1  0
 28 79  1  6
 29 30  1  0
 29 80  1  1
 30 31  1  0
 30 32  1  0
 31 81  1  0
 31 82  1  0
 31 83  1  0
 32 84  1  0
 32 85  1  0
 32 86  1  0
 33 34  1  1
 34 87  1  0
 34 88  1  0
 34 89  1  0
 35 36  1  0
 35 90  1  1
 36 91  1  0
 36 92  1  0
M  END
>  <i_m_ct_stereo_status>  (49) 
1

>  <s_m_source_file>  (49) 
/var/tmp/pbs.5076255.sched01/tmpkni74bsw/0nq93mkxh.sdf

>  <i_m_source_file_index>  (49) 
19

>  <i_lp_mmshare_version>  (49) 
48012

>  <i_f3d_flags>  (49) 
0

>  <s_epik_input>  (49) 
W0NIMl0xW0NIMl1DKFtDSDNdKShbQ0gzXSlbQ0gyXVtDQEhdKFtDQF0xMltDSDNdKUM9M1tDQF0oW0NIM10pKFtDSDJdW0NIMl0yKVtDQF00KFtDSDNdKVtDQEhdKFtDSDJdW0NIXTMpW0NAXTUoW0NIM10pW0NAXShbQ0gzXSkoW0NIMl1bQ0gyXTQpW0NAQF02KFtDSDNdKVtDQEhdN1tDQEBIXTVbQ0gyXVtDQEBIXShPW0NIMl02KUM3KFtDSDNdKVtDSDNd

>  <s_epik_cmdline>  (49) 
J2VwaWtfcHl0aG9uJywgJy1waHQnLCAnMi4wJywgJy1waCcsICc3LjAnLCAnLXRuJywgJzgnLCAnLW1hJywgJzIwMCcsICctaW1hZScsICc8aW5maWxlLm1hZT4nLCAnLW9tYWUnLCAnPG91dGZpbGUubWFlPic=

>  <r_lp_tautomer_probability>  (49) 
1

>  <r_epik_Ionization_Penalty>  (49) 
1.54556e-10

>  <r_epik_Ionization_Penalty_Charging>  (49) 
0

>  <r_epik_Ionization_Penalty_Neutral>  (49) 
1.54556e-10

>  <r_epik_State_Penalty>  (49) 
-0

>  <r_epik_Charging_Adjusted_Penalty>  (49) 
0

>  <i_epik_Tot_Q>  (49) 
0

>  <i_epik_Tot_abs_Q>  (49) 
0

>  <s_lp_Force_Field>  (49) 
OPLS3e

>  <r_lp_Energy>  (49) 
137.695

>  <b_lp_Chiralities_Consistent>  (49) 
1

>  <s_lp_Variant>  (49) 
11:0-1

>  <s_i_glide_gridfile>  (49) 
pfpi4k_grid

>  <i_i_glide_lignum>  (49) 
19

>  <i_i_glide_rotatable_bonds>  (49) 
0

>  <r_i_docking_score>  (49) 
-2.13392

>  <r_i_glide_ligand_efficiency>  (49) 
-0.0592756

>  <r_i_glide_ligand_efficiency_sa>  (49) 
-0.195724

>  <r_i_glide_ligand_efficiency_ln>  (49) 
-0.465564

>  <r_i_glide_gscore>  (49) 
-2.13392

>  <r_i_glide_lipo>  (49) 
-0.568899

>  <r_i_glide_hbond>  (49) 
0

>  <r_i_glide_metal>  (49) 
-0

>  <r_i_glide_rewards>  (49) 
-0.0489645

>  <r_i_glide_evdw>  (49) 
-27.4635

>  <r_i_glide_ecoul>  (49) 
-0.952545

>  <r_i_glide_erotb>  (49) 
0

>  <r_i_glide_esite>  (49) 
0

>  <r_i_glide_emodel>  (49) 
-31.5702

>  <r_i_glide_energy>  (49) 
-28.4161

>  <r_i_glide_einternal>  (49) 
0

>  <r_i_glide_intrahb_reward>  (49) 
-0

>  <i_i_glide_confnum>  (49) 
1

>  <i_i_glide_posenum>  (49) 
18

>  <r_i_glide_eff_state_penalty>  (49) 
0

>  <ligand_id>  (49) 
11

>  <original_smiles>  (49) 
CC1(C)CCC2(C)CCC3(C)C(=CCC4C3(C)CCC3(C)C5(C)COC6CC(C5C6(C)C)C43C)C2C1

>  <smiles>  (49) 
[H]C1=C2C3([H])C([H])([H])C(C([H])([H])[H])(C([H])([H])[H])C([H])([H])C([H])([H])C3(C([H])([H])[H])C([H])([H])C([H])([H])C2(C([H])([H])[H])C2(C([H])([H])[H])C([H])([H])C([H])([H])C3(C([H])([H])[H])C4(C([H])([H])[H])C([H])([H])OC5([H])C([H])([H])C([H])(C4([H])C5(C([H])([H])[H])C([H])([H])[H])C3(C([H])([H])[H])C2([H])C1([H])[H]

$$$$
13:0:0
     RDKit          3D

 64 68  0  0  1  0  0  0  0  0999 V2000
    2.7384   -2.5189    3.6301 C   0  0  0  0  0  0  0  0  0  0  0  0
    3.2217   -2.6860    2.1639 C   0  0  2  0  0  0  0  0  0  0  0  0
    2.5252   -3.8638    1.4711 C   0  0  1  0  0  0  0  0  0  0  0  0
    2.6548   -3.7818   -0.0562 C   0  0  0  0  0  0  0  0  0  0  0  0
    4.0335   -3.3581   -0.5039 C   0  0  0  0  0  0  0  0  0  0  0  0
    4.3226   -3.4318   -1.8884 C   0  0  0  0  0  0  0  0  0  0  0  0
    5.5987   -3.1073   -2.3507 C   0  0  0  0  0  0  0  0  0  0  0  0
    6.6006   -2.7166   -1.4377 C   0  0  0  0  0  0  0  0  0  0  0  0
    7.8589   -2.4427   -1.8053 O   0  0  0  0  0  0  0  0  0  0  0  0
    6.3010   -2.6161   -0.0637 C   0  0  0  0  0  0  0  0  0  0  0  0
    5.0225   -2.9132    0.4203 C   0  0  0  0  0  0  0  0  0  0  0  0
    4.7466   -2.8428    1.9364 C   0  0  1  0  0  0  0  0  0  0  0  0
    5.5163   -1.6836    2.6102 C   0  0  0  0  0  0  0  0  0  0  0  0
    5.1920   -4.1714    2.5936 C   0  0  0  0  0  0  0  0  0  0  0  0
    4.4594   -5.3951    2.0272 C   0  0  0  0  0  0  0  0  0  0  0  0
    2.9967   -5.1950    1.9457 N   0  0  0  0  0  0  0  0  0  0  0  0
    2.1123   -6.2202    2.0530 C   0  0  0  0  0  0  0  0  0  0  0  0
    0.9650   -6.1293    1.5944 O   0  0  0  0  0  0  0  0  0  0  0  0
    2.5291   -7.5319    2.7783 C   0  0  2  0  0  0  0  0  0  0  0  0
    1.8611   -8.7978    2.1519 C   0  0  2  0  0  0  0  0  0  0  0  0
    0.3562   -8.9138    2.4966 C   0  0  0  0  0  0  0  0  0  0  0  0
    0.3350   -9.7348    3.8099 C   0  0  0  0  0  0  0  0  0  0  0  0
    1.8211  -10.0173    4.1234 C   0  0  2  0  0  0  0  0  0  0  0  0
    2.4735   -8.8892    4.9763 C   0  0  0  0  0  0  0  0  0  0  0  0
    2.3681   -7.4766    4.3395 C   0  0  1  0  0  0  0  0  0  0  0  0
    3.3411   -6.5044    5.0278 C   0  0  0  0  0  0  0  0  0  0  0  0
    1.1080   -6.9655    4.7268 O   0  0  0  0  0  0  0  0  0  0  0  0
    2.4078  -10.0291    2.7707 N   0  0  2  0  0  0  0  0  0  0  0  0
    3.8723  -10.3021    2.6577 C   0  0  0  0  0  0  0  0  0  0  0  0
    2.9652   -3.3784    4.2516 H   0  0  0  0  0  0  0  0  0  0  0  0
    1.6566   -2.3872    3.6615 H   0  0  0  0  0  0  0  0  0  0  0  0
    3.1683   -1.6411    4.1111 H   0  0  0  0  0  0  0  0  0  0  0  0
    2.9057   -1.7694    1.6549 H   0  0  0  0  0  0  0  0  0  0  0  0
    1.4853   -3.7629    1.7609 H   0  0  0  0  0  0  0  0  0  0  0  0
    2.3919   -4.7444   -0.5153 H   0  0  0  0  0  0  0  0  0  0  0  0
    1.9551   -3.0491   -0.4329 H   0  0  0  0  0  0  0  0  0  0  0  0
    3.5586   -3.7706   -2.5713 H   0  0  0  0  0  0  0  0  0  0  0  0
    5.8218   -3.1960   -3.4052 H   0  0  0  0  0  0  0  0  0  0  0  0
    8.0406   -2.6525   -2.7285 H   0  0  0  0  0  0  0  0  0  0  0  0
    7.1150   -2.3356    0.5790 H   0  0  0  0  0  0  0  0  0  0  0  0
    5.3266   -1.6425    3.6828 H   0  0  0  0  0  0  0  0  0  0  0  0
    5.2557   -0.7229    2.1691 H   0  0  0  0  0  0  0  0  0  0  0  0
    6.5887   -1.8201    2.5078 H   0  0  0  0  0  0  0  0  0  0  0  0
    6.2632   -4.3129    2.4692 H   0  0  0  0  0  0  0  0  0  0  0  0
    5.0242   -4.1162    3.6707 H   0  0  0  0  0  0  0  0  0  0  0  0
    4.8190   -5.6187    1.0240 H   0  0  0  0  0  0  0  0  0  0  0  0
    4.7470   -6.2303    2.6533 H   0  0  0  0  0  0  0  0  0  0  0  0
    3.5737   -7.6769    2.5666 H   0  0  0  0  0  0  0  0  0  0  0  0
    2.0320   -8.8353    1.0747 H   0  0  0  0  0  0  0  0  0  0  0  0
   -0.1426   -7.9505    2.6105 H   0  0  0  0  0  0  0  0  0  0  0  0
   -0.1650   -9.4505    1.7117 H   0  0  0  0  0  0  0  0  0  0  0  0
   -0.1678   -9.2176    4.6366 H   0  0  0  0  0  0  0  0  0  0  0  0
   -0.2146  -10.6639    3.6561 H   0  0  0  0  0  0  0  0  0  0  0  0
    1.9391  -10.9867    4.6141 H   0  0  0  0  0  0  0  0  0  0  0  0
    2.0459   -8.8935    5.9793 H   0  0  0  0  0  0  0  0  0  0  0  0
    3.5234   -9.1303    5.1456 H   0  0  0  0  0  0  0  0  0  0  0  0
    4.3841   -6.7902    4.8700 H   0  0  0  0  0  0  0  0  0  0  0  0
    3.1776   -6.4522    6.1063 H   0  0  0  0  0  0  0  0  0  0  0  0
    3.2165   -5.4887    4.6562 H   0  0  0  0  0  0  0  0  0  0  0  0
    0.4407   -7.5915    4.4930 H   0  0  0  0  0  0  0  0  0  0  0  0
    4.5181   -9.6221    3.2172 H   0  0  0  0  0  0  0  0  0  0  0  0
    4.2027  -10.2285    1.6205 H   0  0  0  0  0  0  0  0  0  0  0  0
    4.1089  -11.3079    3.0190 H   0  0  0  0  0  0  0  0  0  0  0  0
    1.9474  -10.7904    2.2883 H   0  0  0  0  0  0  0  0  0  0  0  0
  1  2  1  0
  1 30  1  0
  1 31  1  0
  1 32  1  0
  2 12  1  0
  2  3  1  0
  2 33  1  6
  3 16  1  0
  3  4  1  0
  3 34  1  6
  4  5  1  0
  4 35  1  0
  4 36  1  0
  5 11  2  0
  5  6  1  0
  6  7  2  0
  6 37  1  0
  7  8  1  0
  7 38  1  0
  8  9  1  0
  8 10  2  0
  9 39  1  0
 10 11  1  0
 10 40  1  0
 11 12  1  0
 12 13  1  1
 12 14  1  0
 13 41  1  0
 13 42  1  0
 13 43  1  0
 14 15  1  0
 14 44  1  0
 14 45  1  0
 15 16  1  0
 15 46  1  0
 15 47  1  0
 16 17  1  0
 17 18  2  0
 17 19  1  0
 19 25  1  0
 19 20  1  0
 19 48  1  1
 20 28  1  0
 20 21  1  0
 20 49  1  6
 21 22  1  0
 21 50  1  0
 21 51  1  0
 22 23  1  0
 22 52  1  0
 22 53  1  0
 23 24  1  0
 23 28  1  0
 23 54  1  1
 24 25  1  0
 24 55  1  0
 24 56  1  0
 25 26  1  0
 25 27  1  6
 26 57  1  0
 26 58  1  0
 26 59  1  0
 27 60  1  0
 28 29  1  0
 28 64  1  6
 29 61  1  0
 29 62  1  0
 29 63  1  0
M  CHG  1  28   1
M  END
>  <i_m_ct_stereo_status>  (50) 
1

>  <s_m_source_file>  (50) 
/var/tmp/pbs.5076255.sched01/tmpkni74bsw/0nq93mkxh.sdf

>  <i_m_source_file_index>  (50) 
22

>  <i_lp_mmshare_version>  (50) 
48012

>  <i_f3d_flags>  (50) 
0

>  <s_epik_input>  (50) 
W09IXWMoW2NIXTEpW2NIXVtjSF1jKGMxW0NAQF0yM1tDSDNdKVtDSDJdW0NASF0oW0NASF0yW0NIM10pTihbQ0gyXVtDSDJdMylDKD1PKVtDQEhdKFtDSF00NSlbQ0BAXShbQ0gzXSkoW09IXSlbQ0gyXVtDSF0oW0NIMl1bQ0gyXTQpTjVbQ0gzXQ==

>  <s_epik_cmdline>  (50) 
J2VwaWtfcHl0aG9uJywgJy1waHQnLCAnMi4wJywgJy1waCcsICc3LjAnLCAnLXRuJywgJzgnLCAnLW1hJywgJzIwMCcsICctaW1hZScsICc8aW5maWxlLm1hZT4nLCAnLW9tYWUnLCAnPG91dGZpbGUubWFlPic=

>  <r_lp_tautomer_probability>  (50) 
1

>  <r_epik_Ionization_Penalty>  (50) 
0.00122272

>  <r_epik_Ionization_Penalty_Charging>  (50) 
0.00100947

>  <r_epik_Ionization_Penalty_Neutral>  (50) 
0.000213251

>  <r_epik_State_Penalty>  (50) 
0.00065846

>  <r_epik_Charging_Adjusted_Penalty>  (50) 
0.00166793

>  <i_epik_Tot_Q>  (50) 
1

>  <i_epik_Tot_abs_Q>  (50) 
1

>  <s_lp_Force_Field>  (50) 
OPLS3e

>  <r_lp_Energy>  (50) 
74.3398

>  <b_lp_Chiralities_Consistent>  (50) 
1

>  <s_lp_Variant>  (50) 
13:0-1

>  <s_i_glide_gridfile>  (50) 
pfpi4k_grid

>  <i_i_glide_lignum>  (50) 
22

>  <i_i_glide_rotatable_bonds>  (50) 
4

>  <r_i_docking_score>  (50) 
-4.4773

>  <r_i_glide_ligand_efficiency>  (50) 
-0.15439

>  <r_i_glide_ligand_efficiency_sa>  (50) 
-0.474334

>  <r_i_glide_ligand_efficiency_ln>  (50) 
-1.02519

>  <r_i_glide_gscore>  (50) 
-4.4773

>  <r_i_glide_lipo>  (50) 
-0.436427

>  <r_i_glide_hbond>  (50) 
-0.636795

>  <r_i_glide_metal>  (50) 
-0

>  <r_i_glide_rewards>  (50) 
-0.684912

>  <r_i_glide_evdw>  (50) 
-21.0561

>  <r_i_glide_ecoul>  (50) 
-12.6124

>  <r_i_glide_erotb>  (50) 
0.245501

>  <r_i_glide_esite>  (50) 
-0.019992

>  <r_i_glide_emodel>  (50) 
-44.1772

>  <r_i_glide_energy>  (50) 
-33.6686

>  <r_i_glide_einternal>  (50) 
2.60801

>  <r_i_glide_intrahb_reward>  (50) 
-0

>  <i_i_glide_confnum>  (50) 
4

>  <i_i_glide_posenum>  (50) 
36

>  <r_i_glide_eff_state_penalty>  (50) 
0

>  <ligand_id>  (50) 
13

>  <original_smiles>  (50) 
CC1C2Cc3ccc(O)cc3C1(C)CCN2C(=O)C1C2CCC(CC1(C)O)N2C

>  <smiles>  (50) 
[H]Oc1c([H])c([H])c2c(c1[H])C1(C([H])([H])[H])C([H])([H])C([H])([H])N(C(=O)C3([H])C(O[H])(C([H])([H])[H])C([H])([H])C4([H])C([H])([H])C([H])([H])C3([H])[N+]4([H])C([H])([H])[H])C([H])(C2([H])[H])C1([H])C([H])([H])[H]

$$$$
13:0:1
     RDKit          3D

 64 68  0  0  1  0  0  0  0  0999 V2000
    2.8023   -4.3371    7.2657 C   0  0  0  0  0  0  0  0  0  0  0  0
    2.6494   -3.5245    5.9510 C   0  0  2  0  0  0  0  0  0  0  0  0
    1.5170   -4.0805    5.0877 C   0  0  1  0  0  0  0  0  0  0  0  0
    1.0831   -3.0842    4.0085 C   0  0  0  0  0  0  0  0  0  0  0  0
    2.2588   -2.3671    3.3552 C   0  0  0  0  0  0  0  0  0  0  0  0
    1.9607   -1.5600    2.2300 C   0  0  0  0  0  0  0  0  0  0  0  0
    3.0112   -0.9127    1.5481 C   0  0  0  0  0  0  0  0  0  0  0  0
    4.3233   -1.0651    1.9796 C   0  0  0  0  0  0  0  0  0  0  0  0
    5.3431   -0.4474    1.3056 O   0  0  0  0  0  0  0  0  0  0  0  0
    4.6231   -1.8548    3.1111 C   0  0  0  0  0  0  0  0  0  0  0  0
    3.5738   -2.5000    3.8272 C   0  0  0  0  0  0  0  0  0  0  0  0
    3.9187   -3.3937    5.0507 C   0  0  1  0  0  0  0  0  0  0  0  0
    5.1028   -2.8416    5.8695 C   0  0  0  0  0  0  0  0  0  0  0  0
    4.2950   -4.8137    4.5489 C   0  0  0  0  0  0  0  0  0  0  0  0
    3.1678   -5.4886    3.7547 C   0  0  0  0  0  0  0  0  0  0  0  0
    1.8754   -5.4060    4.4761 N   0  0  0  0  0  0  0  0  0  0  0  0
    0.9099   -6.3332    4.3289 C   0  0  0  0  0  0  0  0  0  0  0  0
   -0.2865   -6.0457    4.4605 O   0  0  0  0  0  0  0  0  0  0  0  0
    1.2777   -7.8071    3.9721 C   0  0  2  0  0  0  0  0  0  0  0  0
    0.9302   -8.1217    2.4861 C   0  0  2  0  0  0  0  0  0  0  0  0
   -0.5877   -8.2688    2.2366 C   0  0  0  0  0  0  0  0  0  0  0  0
   -0.8525   -9.7670    2.5062 C   0  0  0  0  0  0  0  0  0  0  0  0
    0.5228  -10.3710    2.8607 C   0  0  2  0  0  0  0  0  0  0  0  0
    0.8436  -10.3051    4.3815 C   0  0  0  0  0  0  0  0  0  0  0  0
    0.7143   -8.8693    4.9813 C   0  0  1  0  0  0  0  0  0  0  0  0
    1.4519   -8.7829    6.3301 C   0  0  0  0  0  0  0  0  0  0  0  0
   -0.6659   -8.6822    5.3172 O   0  0  0  0  0  0  0  0  0  0  0  0
    1.4200   -9.4670    2.1356 N   0  0  2  0  0  0  0  0  0  0  0  0
    2.8817   -9.7332    2.1487 C   0  0  0  0  0  0  0  0  0  0  0  0
    3.0582   -5.3800    7.0916 H   0  0  0  0  0  0  0  0  0  0  0  0
    1.8664   -4.3327    7.8248 H   0  0  0  0  0  0  0  0  0  0  0  0
    3.5522   -3.9079    7.9288 H   0  0  0  0  0  0  0  0  0  0  0  0
    2.3619   -2.5164    6.2648 H   0  0  0  0  0  0  0  0  0  0  0  0
    0.6653   -4.2334    5.7518 H   0  0  0  0  0  0  0  0  0  0  0  0
    0.4809   -3.5920    3.2488 H   0  0  0  0  0  0  0  0  0  0  0  0
    0.4483   -2.3363    4.4619 H   0  0  0  0  0  0  0  0  0  0  0  0
    0.9562   -1.4547    1.8730 H   0  0  0  0  0  0  0  0  0  0  0  0
    2.7682   -0.3242    0.6751 H   0  0  0  0  0  0  0  0  0  0  0  0
    5.0338    0.0648    0.5722 H   0  0  0  0  0  0  0  0  0  0  0  0
    5.6457   -1.9684    3.3960 H   0  0  0  0  0  0  0  0  0  0  0  0
    5.3275   -3.4678    6.7314 H   0  0  0  0  0  0  0  0  0  0  0  0
    4.9020   -1.8307    6.2178 H   0  0  0  0  0  0  0  0  0  0  0  0
    6.0187   -2.8366    5.2846 H   0  0  0  0  0  0  0  0  0  0  0  0
    5.1874   -4.7675    3.9298 H   0  0  0  0  0  0  0  0  0  0  0  0
    4.5493   -5.4476    5.3992 H   0  0  0  0  0  0  0  0  0  0  0  0
    3.0321   -4.9781    2.7949 H   0  0  0  0  0  0  0  0  0  0  0  0
    3.4771   -6.4965    3.5298 H   0  0  0  0  0  0  0  0  0  0  0  0
    2.3328   -7.8920    4.0638 H   0  0  0  0  0  0  0  0  0  0  0  0
    1.3725   -7.3927    1.8036 H   0  0  0  0  0  0  0  0  0  0  0  0
   -1.1866   -7.6390    2.8944 H   0  0  0  0  0  0  0  0  0  0  0  0
   -0.8420   -8.0158    1.2018 H   0  0  0  0  0  0  0  0  0  0  0  0
   -1.5856   -9.8781    3.2966 H   0  0  0  0  0  0  0  0  0  0  0  0
   -1.2946  -10.2558    1.6385 H   0  0  0  0  0  0  0  0  0  0  0  0
    0.6108  -11.3961    2.4836 H   0  0  0  0  0  0  0  0  0  0  0  0
    0.2131  -11.0122    4.9165 H   0  0  0  0  0  0  0  0  0  0  0  0
    1.8461  -10.6988    4.5374 H   0  0  0  0  0  0  0  0  0  0  0  0
    2.5254   -8.9716    6.2354 H   0  0  0  0  0  0  0  0  0  0  0  0
    1.0583   -9.5079    7.0416 H   0  0  0  0  0  0  0  0  0  0  0  0
    1.3401   -7.7913    6.7732 H   0  0  0  0  0  0  0  0  0  0  0  0
   -1.0895   -9.5314    5.2786 H   0  0  0  0  0  0  0  0  0  0  0  0
    3.3303   -9.7302    3.1502 H   0  0  0  0  0  0  0  0  0  0  0  0
    3.4410   -9.0063    1.5498 H   0  0  0  0  0  0  0  0  0  0  0  0
    3.1024  -10.7141    1.7211 H   0  0  0  0  0  0  0  0  0  0  0  0
    1.1302   -9.5917    1.1587 H   0  0  0  0  0  0  0  0  0  0  0  0
  1  2  1  0
  1 30  1  0
  1 31  1  0
  1 32  1  0
  2 12  1  0
  2  3  1  0
  2 33  1  1
  3 16  1  0
  3  4  1  0
  3 34  1  1
  4  5  1  0
  4 35  1  0
  4 36  1  0
  5 11  2  0
  5  6  1  0
  6  7  2  0
  6 37  1  0
  7  8  1  0
  7 38  1  0
  8  9  1  0
  8 10  2  0
  9 39  1  0
 10 11  1  0
 10 40  1  0
 11 12  1  0
 12 13  1  1
 12 14  1  0
 13 41  1  0
 13 42  1  0
 13 43  1  0
 14 15  1  0
 14 44  1  0
 14 45  1  0
 15 16  1  0
 15 46  1  0
 15 47  1  0
 16 17  1  0
 17 18  2  0
 17 19  1  0
 19 25  1  0
 19 20  1  0
 19 48  1  6
 20 28  1  0
 20 21  1  0
 20 49  1  6
 21 22  1  0
 21 50  1  0
 21 51  1  0
 22 23  1  0
 22 52  1  0
 22 53  1  0
 23 24  1  0
 23 28  1  0
 23 54  1  6
 24 25  1  0
 24 55  1  0
 24 56  1  0
 25 26  1  0
 25 27  1  1
 26 57  1  0
 26 58  1  0
 26 59  1  0
 27 60  1  0
 28 29  1  0
 28 64  1  6
 29 61  1  0
 29 62  1  0
 29 63  1  0
M  CHG  1  28   1
M  END
>  <i_m_ct_stereo_status>  (51) 
1

>  <s_m_source_file>  (51) 
/var/tmp/pbs.5076255.sched01/tmpkni74bsw/0nq93mkxh.sdf

>  <i_m_source_file_index>  (51) 
22

>  <i_lp_mmshare_version>  (51) 
48012

>  <i_f3d_flags>  (51) 
0

>  <s_epik_input>  (51) 
W09IXWMoW2NIXTEpW2NIXVtjSF1jKGMxW0NAQF0yM1tDSDNdKVtDSDJdW0NASF0oW0NASF0yW0NIM10pTihbQ0gyXVtDSDJdMylDKD1PKVtDQEhdKFtDSF00NSlbQ0BAXShbQ0gzXSkoW09IXSlbQ0gyXVtDSF0oW0NIMl1bQ0gyXTQpTjVbQ0gzXQ==

>  <s_epik_cmdline>  (51) 
J2VwaWtfcHl0aG9uJywgJy1waHQnLCAnMi4wJywgJy1waCcsICc3LjAnLCAnLXRuJywgJzgnLCAnLW1hJywgJzIwMCcsICctaW1hZScsICc8aW5maWxlLm1hZT4nLCAnLW9tYWUnLCAnPG91dGZpbGUubWFlPic=

>  <r_lp_tautomer_probability>  (51) 
1

>  <r_epik_Ionization_Penalty>  (51) 
0.00122272

>  <r_epik_Ionization_Penalty_Charging>  (51) 
0.00100947

>  <r_epik_Ionization_Penalty_Neutral>  (51) 
0.000213251

>  <r_epik_State_Penalty>  (51) 
0.00065846

>  <r_epik_Charging_Adjusted_Penalty>  (51) 
0.00166793

>  <i_epik_Tot_Q>  (51) 
1

>  <i_epik_Tot_abs_Q>  (51) 
1

>  <s_lp_Force_Field>  (51) 
OPLS3e

>  <r_lp_Energy>  (51) 
74.3398

>  <b_lp_Chiralities_Consistent>  (51) 
1

>  <s_lp_Variant>  (51) 
13:0-1

>  <s_i_glide_gridfile>  (51) 
pfpi4k_grid

>  <i_i_glide_lignum>  (51) 
22

>  <i_i_glide_rotatable_bonds>  (51) 
4

>  <r_i_docking_score>  (51) 
-3.44804

>  <r_i_glide_ligand_efficiency>  (51) 
-0.118898

>  <r_i_glide_ligand_efficiency_sa>  (51) 
-0.365292

>  <r_i_glide_ligand_efficiency_ln>  (51) 
-0.789514

>  <r_i_glide_gscore>  (51) 
-3.44804

>  <r_i_glide_lipo>  (51) 
-0.337146

>  <r_i_glide_hbond>  (51) 
-0.0406871

>  <r_i_glide_metal>  (51) 
-0

>  <r_i_glide_rewards>  (51) 
-0.684912

>  <r_i_glide_evdw>  (51) 
-21.9721

>  <r_i_glide_ecoul>  (51) 
-10.1267

>  <r_i_glide_erotb>  (51) 
0.245501

>  <r_i_glide_esite>  (51) 
-0.0131841

>  <r_i_glide_emodel>  (51) 
-39.4799

>  <r_i_glide_energy>  (51) 
-32.0988

>  <r_i_glide_einternal>  (51) 
3.20016

>  <r_i_glide_intrahb_reward>  (51) 
-0

>  <i_i_glide_confnum>  (51) 
2

>  <i_i_glide_posenum>  (51) 
8

>  <r_i_glide_eff_state_penalty>  (51) 
0

>  <ligand_id>  (51) 
13

>  <original_smiles>  (51) 
CC1C2Cc3ccc(O)cc3C1(C)CCN2C(=O)C1C2CCC(CC1(C)O)N2C

>  <smiles>  (51) 
[H]Oc1c([H])c([H])c2c(c1[H])C1(C([H])([H])[H])C([H])([H])C([H])([H])N(C(=O)C3([H])C(O[H])(C([H])([H])[H])C([H])([H])C4([H])C([H])([H])C([H])([H])C3([H])[N+]4([H])C([H])([H])[H])C([H])(C2([H])[H])C1([H])C([H])([H])[H]

$$$$
13:0:2
     RDKit          3D

 64 68  0  0  1  0  0  0  0  0999 V2000
    2.4325   -4.2247    7.2175 C   0  0  0  0  0  0  0  0  0  0  0  0
    2.4717   -3.5180    5.8360 C   0  0  2  0  0  0  0  0  0  0  0  0
    1.4528   -4.1312    4.8697 C   0  0  1  0  0  0  0  0  0  0  0  0
    1.1928   -3.2121    3.6773 C   0  0  0  0  0  0  0  0  0  0  0  0
    2.4438   -2.5530    3.1264 C   0  0  0  0  0  0  0  0  0  0  0  0
    2.3354   -1.8366    1.9249 C   0  0  0  0  0  0  0  0  0  0  0  0
    3.4594   -1.2451    1.3416 C   0  0  0  0  0  0  0  0  0  0  0  0
    4.7144   -1.3633    1.9726 C   0  0  0  0  0  0  0  0  0  0  0  0
    5.8081   -0.7881    1.4024 O   0  0  0  0  0  0  0  0  0  0  0  0
    4.8236   -2.0678    3.1809 C   0  0  0  0  0  0  0  0  0  0  0  0
    3.7016   -2.6564    3.7974 C   0  0  0  0  0  0  0  0  0  0  0  0
    3.8526   -3.4539    5.1130 C   0  0  1  0  0  0  0  0  0  0  0  0
    4.9237   -2.8440    6.0456 C   0  0  0  0  0  0  0  0  0  0  0  0
    4.2768   -4.9053    4.7802 C   0  0  0  0  0  0  0  0  0  0  0  0
    3.2642   -5.6406    3.8820 C   0  0  0  0  0  0  0  0  0  0  0  0
    1.8775   -5.4968    4.4122 N   0  0  0  0  0  0  0  0  0  0  0  0
    0.9492   -6.4518    4.1986 C   0  0  0  0  0  0  0  0  0  0  0  0
   -0.2683   -6.1851    4.1604 O   0  0  0  0  0  0  0  0  0  0  0  0
    1.3576   -7.9349    3.9731 C   0  0  2  0  0  0  0  0  0  0  0  0
    1.1244   -8.3473    2.4844 C   0  0  2  0  0  0  0  0  0  0  0  0
   -0.3704   -8.5133    2.1439 C   0  0  0  0  0  0  0  0  0  0  0  0
   -0.6504   -9.9983    2.4792 C   0  0  0  0  0  0  0  0  0  0  0  0
    0.6937  -10.5635    2.9776 C   0  0  2  0  0  0  0  0  0  0  0  0
    0.8857  -10.3888    4.5133 C   0  0  0  0  0  0  0  0  0  0  0  0
    0.7033   -8.9227    4.9998 C   0  0  1  0  0  0  0  0  0  0  0  0
    1.3094   -8.7316    6.3995 C   0  0  0  0  0  0  0  0  0  0  0  0
   -0.6936   -8.6977    5.1935 O   0  0  0  0  0  0  0  0  0  0  0  0
    1.6400   -9.7102    2.2389 N   0  0  2  0  0  0  0  0  0  0  0  0
    3.0967   -9.9723    2.4283 C   0  0  0  0  0  0  0  0  0  0  0  0
    2.6974   -5.2782    7.1586 H   0  0  0  0  0  0  0  0  0  0  0  0
    1.4289   -4.1752    7.6393 H   0  0  0  0  0  0  0  0  0  0  0  0
    3.0898   -3.7473    7.9428 H   0  0  0  0  0  0  0  0  0  0  0  0
    2.1583   -2.4843    6.0317 H   0  0  0  0  0  0  0  0  0  0  0  0
    0.5207   -4.2333    5.4164 H   0  0  0  0  0  0  0  0  0  0  0  0
    0.6906   -3.7835    2.8843 H   0  0  0  0  0  0  0  0  0  0  0  0
    0.5005   -2.4372    3.9712 H   0  0  0  0  0  0  0  0  0  0  0  0
    1.3806   -1.7497    1.4202 H   0  0  0  0  0  0  0  0  0  0  0  0
    3.3690   -0.7163    0.4126 H   0  0  0  0  0  0  0  0  0  0  0  0
    6.5893   -0.8296    1.9422 H   0  0  0  0  0  0  0  0  0  0  0  0
    5.8070   -2.1644    3.6242 H   0  0  0  0  0  0  0  0  0  0  0  0
    5.0197   -3.4018    6.9740 H   0  0  0  0  0  0  0  0  0  0  0  0
    4.6883   -1.8090    6.2866 H   0  0  0  0  0  0  0  0  0  0  0  0
    5.9125   -2.8811    5.5967 H   0  0  0  0  0  0  0  0  0  0  0  0
    5.2432   -4.9135    4.2836 H   0  0  0  0  0  0  0  0  0  0  0  0
    4.4031   -5.4793    5.6976 H   0  0  0  0  0  0  0  0  0  0  0  0
    3.2677   -5.2070    2.8793 H   0  0  0  0  0  0  0  0  0  0  0  0
    3.5795   -6.6686    3.7923 H   0  0  0  0  0  0  0  0  0  0  0  0
    2.4096   -7.9910    4.1640 H   0  0  0  0  0  0  0  0  0  0  0  0
    1.6183   -7.6522    1.8002 H   0  0  0  0  0  0  0  0  0  0  0  0
   -1.0176   -7.8467    2.7244 H   0  0  0  0  0  0  0  0  0  0  0  0
   -0.5610   -8.2819    1.0936 H   0  0  0  0  0  0  0  0  0  0  0  0
   -1.4314  -10.0945    3.2433 H   0  0  0  0  0  0  0  0  0  0  0  0
   -1.0064  -10.5486    1.6074 H   0  0  0  0  0  0  0  0  0  0  0  0
    0.8069  -11.6141    2.6912 H   0  0  0  0  0  0  0  0  0  0  0  0
    0.2150  -11.0593    5.0464 H   0  0  0  0  0  0  0  0  0  0  0  0
    1.8712  -10.7615    4.7864 H   0  0  0  0  0  0  0  0  0  0  0  0
    2.3872   -8.9202    6.4190 H   0  0  0  0  0  0  0  0  0  0  0  0
    0.8512   -9.4085    7.1249 H   0  0  0  0  0  0  0  0  0  0  0  0
    1.1562   -7.7124    6.7653 H   0  0  0  0  0  0  0  0  0  0  0  0
   -1.1218   -9.5442    5.2847 H   0  0  0  0  0  0  0  0  0  0  0  0
    3.4383   -9.8873    3.4673 H   0  0  0  0  0  0  0  0  0  0  0  0
    3.7022   -9.2794    1.8370 H   0  0  0  0  0  0  0  0  0  0  0  0
    3.3519  -10.9856    2.1012 H   0  0  0  0  0  0  0  0  0  0  0  0
    1.4531   -9.8949    1.2599 H   0  0  0  0  0  0  0  0  0  0  0  0
  1  2  1  0
  1 30  1  0
  1 31  1  0
  1 32  1  0
  2 12  1  0
  2  3  1  0
  2 33  1  1
  3 16  1  0
  3  4  1  0
  3 34  1  1
  4  5  1  0
  4 35  1  0
  4 36  1  0
  5 11  2  0
  5  6  1  0
  6  7  2  0
  6 37  1  0
  7  8  1  0
  7 38  1  0
  8  9  1  0
  8 10  2  0
  9 39  1  0
 10 11  1  0
 10 40  1  0
 11 12  1  0
 12 13  1  1
 12 14  1  0
 13 41  1  0
 13 42  1  0
 13 43  1  0
 14 15  1  0
 14 44  1  0
 14 45  1  0
 15 16  1  0
 15 46  1  0
 15 47  1  0
 16 17  1  0
 17 18  2  0
 17 19  1  0
 19 25  1  0
 19 20  1  0
 19 48  1  1
 20 28  1  0
 20 21  1  0
 20 49  1  6
 21 22  1  0
 21 50  1  0
 21 51  1  0
 22 23  1  0
 22 52  1  0
 22 53  1  0
 23 24  1  0
 23 28  1  0
 23 54  1  1
 24 25  1  0
 24 55  1  0
 24 56  1  0
 25 26  1  0
 25 27  1  1
 26 57  1  0
 26 58  1  0
 26 59  1  0
 27 60  1  0
 28 29  1  0
 28 64  1  6
 29 61  1  0
 29 62  1  0
 29 63  1  0
M  CHG  1  28   1
M  END
>  <i_m_ct_stereo_status>  (52) 
1

>  <s_m_source_file>  (52) 
/var/tmp/pbs.5076255.sched01/tmpkni74bsw/0nq93mkxh.sdf

>  <i_m_source_file_index>  (52) 
22

>  <i_lp_mmshare_version>  (52) 
48012

>  <i_f3d_flags>  (52) 
0

>  <s_epik_input>  (52) 
W09IXWMoW2NIXTEpW2NIXVtjSF1jKGMxW0NAQF0yM1tDSDNdKVtDSDJdW0NASF0oW0NASF0yW0NIM10pTihbQ0gyXVtDSDJdMylDKD1PKVtDQEhdKFtDSF00NSlbQ0BAXShbQ0gzXSkoW09IXSlbQ0gyXVtDSF0oW0NIMl1bQ0gyXTQpTjVbQ0gzXQ==

>  <s_epik_cmdline>  (52) 
J2VwaWtfcHl0aG9uJywgJy1waHQnLCAnMi4wJywgJy1waCcsICc3LjAnLCAnLXRuJywgJzgnLCAnLW1hJywgJzIwMCcsICctaW1hZScsICc8aW5maWxlLm1hZT4nLCAnLW9tYWUnLCAnPG91dGZpbGUubWFlPic=

>  <r_lp_tautomer_probability>  (52) 
1

>  <r_epik_Ionization_Penalty>  (52) 
0.00122272

>  <r_epik_Ionization_Penalty_Charging>  (52) 
0.00100947

>  <r_epik_Ionization_Penalty_Neutral>  (52) 
0.000213251

>  <r_epik_State_Penalty>  (52) 
0.00065846

>  <r_epik_Charging_Adjusted_Penalty>  (52) 
0.00166793

>  <i_epik_Tot_Q>  (52) 
1

>  <i_epik_Tot_abs_Q>  (52) 
1

>  <s_lp_Force_Field>  (52) 
OPLS3e

>  <r_lp_Energy>  (52) 
74.3398

>  <b_lp_Chiralities_Consistent>  (52) 
1

>  <s_lp_Variant>  (52) 
13:0-1

>  <s_i_glide_gridfile>  (52) 
pfpi4k_grid

>  <i_i_glide_lignum>  (52) 
22

>  <i_i_glide_rotatable_bonds>  (52) 
4

>  <r_i_docking_score>  (52) 
-3.25201

>  <r_i_glide_ligand_efficiency>  (52) 
-0.112138

>  <r_i_glide_ligand_efficiency_sa>  (52) 
-0.344524

>  <r_i_glide_ligand_efficiency_ln>  (52) 
-0.744628

>  <r_i_glide_gscore>  (52) 
-3.25201

>  <r_i_glide_lipo>  (52) 
-0.327221

>  <r_i_glide_hbond>  (52) 
-0.0182678

>  <r_i_glide_metal>  (52) 
-0

>  <r_i_glide_rewards>  (52) 
-0.684912

>  <r_i_glide_evdw>  (52) 
-20.2561

>  <r_i_glide_ecoul>  (52) 
-9.59506

>  <r_i_glide_erotb>  (52) 
0.245501

>  <r_i_glide_esite>  (52) 
-0.0150446

>  <r_i_glide_emodel>  (52) 
-36.7129

>  <r_i_glide_energy>  (52) 
-29.8512

>  <r_i_glide_einternal>  (52) 
2.93986

>  <r_i_glide_intrahb_reward>  (52) 
-0

>  <i_i_glide_confnum>  (52) 
2

>  <i_i_glide_posenum>  (52) 
2

>  <r_i_glide_eff_state_penalty>  (52) 
0

>  <ligand_id>  (52) 
13

>  <original_smiles>  (52) 
CC1C2Cc3ccc(O)cc3C1(C)CCN2C(=O)C1C2CCC(CC1(C)O)N2C

>  <smiles>  (52) 
[H]Oc1c([H])c([H])c2c(c1[H])C1(C([H])([H])[H])C([H])([H])C([H])([H])N(C(=O)C3([H])C(O[H])(C([H])([H])[H])C([H])([H])C4([H])C([H])([H])C([H])([H])C3([H])[N+]4([H])C([H])([H])[H])C([H])(C2([H])[H])C1([H])C([H])([H])[H]

$$$$
14:0:0
     RDKit          3D

 42 49  0  0  1  0  0  0  0  0999 V2000
   -5.0571   -4.2511   -5.5099 O   0  0  0  0  0  0  0  0  0  0  0  0
   -6.1634   -4.1249   -4.6486 C   0  0  0  0  0  0  0  0  0  0  0  0
   -7.2566   -5.1496   -4.9832 C   0  0  2  0  0  0  0  0  0  0  0  0
   -6.6812   -6.6174   -5.0603 C   0  0  0  0  0  0  0  0  0  0  0  0
   -7.4330   -7.4772   -6.0279 N   0  0  2  0  0  0  0  0  0  0  0  0
   -6.6568   -8.1116   -7.1746 C   0  0  1  0  0  0  0  0  0  0  0  0
   -6.5999   -9.5566   -7.5876 C   0  0  0  0  0  0  0  0  0  0  0  0
   -7.7434   -8.7540   -8.1144 C   0  0  2  0  0  0  0  0  0  0  0  0
   -8.0908   -7.9961   -9.4294 C   0  0  1  0  0  0  0  0  0  0  0  0
   -9.4586   -7.2989   -9.6555 C   0  0  1  0  0  0  0  0  0  0  0  0
  -10.5534   -6.5288   -8.7876 C   0  0  2  0  0  0  0  0  0  0  0  0
  -10.5875   -5.3897   -9.6588 O   0  0  0  0  0  0  0  0  0  0  0  0
   -9.6582   -4.7607   -8.7107 C   0  0  1  0  0  0  0  0  0  0  0  0
  -10.3477   -5.4750   -7.6150 C   0  0  2  0  0  0  0  0  0  0  0  0
   -9.3768   -5.5727   -6.3963 C   0  0  2  0  0  0  0  0  0  0  0  0
   -8.0841   -4.7794   -6.2507 C   0  0  2  0  0  0  0  0  0  0  0  0
   -7.6910   -5.5638   -7.5131 C   0  0  2  0  0  0  0  0  0  0  0  0
   -8.2111   -5.2313   -8.9054 C   0  0  1  0  0  0  0  0  0  0  0  0
   -8.1624   -6.4906   -9.7830 C   0  0  1  0  0  0  0  0  0  0  0  0
   -8.4390   -6.6967   -6.7616 C   0  0  1  0  0  0  0  0  0  0  0  0
   -4.4162   -3.6144   -5.2202 H   0  0  0  0  0  0  0  0  0  0  0  0
   -5.8238   -4.2445   -3.6220 H   0  0  0  0  0  0  0  0  0  0  0  0
   -6.5532   -3.1157   -4.7165 H   0  0  0  0  0  0  0  0  0  0  0  0
   -7.9429   -5.1052   -4.1377 H   0  0  0  0  0  0  0  0  0  0  0  0
   -5.6357   -6.6364   -5.3685 H   0  0  0  0  0  0  0  0  0  0  0  0
   -6.6968   -7.0776   -4.0694 H   0  0  0  0  0  0  0  0  0  0  0  0
   -5.8333   -7.5352   -7.5962 H   0  0  0  0  0  0  0  0  0  0  0  0
   -5.8257   -9.8074   -8.3083 H   0  0  0  0  0  0  0  0  0  0  0  0
   -6.8437  -10.3257   -6.8590 H   0  0  0  0  0  0  0  0  0  0  0  0
   -8.6276   -9.2688   -7.7253 H   0  0  0  0  0  0  0  0  0  0  0  0
   -7.8019   -8.5697  -10.2960 H   0  0  0  0  0  0  0  0  0  0  0  0
   -9.9072   -7.5706  -10.6124 H   0  0  0  0  0  0  0  0  0  0  0  0
  -11.5429   -7.0151   -8.7206 H   0  0  0  0  0  0  0  0  0  0  0  0
   -9.7893   -3.6981   -8.4929 H   0  0  0  0  0  0  0  0  0  0  0  0
  -11.2575   -4.9305   -7.3838 H   0  0  0  0  0  0  0  0  0  0  0  0
   -9.9198   -5.5387   -5.4940 H   0  0  0  0  0  0  0  0  0  0  0  0
   -8.2589   -3.7182   -6.3971 H   0  0  0  0  0  0  0  0  0  0  0  0
   -6.6053   -5.6852   -7.4914 H   0  0  0  0  0  0  0  0  0  0  0  0
   -7.6302   -4.4359   -9.3909 H   0  0  0  0  0  0  0  0  0  0  0  0
   -7.8786   -6.2425  -10.8086 H   0  0  0  0  0  0  0  0  0  0  0  0
   -9.1890   -7.3767   -7.1196 H   0  0  0  0  0  0  0  0  0  0  0  0
   -7.9417   -8.1949   -5.5384 H   0  0  0  0  0  0  0  0  0  0  0  0
  1  2  1  0
  1 21  1  0
  2  3  1  0
  2 22  1  0
  2 23  1  0
  3 16  1  0
  3  4  1  0
  3 24  1  1
  4  5  1  0
  4 25  1  0
  4 26  1  0
  5 20  1  0
  5  6  1  0
  5 42  1  1
  6  8  1  0
  6  7  1  0
  6 27  1  6
  7  8  1  0
  7 28  1  0
  7 29  1  0
  8  9  1  0
  8 30  1  1
  9 19  1  0
  9 10  1  0
  9 31  1  6
 10 19  1  0
 10 11  1  0
 10 32  1  6
 11 14  1  0
 11 12  1  0
 11 33  1  1
 12 13  1  0
 13 18  1  0
 13 14  1  0
 13 34  1  1
 14 15  1  0
 14 35  1  1
 15 20  1  0
 15 16  1  0
 15 36  1  1
 16 17  1  0
 16 37  1  6
 17 18  1  0
 17 20  1  0
 17 38  1  6
 18 19  1  0
 18 39  1  6
 19 40  1  6
 20 41  1  6
M  CHG  1   5   1
M  END
>  <i_m_ct_stereo_status>  (53) 
1

>  <s_m_source_file>  (53) 
/var/tmp/pbs.5076255.sched01/tmpkni74bsw/0nq93mkxh.sdf

>  <i_m_source_file_index>  (53) 
24

>  <i_lp_mmshare_version>  (53) 
48012

>  <i_f3d_flags>  (53) 
0

>  <s_epik_input>  (53) 
W09IXVtDSDJdW0NASF0oW0NIMl0xKVtDQEhdKFtDQEBIXTJbQ0BIXTM0KVtDQEBIXTRbQ0BASF0oW0NAQEhdNTYpW0NAQEhdKE83KVtDQEhdMltDQEBIXTdbQ0BASF02W0NAQEhdNVtDQEhdKFtDQEhdOE4xMylbQ0gyXTg=

>  <s_epik_cmdline>  (53) 
J2VwaWtfcHl0aG9uJywgJy1waHQnLCAnMi4wJywgJy1waCcsICc3LjAnLCAnLXRuJywgJzgnLCAnLW1hJywgJzIwMCcsICctaW1hZScsICc8aW5maWxlLm1hZT4nLCAnLW9tYWUnLCAnPG91dGZpbGUubWFlPic=

>  <r_epik_Ionization_Penalty>  (53) 
0.011875

>  <r_epik_Ionization_Penalty_Charging>  (53) 
0.011875

>  <r_epik_Ionization_Penalty_Neutral>  (53) 
7.66638e-08

>  <r_epik_State_Penalty>  (53) 
0.00916255

>  <r_epik_Charging_Adjusted_Penalty>  (53) 
0.0210375

>  <i_epik_Tot_Q>  (53) 
1

>  <i_epik_Tot_abs_Q>  (53) 
1

>  <s_lp_Force_Field>  (53) 
OPLS3e

>  <r_lp_Energy>  (53) 
176.489

>  <b_lp_Chiralities_Consistent>  (53) 
1

>  <s_lp_Variant>  (53) 
14:0-1

>  <s_i_glide_gridfile>  (53) 
pfpi4k_grid

>  <i_i_glide_lignum>  (53) 
24

>  <i_i_glide_rotatable_bonds>  (53) 
2

>  <r_i_docking_score>  (53) 
-6.24287

>  <r_i_glide_ligand_efficiency>  (53) 
-0.312144

>  <r_i_glide_ligand_efficiency_sa>  (53) 
-0.847288

>  <r_i_glide_ligand_efficiency_ln>  (53) 
-1.56238

>  <r_i_glide_gscore>  (53) 
-6.24287

>  <r_i_glide_lipo>  (53) 
-2.65109

>  <r_i_glide_hbond>  (53) 
-0.371878

>  <r_i_glide_metal>  (53) 
-0

>  <r_i_glide_rewards>  (53) 
-2.40811

>  <r_i_glide_evdw>  (53) 
0.566625

>  <r_i_glide_ecoul>  (53) 
-5.60081

>  <r_i_glide_erotb>  (53) 
0

>  <r_i_glide_esite>  (53) 
0

>  <r_i_glide_emodel>  (53) 
-8.67004

>  <r_i_glide_energy>  (53) 
-5.03419

>  <r_i_glide_einternal>  (53) 
1.78399

>  <r_i_glide_intrahb_reward>  (53) 
-0

>  <i_i_glide_confnum>  (53) 
2

>  <i_i_glide_posenum>  (53) 
25

>  <r_i_glide_eff_state_penalty>  (53) 
0

>  <ligand_id>  (53) 
14

>  <original_smiles>  (53) 
OCC1CN2C3CC3C3C4C5OC6C5C5C1C(C6C34)C52

>  <smiles>  (53) 
[H]OC([H])([H])C1([H])C2([H])C3([H])C4([H])C5([H])OC4([H])C4([H])C6([H])C5([H])C6([H])C5([H])C([H])([H])C5([H])[N+]([H])(C1([H])[H])C3([H])C42[H]

$$$$
14:0:1
     RDKit          3D

 42 49  0  0  1  0  0  0  0  0999 V2000
   -6.6127   -4.7629   -3.3640 O   0  0  0  0  0  0  0  0  0  0  0  0
   -7.4721   -4.8403   -4.4331 C   0  0  0  0  0  0  0  0  0  0  0  0
   -6.7492   -5.4960   -5.6331 C   0  0  2  0  0  0  0  0  0  0  0  0
   -7.6808   -5.4646   -6.9023 C   0  0  0  0  0  0  0  0  0  0  0  0
   -7.4244   -6.5933   -7.8762 N   0  0  2  0  0  0  0  0  0  0  0  0
   -8.6306   -7.4860   -8.2000 C   0  0  1  0  0  0  0  0  0  0  0  0
   -9.1868   -7.8880   -9.5270 C   0  0  0  0  0  0  0  0  0  0  0  0
   -8.0402   -8.6988   -8.9958 C   0  0  2  0  0  0  0  0  0  0  0  0
   -7.8704  -10.0457   -8.2321 C   0  0  1  0  0  0  0  0  0  0  0  0
   -6.4821  -10.6484   -7.8563 C   0  0  1  0  0  0  0  0  0  0  0  0
   -5.0532  -10.1467   -7.3941 C   0  0  2  0  0  0  0  0  0  0  0  0
   -4.9479  -10.9944   -6.2407 O   0  0  0  0  0  0  0  0  0  0  0  0
   -5.4359   -9.8530   -5.4688 C   0  0  1  0  0  0  0  0  0  0  0  0
   -4.6764   -8.9461   -6.3974 C   0  0  2  0  0  0  0  0  0  0  0  0
   -5.2210   -7.4744   -6.4533 C   0  0  2  0  0  0  0  0  0  0  0  0
   -6.2198   -6.9459   -5.4043 C   0  0  2  0  0  0  0  0  0  0  0  0
   -7.0983   -8.0817   -5.9756 C   0  0  2  0  0  0  0  0  0  0  0  0
   -6.9590   -9.5649   -5.5870 C   0  0  1  0  0  0  0  0  0  0  0  0
   -7.5270  -10.3988   -6.7587 C   0  0  1  0  0  0  0  0  0  0  0  0
   -6.4653   -7.5712   -7.3188 C   0  0  1  0  0  0  0  0  0  0  0  0
   -6.0920   -3.9503   -3.3788 H   0  0  0  0  0  0  0  0  0  0  0  0
   -8.3694   -5.3729   -4.1391 H   0  0  0  0  0  0  0  0  0  0  0  0
   -7.8297   -3.8389   -4.6557 H   0  0  0  0  0  0  0  0  0  0  0  0
   -5.8897   -4.8472   -5.8490 H   0  0  0  0  0  0  0  0  0  0  0  0
   -8.7201   -5.5002   -6.5967 H   0  0  0  0  0  0  0  0  0  0  0  0
   -7.5669   -4.5090   -7.4060 H   0  0  0  0  0  0  0  0  0  0  0  0
   -9.3505   -7.6387   -7.4067 H   0  0  0  0  0  0  0  0  0  0  0  0
  -10.1624   -8.3663   -9.4813 H   0  0  0  0  0  0  0  0  0  0  0  0
   -9.0147   -7.2641  -10.4014 H   0  0  0  0  0  0  0  0  0  0  0  0
   -7.2746   -8.5898   -9.7621 H   0  0  0  0  0  0  0  0  0  0  0  0
   -8.5207  -10.8055   -8.6454 H   0  0  0  0  0  0  0  0  0  0  0  0
   -6.3997  -11.6824   -8.1811 H   0  0  0  0  0  0  0  0  0  0  0  0
   -4.2587  -10.3440   -8.1125 H   0  0  0  0  0  0  0  0  0  0  0  0
   -4.9827   -9.7436   -4.4918 H   0  0  0  0  0  0  0  0  0  0  0  0
   -3.6539   -8.9499   -6.0545 H   0  0  0  0  0  0  0  0  0  0  0  0
   -4.4140   -6.7954   -6.7267 H   0  0  0  0  0  0  0  0  0  0  0  0
   -5.8243   -7.1420   -4.4103 H   0  0  0  0  0  0  0  0  0  0  0  0
   -8.1110   -7.7206   -5.9044 H   0  0  0  0  0  0  0  0  0  0  0  0
   -7.4620   -9.8451   -4.6557 H   0  0  0  0  0  0  0  0  0  0  0  0
   -7.9860  -11.2982   -6.3882 H   0  0  0  0  0  0  0  0  0  0  0  0
   -6.0308   -8.1533   -8.1289 H   0  0  0  0  0  0  0  0  0  0  0  0
   -7.0236   -6.2283   -8.7204 H   0  0  0  0  0  0  0  0  0  0  0  0
  1  2  1  0
  1 21  1  0
  2  3  1  0
  2 22  1  0
  2 23  1  0
  3 16  1  0
  3  4  1  0
  3 24  1  6
  4  5  1  0
  4 25  1  0
  4 26  1  0
  5 20  1  0
  5  6  1  0
  5 42  1  6
  6  8  1  0
  6  7  1  0
  6 27  1  1
  7  8  1  0
  7 28  1  0
  7 29  1  0
  8  9  1  0
  8 30  1  6
  9 19  1  0
  9 10  1  0
  9 31  1  6
 10 19  1  0
 10 11  1  0
 10 32  1  6
 11 14  1  0
 11 12  1  0
 11 33  1  6
 12 13  1  0
 13 18  1  0
 13 14  1  0
 13 34  1  1
 14 15  1  0
 14 35  1  1
 15 20  1  0
 15 16  1  0
 15 36  1  6
 16 17  1  0
 16 37  1  1
 17 18  1  0
 17 20  1  0
 17 38  1  6
 18 19  1  0
 18 39  1  1
 19 40  1  1
 20 41  1  6
M  CHG  1   5   1
M  END
>  <i_m_ct_stereo_status>  (54) 
1

>  <s_m_source_file>  (54) 
/var/tmp/pbs.5076255.sched01/tmpkni74bsw/0nq93mkxh.sdf

>  <i_m_source_file_index>  (54) 
24

>  <i_lp_mmshare_version>  (54) 
48012

>  <i_f3d_flags>  (54) 
0

>  <s_epik_input>  (54) 
W09IXVtDSDJdW0NASF0oW0NIMl0xKVtDQEhdKFtDQEBIXTJbQ0BIXTM0KVtDQEBIXTRbQ0BASF0oW0NAQEhdNTYpW0NAQEhdKE83KVtDQEhdMltDQEBIXTdbQ0BASF02W0NAQEhdNVtDQEhdKFtDQEhdOE4xMylbQ0gyXTg=

>  <s_epik_cmdline>  (54) 
J2VwaWtfcHl0aG9uJywgJy1waHQnLCAnMi4wJywgJy1waCcsICc3LjAnLCAnLXRuJywgJzgnLCAnLW1hJywgJzIwMCcsICctaW1hZScsICc8aW5maWxlLm1hZT4nLCAnLW9tYWUnLCAnPG91dGZpbGUubWFlPic=

>  <r_epik_Ionization_Penalty>  (54) 
0.011875

>  <r_epik_Ionization_Penalty_Charging>  (54) 
0.011875

>  <r_epik_Ionization_Penalty_Neutral>  (54) 
7.66638e-08

>  <r_epik_State_Penalty>  (54) 
0.00916255

>  <r_epik_Charging_Adjusted_Penalty>  (54) 
0.0210375

>  <i_epik_Tot_Q>  (54) 
1

>  <i_epik_Tot_abs_Q>  (54) 
1

>  <s_lp_Force_Field>  (54) 
OPLS3e

>  <r_lp_Energy>  (54) 
176.489

>  <b_lp_Chiralities_Consistent>  (54) 
1

>  <s_lp_Variant>  (54) 
14:0-1

>  <s_i_glide_gridfile>  (54) 
pfpi4k_grid

>  <i_i_glide_lignum>  (54) 
24

>  <i_i_glide_rotatable_bonds>  (54) 
2

>  <r_i_docking_score>  (54) 
-5.4851

>  <r_i_glide_ligand_efficiency>  (54) 
-0.274255

>  <r_i_glide_ligand_efficiency_sa>  (54) 
-0.744442

>  <r_i_glide_ligand_efficiency_ln>  (54) 
-1.37274

>  <r_i_glide_gscore>  (54) 
-5.4851

>  <r_i_glide_lipo>  (54) 
-2.83196

>  <r_i_glide_hbond>  (54) 
0

>  <r_i_glide_metal>  (54) 
-0

>  <r_i_glide_rewards>  (54) 
-2.31809

>  <r_i_glide_evdw>  (54) 
-7.52381

>  <r_i_glide_ecoul>  (54) 
0.274281

>  <r_i_glide_erotb>  (54) 
0

>  <r_i_glide_esite>  (54) 
0

>  <r_i_glide_emodel>  (54) 
-10.4493

>  <r_i_glide_energy>  (54) 
-7.24953

>  <r_i_glide_einternal>  (54) 
0.378029

>  <r_i_glide_intrahb_reward>  (54) 
-0

>  <i_i_glide_confnum>  (54) 
1

>  <i_i_glide_posenum>  (54) 
12

>  <r_i_glide_eff_state_penalty>  (54) 
0

>  <ligand_id>  (54) 
14

>  <original_smiles>  (54) 
OCC1CN2C3CC3C3C4C5OC6C5C5C1C(C6C34)C52

>  <smiles>  (54) 
[H]OC([H])([H])C1([H])C2([H])C3([H])C4([H])C5([H])OC4([H])C4([H])C6([H])C5([H])C6([H])C5([H])C([H])([H])C5([H])[N+]([H])(C1([H])[H])C3([H])C42[H]

$$$$
14:0:2
     RDKit          3D

 42 49  0  0  1  0  0  0  0  0999 V2000
   -5.6730   -3.6365   -4.2504 O   0  0  0  0  0  0  0  0  0  0  0  0
   -5.3185   -4.7898   -4.9278 C   0  0  0  0  0  0  0  0  0  0  0  0
   -6.5707   -5.6178   -5.0284 C   0  0  2  0  0  0  0  0  0  0  0  0
   -6.2009   -7.1340   -5.0209 C   0  0  0  0  0  0  0  0  0  0  0  0
   -7.1726   -7.9469   -5.8048 N   0  0  2  0  0  0  0  0  0  0  0  0
   -6.6249   -8.8224   -6.9183 C   0  0  1  0  0  0  0  0  0  0  0  0
   -6.8344  -10.2895   -7.1566 C   0  0  0  0  0  0  0  0  0  0  0  0
   -7.8815   -9.3763   -7.6879 C   0  0  2  0  0  0  0  0  0  0  0  0
   -8.2415   -8.6793   -9.0393 C   0  0  1  0  0  0  0  0  0  0  0  0
   -9.5047   -7.7793   -9.2455 C   0  0  1  0  0  0  0  0  0  0  0  0
  -10.3749   -6.7185   -8.4236 C   0  0  2  0  0  0  0  0  0  0  0  0
  -10.3191   -5.6485   -9.3997 O   0  0  0  0  0  0  0  0  0  0  0  0
   -9.2133   -5.1180   -8.6246 C   0  0  1  0  0  0  0  0  0  0  0  0
   -9.8884   -5.6153   -7.3658 C   0  0  2  0  0  0  0  0  0  0  0  0
   -8.8547   -5.8472   -6.1892 C   0  0  2  0  0  0  0  0  0  0  0  0
   -7.4510   -5.2456   -6.2562 C   0  0  2  0  0  0  0  0  0  0  0  0
   -7.2872   -6.1672   -7.4859 C   0  0  2  0  0  0  0  0  0  0  0  0
   -7.8995   -5.8831   -8.8585 C   0  0  1  0  0  0  0  0  0  0  0  0
   -8.1181   -7.2278   -9.5623 C   0  0  1  0  0  0  0  0  0  0  0  0
   -8.1113   -7.0912   -6.5624 C   0  0  1  0  0  0  0  0  0  0  0  0
   -4.8576   -3.1288   -4.1960 H   0  0  0  0  0  0  0  0  0  0  0  0
   -4.8948   -4.5266   -5.8857 H   0  0  0  0  0  0  0  0  0  0  0  0
   -4.5738   -5.2913   -4.3242 H   0  0  0  0  0  0  0  0  0  0  0  0
   -7.1324   -5.4519   -4.1067 H   0  0  0  0  0  0  0  0  0  0  0  0
   -5.1863   -7.3026   -5.4173 H   0  0  0  0  0  0  0  0  0  0  0  0
   -6.1771   -7.4368   -3.9658 H   0  0  0  0  0  0  0  0  0  0  0  0
   -5.7533   -8.4441   -7.4663 H   0  0  0  0  0  0  0  0  0  0  0  0
   -6.1818  -10.7465   -7.8963 H   0  0  0  0  0  0  0  0  0  0  0  0
   -7.1266  -10.9188   -6.3179 H   0  0  0  0  0  0  0  0  0  0  0  0
   -8.7891   -9.6826   -7.1577 H   0  0  0  0  0  0  0  0  0  0  0  0
   -8.1223   -9.3782   -9.8542 H   0  0  0  0  0  0  0  0  0  0  0  0
  -10.0646   -8.0810  -10.1262 H   0  0  0  0  0  0  0  0  0  0  0  0
  -11.4048   -7.0246   -8.2096 H   0  0  0  0  0  0  0  0  0  0  0  0
   -9.1145   -4.0274   -8.5890 H   0  0  0  0  0  0  0  0  0  0  0  0
  -10.6967   -4.9432   -7.0877 H   0  0  0  0  0  0  0  0  0  0  0  0
   -9.2312   -5.8146   -5.1649 H   0  0  0  0  0  0  0  0  0  0  0  0
   -7.4683   -4.1779   -6.4856 H   0  0  0  0  0  0  0  0  0  0  0  0
   -6.2535   -6.4956   -7.5235 H   0  0  0  0  0  0  0  0  0  0  0  0
   -7.3009   -5.2755   -9.5274 H   0  0  0  0  0  0  0  0  0  0  0  0
   -7.8781   -7.1508  -10.6190 H   0  0  0  0  0  0  0  0  0  0  0  0
   -8.9753   -7.6870   -6.8178 H   0  0  0  0  0  0  0  0  0  0  0  0
   -7.7317   -8.5342   -5.1840 H   0  0  0  0  0  0  0  0  0  0  0  0
  1  2  1  0
  1 21  1  0
  2  3  1  0
  2 22  1  0
  2 23  1  0
  3 16  1  0
  3  4  1  0
  3 24  1  1
  4  5  1  0
  4 25  1  0
  4 26  1  0
  5 20  1  0
  5  6  1  0
  5 42  1  1
  6  8  1  0
  6  7  1  0
  6 27  1  6
  7  8  1  0
  7 28  1  0
  7 29  1  0
  8  9  1  0
  8 30  1  1
  9 19  1  0
  9 10  1  0
  9 31  1  6
 10 19  1  0
 10 11  1  0
 10 32  1  6
 11 14  1  0
 11 12  1  0
 11 33  1  1
 12 13  1  0
 13 18  1  0
 13 14  1  0
 13 34  1  1
 14 15  1  0
 14 35  1  1
 15 20  1  0
 15 16  1  0
 15 36  1  1
 16 17  1  0
 16 37  1  6
 17 18  1  0
 17 20  1  0
 17 38  1  6
 18 19  1  0
 18 39  1  6
 19 40  1  6
 20 41  1  6
M  CHG  1   5   1
M  END
>  <i_m_ct_stereo_status>  (55) 
1

>  <s_m_source_file>  (55) 
/var/tmp/pbs.5076255.sched01/tmpkni74bsw/0nq93mkxh.sdf

>  <i_m_source_file_index>  (55) 
24

>  <i_lp_mmshare_version>  (55) 
48012

>  <i_f3d_flags>  (55) 
0

>  <s_epik_input>  (55) 
W09IXVtDSDJdW0NASF0oW0NIMl0xKVtDQEhdKFtDQEBIXTJbQ0BIXTM0KVtDQEBIXTRbQ0BASF0oW0NAQEhdNTYpW0NAQEhdKE83KVtDQEhdMltDQEBIXTdbQ0BASF02W0NAQEhdNVtDQEhdKFtDQEhdOE4xMylbQ0gyXTg=

>  <s_epik_cmdline>  (55) 
J2VwaWtfcHl0aG9uJywgJy1waHQnLCAnMi4wJywgJy1waCcsICc3LjAnLCAnLXRuJywgJzgnLCAnLW1hJywgJzIwMCcsICctaW1hZScsICc8aW5maWxlLm1hZT4nLCAnLW9tYWUnLCAnPG91dGZpbGUubWFlPic=

>  <r_epik_Ionization_Penalty>  (55) 
0.011875

>  <r_epik_Ionization_Penalty_Charging>  (55) 
0.011875

>  <r_epik_Ionization_Penalty_Neutral>  (55) 
7.66638e-08

>  <r_epik_State_Penalty>  (55) 
0.00916255

>  <r_epik_Charging_Adjusted_Penalty>  (55) 
0.0210375

>  <i_epik_Tot_Q>  (55) 
1

>  <i_epik_Tot_abs_Q>  (55) 
1

>  <s_lp_Force_Field>  (55) 
OPLS3e

>  <r_lp_Energy>  (55) 
176.489

>  <b_lp_Chiralities_Consistent>  (55) 
1

>  <s_lp_Variant>  (55) 
14:0-1

>  <s_i_glide_gridfile>  (55) 
pfpi4k_grid

>  <i_i_glide_lignum>  (55) 
24

>  <i_i_glide_rotatable_bonds>  (55) 
2

>  <r_i_docking_score>  (55) 
-5.47885

>  <r_i_glide_ligand_efficiency>  (55) 
-0.273943

>  <r_i_glide_ligand_efficiency_sa>  (55) 
-0.743595

>  <r_i_glide_ligand_efficiency_ln>  (55) 
-1.37118

>  <r_i_glide_gscore>  (55) 
-5.47885

>  <r_i_glide_lipo>  (55) 
-2.31151

>  <r_i_glide_hbond>  (55) 
-0.32

>  <r_i_glide_metal>  (55) 
-0

>  <r_i_glide_rewards>  (55) 
-2.20908

>  <r_i_glide_evdw>  (55) 
-2.08071

>  <r_i_glide_ecoul>  (55) 
-3.56151

>  <r_i_glide_erotb>  (55) 
0

>  <r_i_glide_esite>  (55) 
0

>  <r_i_glide_emodel>  (55) 
-9.39296

>  <r_i_glide_energy>  (55) 
-5.64223

>  <r_i_glide_einternal>  (55) 
1.06654

>  <r_i_glide_intrahb_reward>  (55) 
-0

>  <i_i_glide_confnum>  (55) 
1

>  <i_i_glide_posenum>  (55) 
1

>  <r_i_glide_eff_state_penalty>  (55) 
0

>  <ligand_id>  (55) 
14

>  <original_smiles>  (55) 
OCC1CN2C3CC3C3C4C5OC6C5C5C1C(C6C34)C52

>  <smiles>  (55) 
[H]OC([H])([H])C1([H])C2([H])C3([H])C4([H])C5([H])OC4([H])C4([H])C6([H])C5([H])C6([H])C5([H])C([H])([H])C5([H])[N+]([H])(C1([H])[H])C3([H])C42[H]

$$$$
14:1:0
     RDKit          3D

 41 48  0  0  1  0  0  0  0  0999 V2000
   -5.1961   -4.2527   -5.4511 O   0  0  0  0  0  0  0  0  0  0  0  0
   -6.2691   -4.0870   -4.5667 C   0  0  0  0  0  0  0  0  0  0  0  0
   -7.3868   -5.0881   -4.8791 C   0  0  2  0  0  0  0  0  0  0  0  0
   -6.8057   -6.5677   -4.9793 C   0  0  0  0  0  0  0  0  0  0  0  0
   -7.4998   -7.4491   -5.9229 N   0  0  0  0  0  0  0  0  0  0  0  0
   -6.7270   -7.9690   -7.0838 C   0  0  1  0  0  0  0  0  0  0  0  0
   -6.5078   -9.3882   -7.5216 C   0  0  0  0  0  0  0  0  0  0  0  0
   -7.6766   -8.6629   -8.1091 C   0  0  2  0  0  0  0  0  0  0  0  0
   -7.9370   -7.8667   -9.4122 C   0  0  1  0  0  0  0  0  0  0  0  0
   -9.2937   -7.2011   -9.6995 C   0  0  1  0  0  0  0  0  0  0  0  0
  -10.4642   -6.5292   -8.8574 C   0  0  2  0  0  0  0  0  0  0  0  0
  -10.5196   -5.3822   -9.6882 O   0  0  0  0  0  0  0  0  0  0  0  0
   -9.6586   -4.7050   -8.7243 C   0  0  1  0  0  0  0  0  0  0  0  0
  -10.3669   -5.4671   -7.6620 C   0  0  2  0  0  0  0  0  0  0  0  0
   -9.4419   -5.5370   -6.4165 C   0  0  2  0  0  0  0  0  0  0  0  0
   -8.2016   -4.6879   -6.1555 C   0  0  2  0  0  0  0  0  0  0  0  0
   -7.6999   -5.4067   -7.4001 C   0  0  2  0  0  0  0  0  0  0  0  0
   -8.1843   -5.1172   -8.8208 C   0  0  1  0  0  0  0  0  0  0  0  0
   -8.0172   -6.3571   -9.7205 C   0  0  1  0  0  0  0  0  0  0  0  0
   -8.3968   -6.5902   -6.7056 C   0  0  1  0  0  0  0  0  0  0  0  0
   -4.5261   -3.6002   -5.2183 H   0  0  0  0  0  0  0  0  0  0  0  0
   -5.8946   -4.2409   -3.5552 H   0  0  0  0  0  0  0  0  0  0  0  0
   -6.6351   -3.0596   -4.6215 H   0  0  0  0  0  0  0  0  0  0  0  0
   -8.0865   -5.0531   -4.0441 H   0  0  0  0  0  0  0  0  0  0  0  0
   -5.7554   -6.5871   -5.2705 H   0  0  0  0  0  0  0  0  0  0  0  0
   -6.8406   -7.0474   -4.0022 H   0  0  0  0  0  0  0  0  0  0  0  0
   -5.9014   -7.3694   -7.4828 H   0  0  0  0  0  0  0  0  0  0  0  0
   -5.6500   -9.5602   -8.1671 H   0  0  0  0  0  0  0  0  0  0  0  0
   -6.7313  -10.1759   -6.8034 H   0  0  0  0  0  0  0  0  0  0  0  0
   -8.5760   -9.1843   -7.7725 H   0  0  0  0  0  0  0  0  0  0  0  0
   -7.5604   -8.4058  -10.2731 H   0  0  0  0  0  0  0  0  0  0  0  0
   -9.6647   -7.4569  -10.6898 H   0  0  0  0  0  0  0  0  0  0  0  0
  -11.4277   -7.0468   -8.8687 H   0  0  0  0  0  0  0  0  0  0  0  0
   -9.8043   -3.6686   -8.4742 H   0  0  0  0  0  0  0  0  0  0  0  0
  -11.3114   -4.9675   -7.4903 H   0  0  0  0  0  0  0  0  0  0  0  0
  -10.0161   -5.5153   -5.5134 H   0  0  0  0  0  0  0  0  0  0  0  0
   -8.4266   -3.6290   -6.2714 H   0  0  0  0  0  0  0  0  0  0  0  0
   -6.6376   -5.4658   -7.2727 H   0  0  0  0  0  0  0  0  0  0  0  0
   -7.6358   -4.2920   -9.2816 H   0  0  0  0  0  0  0  0  0  0  0  0
   -7.6525   -6.0805  -10.7119 H   0  0  0  0  0  0  0  0  0  0  0  0
   -9.0751   -7.2620   -7.1864 H   0  0  0  0  0  0  0  0  0  0  0  0
  1  2  1  0
  1 21  1  0
  2  3  1  0
  2 22  1  0
  2 23  1  0
  3 16  1  0
  3  4  1  0
  3 24  1  1
  4  5  1  0
  4 25  1  0
  4 26  1  0
  5 20  1  0
  5  6  1  0
  6  8  1  0
  6  7  1  0
  6 27  1  6
  7  8  1  0
  7 28  1  0
  7 29  1  0
  8  9  1  0
  8 30  1  1
  9 19  1  0
  9 10  1  0
  9 31  1  6
 10 19  1  0
 10 11  1  0
 10 32  1  6
 11 14  1  0
 11 12  1  0
 11 33  1  1
 12 13  1  0
 13 18  1  0
 13 14  1  0
 13 34  1  1
 14 15  1  0
 14 35  1  1
 15 20  1  0
 15 16  1  0
 15 36  1  1
 16 17  1  0
 16 37  1  6
 17 18  1  0
 17 20  1  0
 17 38  1  6
 18 19  1  0
 18 39  1  6
 19 40  1  6
 20 41  1  6
M  END
>  <i_m_ct_stereo_status>  (56) 
1

>  <s_m_source_file>  (56) 
/var/tmp/pbs.5076255.sched01/tmpkni74bsw/0nq93mkxh.sdf

>  <i_m_source_file_index>  (56) 
25

>  <i_lp_mmshare_version>  (56) 
48012

>  <i_f3d_flags>  (56) 
0

>  <s_epik_input>  (56) 
W09IXVtDSDJdW0NASF0oW0NIMl0xKVtDQEhdKFtDQEBIXTJbQ0BIXTM0KVtDQEBIXTRbQ0BASF0oW0NAQEhdNTYpW0NAQEhdKE83KVtDQEhdMltDQEBIXTdbQ0BASF02W0NAQEhdNVtDQEhdKFtDQEhdOE4xMylbQ0gyXTg=

>  <s_epik_cmdline>  (56) 
J2VwaWtfcHl0aG9uJywgJy1waHQnLCAnMi4wJywgJy1waCcsICc3LjAnLCAnLXRuJywgJzgnLCAnLW1hJywgJzIwMCcsICctaW1hZScsICc8aW5maWxlLm1hZT4nLCAnLW9tYWUnLCAnPG91dGZpbGUubWFlPic=

>  <r_epik_Ionization_Penalty>  (56) 
2.32249

>  <r_epik_Ionization_Penalty_Charging>  (56) 
0

>  <r_epik_Ionization_Penalty_Neutral>  (56) 
2.32249

>  <r_epik_State_Penalty>  (56) 
2.47477

>  <r_epik_Charging_Adjusted_Penalty>  (56) 
2.47477

>  <i_epik_Tot_Q>  (56) 
0

>  <i_epik_Tot_abs_Q>  (56) 
0

>  <s_lp_Force_Field>  (56) 
OPLS3e

>  <r_lp_Energy>  (56) 
166.297

>  <b_lp_Chiralities_Consistent>  (56) 
1

>  <s_lp_Variant>  (56) 
14:0-2

>  <s_i_glide_gridfile>  (56) 
pfpi4k_grid

>  <i_i_glide_lignum>  (56) 
25

>  <i_i_glide_rotatable_bonds>  (56) 
2

>  <r_i_docking_score>  (56) 
-5.81008

>  <r_i_glide_ligand_efficiency>  (56) 
-0.290504

>  <r_i_glide_ligand_efficiency_sa>  (56) 
-0.788549

>  <r_i_glide_ligand_efficiency_ln>  (56) 
-1.45407

>  <r_i_glide_gscore>  (56) 
-5.81008

>  <r_i_glide_lipo>  (56) 
-2.71761

>  <r_i_glide_hbond>  (56) 
-0.362179

>  <r_i_glide_metal>  (56) 
-0

>  <r_i_glide_rewards>  (56) 
-2.05193

>  <r_i_glide_evdw>  (56) 
0.556119

>  <r_i_glide_ecoul>  (56) 
-4.70775

>  <r_i_glide_erotb>  (56) 
0

>  <r_i_glide_esite>  (56) 
0

>  <r_i_glide_emodel>  (56) 
-10.6376

>  <r_i_glide_energy>  (56) 
-4.15163

>  <r_i_glide_einternal>  (56) 
2.33645

>  <r_i_glide_intrahb_reward>  (56) 
-0

>  <i_i_glide_confnum>  (56) 
2

>  <i_i_glide_posenum>  (56) 
15

>  <r_i_glide_eff_state_penalty>  (56) 
0

>  <ligand_id>  (56) 
14

>  <original_smiles>  (56) 
OCC1CN2C3CC3C3C4C5OC6C5C5C1C(C6C34)C52

>  <smiles>  (56) 
[H]OC([H])([H])C1([H])C([H])([H])N2C3([H])C([H])([H])C3([H])C3([H])C4([H])C5([H])OC6([H])C5([H])C5([H])C2([H])C([H])(C6([H])C43[H])C15[H]

$$$$
15:0:0
     RDKit          3D

 29 32  0  0  1  0  0  0  0  0999 V2000
    2.6378   -3.3360   -0.0342 C   0  0  0  0  0  0  0  0  0  0  0  0
    3.4771   -4.2496   -0.7135 O   0  0  0  0  0  0  0  0  0  0  0  0
    4.6181   -4.5773   -0.0328 C   0  0  0  0  0  0  0  0  0  0  0  0
    5.9023   -3.9737   -0.1533 C   0  0  0  0  0  0  0  0  0  0  0  0
    6.1517   -2.8841   -1.0405 C   0  0  0  0  0  0  0  0  0  0  0  0
    5.1790   -2.2858   -1.9557 C   0  0  0  0  0  0  0  0  0  0  0  0
    4.6361   -1.0267   -1.9243 C   0  0  0  0  0  0  0  0  0  0  0  0
    3.7352   -0.7822   -3.0032 C   0  0  0  0  0  0  0  0  0  0  0  0
    3.6076   -1.8495   -3.8484 C   0  0  0  0  0  0  0  0  0  0  0  0
    4.6202   -3.1809   -3.3535 S   0  0  0  0  0  0  0  0  0  0  0  0
    7.3527   -2.2680   -1.1214 N   0  0  0  0  0  0  0  0  0  0  0  0
    8.3726   -2.7391   -0.3811 C   0  0  0  0  0  0  0  0  0  0  0  0
    8.2361   -3.8142    0.5016 C   0  0  0  0  0  0  0  0  0  0  0  0
    6.9897   -4.4470    0.6379 C   0  0  0  0  0  0  0  0  0  0  0  0
    6.9069   -5.4650    1.5140 N   0  0  0  0  0  0  0  0  0  0  0  0
    5.6929   -6.0517    1.6021 C   0  0  0  0  0  0  0  0  0  0  0  0
    5.3127   -7.0743    2.3627 N   0  0  0  0  0  0  0  0  0  0  0  0
    3.9959   -7.2373    2.0404 C   0  0  0  0  0  0  0  0  0  0  0  0
    3.4924   -6.3942    1.1433 N   0  0  0  0  0  0  0  0  0  0  0  0
    4.5825   -5.6413    0.8633 N   0  0  0  0  0  0  0  0  0  0  0  0
    1.8223   -3.0577   -0.7027 H   0  0  0  0  0  0  0  0  0  0  0  0
    3.1798   -2.4319    0.2496 H   0  0  0  0  0  0  0  0  0  0  0  0
    2.2150   -3.7950    0.8586 H   0  0  0  0  0  0  0  0  0  0  0  0
    4.8374   -0.2734   -1.1759 H   0  0  0  0  0  0  0  0  0  0  0  0
    3.1934    0.1451   -3.1147 H   0  0  0  0  0  0  0  0  0  0  0  0
    2.9562   -1.9313   -4.7063 H   0  0  0  0  0  0  0  0  0  0  0  0
    9.3252   -2.2472   -0.4798 H   0  0  0  0  0  0  0  0  0  0  0  0
    9.0753   -4.1353    1.1032 H   0  0  0  0  0  0  0  0  0  0  0  0
    3.3886   -8.0016    2.4994 H   0  0  0  0  0  0  0  0  0  0  0  0
  1  2  1  0
  1 21  1  0
  1 22  1  0
  1 23  1  0
  2  3  1  0
  3 20  1  0
  3  4  2  0
  4 14  1  0
  4  5  1  0
  5  6  1  0
  5 11  2  0
  6 10  1  0
  6  7  2  0
  7  8  1  0
  7 24  1  0
  8  9  2  0
  8 25  1  0
  9 10  1  0
  9 26  1  0
 11 12  1  0
 12 13  2  0
 12 27  1  0
 13 14  1  0
 13 28  1  0
 14 15  2  0
 15 16  1  0
 16 20  1  0
 16 17  2  0
 17 18  1  0
 18 19  2  0
 18 29  1  0
 19 20  1  0
M  END
>  <i_m_ct_stereo_status>  (57) 
1

>  <s_m_source_file>  (57) 
/var/tmp/pbs.5076255.sched01/tmpkni74bsw/0nq93mkxh.sdf

>  <i_m_source_file_index>  (57) 
26

>  <i_lp_mmshare_version>  (57) 
48012

>  <i_f3d_flags>  (57) 
0

>  <s_epik_input>  (57) 
W0NIM11PYzFuKG5bY0hdbjIpYzJuYyhjMTMpW2NIXVtjSF1uYzMtYzRbY0hdW2NIXVtjSF1zNA==

>  <s_epik_cmdline>  (57) 
J2VwaWtfcHl0aG9uJywgJy1waHQnLCAnMi4wJywgJy1waCcsICc3LjAnLCAnLXRuJywgJzgnLCAnLW1hJywgJzIwMCcsICctaW1hZScsICc8aW5maWxlLm1hZT4nLCAnLW9tYWUnLCAnPG91dGZpbGUubWFlPic=

>  <r_lp_tautomer_probability>  (57) 
1

>  <r_epik_Ionization_Penalty>  (57) 
1.86697e-06

>  <r_epik_Ionization_Penalty_Charging>  (57) 
0

>  <r_epik_Ionization_Penalty_Neutral>  (57) 
1.86697e-06

>  <r_epik_State_Penalty>  (57) 
-0

>  <r_epik_Charging_Adjusted_Penalty>  (57) 
0

>  <i_epik_Tot_Q>  (57) 
0

>  <i_epik_Tot_abs_Q>  (57) 
0

>  <s_lp_Force_Field>  (57) 
OPLS3e

>  <r_lp_Energy>  (57) 
38.8709

>  <b_lp_Chiralities_Consistent>  (57) 
1

>  <s_lp_Variant>  (57) 
15:0-1

>  <s_i_glide_gridfile>  (57) 
pfpi4k_grid

>  <i_i_glide_lignum>  (57) 
26

>  <i_i_glide_rotatable_bonds>  (57) 
2

>  <r_i_docking_score>  (57) 
-4.46424

>  <r_i_glide_ligand_efficiency>  (57) 
-0.223212

>  <r_i_glide_ligand_efficiency_sa>  (57) 
-0.605891

>  <r_i_glide_ligand_efficiency_ln>  (57) 
-1.11725

>  <r_i_glide_gscore>  (57) 
-4.46424

>  <r_i_glide_lipo>  (57) 
-0.76621

>  <r_i_glide_hbond>  (57) 
-0.16

>  <r_i_glide_metal>  (57) 
-0

>  <r_i_glide_rewards>  (57) 
-1.70678

>  <r_i_glide_evdw>  (57) 
-29.9158

>  <r_i_glide_ecoul>  (57) 
-3.74045

>  <r_i_glide_erotb>  (57) 
0.225609

>  <r_i_glide_esite>  (57) 
0

>  <r_i_glide_emodel>  (57) 
-42.4106

>  <r_i_glide_energy>  (57) 
-33.6562

>  <r_i_glide_einternal>  (57) 
1.55423

>  <r_i_glide_intrahb_reward>  (57) 
-0

>  <i_i_glide_confnum>  (57) 
6

>  <i_i_glide_posenum>  (57) 
9

>  <r_i_glide_eff_state_penalty>  (57) 
0

>  <ligand_id>  (57) 
15

>  <original_smiles>  (57) 
COc1c2c(-c3cccs3)nccc2nc2ncnn12

>  <smiles>  (57) 
[H]c1nc2nc3c([H])c([H])nc(-c4sc([H])c([H])c4[H])c3c(OC([H])([H])[H])n2n1

$$$$
15:0:1
     RDKit          3D

 29 32  0  0  1  0  0  0  0  0999 V2000
    2.4710   -3.0530    1.1017 C   0  0  0  0  0  0  0  0  0  0  0  0
    2.5289   -4.1263    0.1421 O   0  0  0  0  0  0  0  0  0  0  0  0
    3.1298   -5.2294    0.6331 C   0  0  0  0  0  0  0  0  0  0  0  0
    4.5336   -5.5085    0.7843 C   0  0  0  0  0  0  0  0  0  0  0  0
    5.5492   -4.5911    0.3582 C   0  0  0  0  0  0  0  0  0  0  0  0
    5.3648   -3.2881   -0.2774 C   0  0  0  0  0  0  0  0  0  0  0  0
    5.1801   -2.0472    0.2727 C   0  0  0  0  0  0  0  0  0  0  0  0
    4.9300   -1.0292   -0.6688 C   0  0  0  0  0  0  0  0  0  0  0  0
    5.0738   -1.4474   -1.9511 C   0  0  0  0  0  0  0  0  0  0  0  0
    5.4393   -3.1506   -2.0332 S   0  0  0  0  0  0  0  0  0  0  0  0
    6.8774   -4.8656    0.5140 N   0  0  0  0  0  0  0  0  0  0  0  0
    7.2470   -6.0305    1.0422 C   0  0  0  0  0  0  0  0  0  0  0  0
    6.3382   -6.9896    1.4856 C   0  0  0  0  0  0  0  0  0  0  0  0
    4.9520   -6.7375    1.3661 C   0  0  0  0  0  0  0  0  0  0  0  0
    4.1177   -7.6967    1.8006 N   0  0  0  0  0  0  0  0  0  0  0  0
    2.8035   -7.4405    1.6861 C   0  0  0  0  0  0  0  0  0  0  0  0
    1.7635   -8.2005    2.0407 N   0  0  0  0  0  0  0  0  0  0  0  0
    0.6797   -7.4428    1.6664 C   0  0  0  0  0  0  0  0  0  0  0  0
    0.9595   -6.2636    1.1223 N   0  0  0  0  0  0  0  0  0  0  0  0
    2.2920   -6.2726    1.1379 N   0  0  0  0  0  0  0  0  0  0  0  0
    2.2253   -2.1266    0.5487 H   0  0  0  0  0  0  0  0  0  0  0  0
    3.3851   -2.9506    1.5991 H   0  0  0  0  0  0  0  0  0  0  0  0
    1.7089   -3.2192    1.8706 H   0  0  0  0  0  0  0  0  0  0  0  0
    5.1744   -1.8303    1.3595 H   0  0  0  0  0  0  0  0  0  0  0  0
    4.6245   -0.0371   -0.3664 H   0  0  0  0  0  0  0  0  0  0  0  0
    4.9602   -0.8532   -2.8712 H   0  0  0  0  0  0  0  0  0  0  0  0
    8.3031   -6.2073    1.1139 H   0  0  0  0  0  0  0  0  0  0  0  0
    6.6936   -7.9179    1.9114 H   0  0  0  0  0  0  0  0  0  0  0  0
   -0.3161   -7.7824    1.8138 H   0  0  0  0  0  0  0  0  0  0  0  0
  1  2  1  0
  1 21  1  0
  1 22  1  0
  1 23  1  0
  2  3  1  0
  3 20  1  0
  3  4  2  0
  4 14  1  0
  4  5  1  0
  5  6  1  0
  5 11  2  0
  6 10  1  0
  6  7  2  0
  7  8  1  0
  7 24  1  0
  8  9  2  0
  8 25  1  0
  9 10  1  0
  9 26  1  0
 11 12  1  0
 12 13  2  0
 12 27  1  0
 13 14  1  0
 13 28  1  0
 14 15  2  0
 15 16  1  0
 16 20  1  0
 16 17  2  0
 17 18  1  0
 18 19  2  0
 18 29  1  0
 19 20  1  0
M  END
>  <i_m_ct_stereo_status>  (58) 
1

>  <s_m_source_file>  (58) 
/var/tmp/pbs.5076255.sched01/tmpkni74bsw/0nq93mkxh.sdf

>  <i_m_source_file_index>  (58) 
26

>  <i_lp_mmshare_version>  (58) 
48012

>  <i_f3d_flags>  (58) 
0

>  <s_epik_input>  (58) 
W0NIM11PYzFuKG5bY0hdbjIpYzJuYyhjMTMpW2NIXVtjSF1uYzMtYzRbY0hdW2NIXVtjSF1zNA==

>  <s_epik_cmdline>  (58) 
J2VwaWtfcHl0aG9uJywgJy1waHQnLCAnMi4wJywgJy1waCcsICc3LjAnLCAnLXRuJywgJzgnLCAnLW1hJywgJzIwMCcsICctaW1hZScsICc8aW5maWxlLm1hZT4nLCAnLW9tYWUnLCAnPG91dGZpbGUubWFlPic=

>  <r_lp_tautomer_probability>  (58) 
1

>  <r_epik_Ionization_Penalty>  (58) 
1.86697e-06

>  <r_epik_Ionization_Penalty_Charging>  (58) 
0

>  <r_epik_Ionization_Penalty_Neutral>  (58) 
1.86697e-06

>  <r_epik_State_Penalty>  (58) 
-0

>  <r_epik_Charging_Adjusted_Penalty>  (58) 
0

>  <i_epik_Tot_Q>  (58) 
0

>  <i_epik_Tot_abs_Q>  (58) 
0

>  <s_lp_Force_Field>  (58) 
OPLS3e

>  <r_lp_Energy>  (58) 
38.8709

>  <b_lp_Chiralities_Consistent>  (58) 
1

>  <s_lp_Variant>  (58) 
15:0-1

>  <s_i_glide_gridfile>  (58) 
pfpi4k_grid

>  <i_i_glide_lignum>  (58) 
26

>  <i_i_glide_rotatable_bonds>  (58) 
2

>  <r_i_docking_score>  (58) 
-3.9019

>  <r_i_glide_ligand_efficiency>  (58) 
-0.195095

>  <r_i_glide_ligand_efficiency_sa>  (58) 
-0.52957

>  <r_i_glide_ligand_efficiency_ln>  (58) 
-0.976517

>  <r_i_glide_gscore>  (58) 
-3.9019

>  <r_i_glide_lipo>  (58) 
-0.598451

>  <r_i_glide_hbond>  (58) 
-0.16

>  <r_i_glide_metal>  (58) 
-0

>  <r_i_glide_rewards>  (58) 
-1.49332

>  <r_i_glide_evdw>  (58) 
-25.8381

>  <r_i_glide_ecoul>  (58) 
-3.33103

>  <r_i_glide_erotb>  (58) 
0.225609

>  <r_i_glide_esite>  (58) 
-0.0841739

>  <r_i_glide_emodel>  (58) 
-35.5268

>  <r_i_glide_energy>  (58) 
-29.1692

>  <r_i_glide_einternal>  (58) 
1.63423

>  <r_i_glide_intrahb_reward>  (58) 
-0

>  <i_i_glide_confnum>  (58) 
6

>  <i_i_glide_posenum>  (58) 
39

>  <r_i_glide_eff_state_penalty>  (58) 
0

>  <ligand_id>  (58) 
15

>  <original_smiles>  (58) 
COc1c2c(-c3cccs3)nccc2nc2ncnn12

>  <smiles>  (58) 
[H]c1nc2nc3c([H])c([H])nc(-c4sc([H])c([H])c4[H])c3c(OC([H])([H])[H])n2n1

$$$$
15:0:2
     RDKit          3D

 29 32  0  0  1  0  0  0  0  0999 V2000
    2.2073   -3.9750   -0.9480 C   0  0  0  0  0  0  0  0  0  0  0  0
    2.5678   -3.9862    0.4209 O   0  0  0  0  0  0  0  0  0  0  0  0
    3.1808   -5.1448    0.8102 C   0  0  0  0  0  0  0  0  0  0  0  0
    4.5814   -5.4009    0.8805 C   0  0  0  0  0  0  0  0  0  0  0  0
    5.5602   -4.4374    0.4810 C   0  0  0  0  0  0  0  0  0  0  0  0
    5.2784   -3.0968   -0.0304 C   0  0  0  0  0  0  0  0  0  0  0  0
    4.7189   -2.0199    0.6077 C   0  0  0  0  0  0  0  0  0  0  0  0
    4.6160   -0.8691   -0.2277 C   0  0  0  0  0  0  0  0  0  0  0  0
    5.1136   -1.0688   -1.4873 C   0  0  0  0  0  0  0  0  0  0  0  0
    5.7605   -2.6797   -1.6615 S   0  0  0  0  0  0  0  0  0  0  0  0
    6.8863   -4.6817    0.5203 N   0  0  0  0  0  0  0  0  0  0  0  0
    7.3148   -5.8717    0.9722 C   0  0  0  0  0  0  0  0  0  0  0  0
    6.4395   -6.8835    1.3852 C   0  0  0  0  0  0  0  0  0  0  0  0
    5.0514   -6.6647    1.3386 C   0  0  0  0  0  0  0  0  0  0  0  0
    4.2543   -7.6748    1.7349 N   0  0  0  0  0  0  0  0  0  0  0  0
    2.9280   -7.4251    1.6791 C   0  0  0  0  0  0  0  0  0  0  0  0
    1.9149   -8.2183    2.0095 N   0  0  0  0  0  0  0  0  0  0  0  0
    0.8118   -7.4630    1.7343 C   0  0  0  0  0  0  0  0  0  0  0  0
    1.0285   -6.2408    1.2590 N   0  0  0  0  0  0  0  0  0  0  0  0
    2.3890   -6.2168    1.2320 N   0  0  0  0  0  0  0  0  0  0  0  0
    1.6779   -3.0549   -1.1893 H   0  0  0  0  0  0  0  0  0  0  0  0
    1.5438   -4.8049   -1.1839 H   0  0  0  0  0  0  0  0  0  0  0  0
    3.0909   -4.0205   -1.5815 H   0  0  0  0  0  0  0  0  0  0  0  0
    4.3655   -2.0187    1.6281 H   0  0  0  0  0  0  0  0  0  0  0  0
    4.1776    0.0566    0.1162 H   0  0  0  0  0  0  0  0  0  0  0  0
    5.1300   -0.3628   -2.3057 H   0  0  0  0  0  0  0  0  0  0  0  0
    8.3831   -6.0316    0.9991 H   0  0  0  0  0  0  0  0  0  0  0  0
    6.8349   -7.8309    1.7249 H   0  0  0  0  0  0  0  0  0  0  0  0
   -0.1900   -7.8325    1.8945 H   0  0  0  0  0  0  0  0  0  0  0  0
  1  2  1  0
  1 21  1  0
  1 22  1  0
  1 23  1  0
  2  3  1  0
  3 20  1  0
  3  4  2  0
  4 14  1  0
  4  5  1  0
  5  6  1  0
  5 11  2  0
  6 10  1  0
  6  7  2  0
  7  8  1  0
  7 24  1  0
  8  9  2  0
  8 25  1  0
  9 10  1  0
  9 26  1  0
 11 12  1  0
 12 13  2  0
 12 27  1  0
 13 14  1  0
 13 28  1  0
 14 15  2  0
 15 16  1  0
 16 20  1  0
 16 17  2  0
 17 18  1  0
 18 19  2  0
 18 29  1  0
 19 20  1  0
M  END
>  <i_m_ct_stereo_status>  (59) 
1

>  <s_m_source_file>  (59) 
/var/tmp/pbs.5076255.sched01/tmpkni74bsw/0nq93mkxh.sdf

>  <i_m_source_file_index>  (59) 
26

>  <i_lp_mmshare_version>  (59) 
48012

>  <i_f3d_flags>  (59) 
0

>  <s_epik_input>  (59) 
W0NIM11PYzFuKG5bY0hdbjIpYzJuYyhjMTMpW2NIXVtjSF1uYzMtYzRbY0hdW2NIXVtjSF1zNA==

>  <s_epik_cmdline>  (59) 
J2VwaWtfcHl0aG9uJywgJy1waHQnLCAnMi4wJywgJy1waCcsICc3LjAnLCAnLXRuJywgJzgnLCAnLW1hJywgJzIwMCcsICctaW1hZScsICc8aW5maWxlLm1hZT4nLCAnLW9tYWUnLCAnPG91dGZpbGUubWFlPic=

>  <r_lp_tautomer_probability>  (59) 
1

>  <r_epik_Ionization_Penalty>  (59) 
1.86697e-06

>  <r_epik_Ionization_Penalty_Charging>  (59) 
0

>  <r_epik_Ionization_Penalty_Neutral>  (59) 
1.86697e-06

>  <r_epik_State_Penalty>  (59) 
-0

>  <r_epik_Charging_Adjusted_Penalty>  (59) 
0

>  <i_epik_Tot_Q>  (59) 
0

>  <i_epik_Tot_abs_Q>  (59) 
0

>  <s_lp_Force_Field>  (59) 
OPLS3e

>  <r_lp_Energy>  (59) 
38.8709

>  <b_lp_Chiralities_Consistent>  (59) 
1

>  <s_lp_Variant>  (59) 
15:0-1

>  <s_i_glide_gridfile>  (59) 
pfpi4k_grid

>  <i_i_glide_lignum>  (59) 
26

>  <i_i_glide_rotatable_bonds>  (59) 
2

>  <r_i_docking_score>  (59) 
-3.72763

>  <r_i_glide_ligand_efficiency>  (59) 
-0.186381

>  <r_i_glide_ligand_efficiency_sa>  (59) 
-0.505917

>  <r_i_glide_ligand_efficiency_ln>  (59) 
-0.932902

>  <r_i_glide_gscore>  (59) 
-3.72763

>  <r_i_glide_lipo>  (59) 
-0.422575

>  <r_i_glide_hbond>  (59) 
-0.16

>  <r_i_glide_metal>  (59) 
-0

>  <r_i_glide_rewards>  (59) 
-1.51231

>  <r_i_glide_evdw>  (59) 
-26.0273

>  <r_i_glide_ecoul>  (59) 
-3.22065

>  <r_i_glide_erotb>  (59) 
0.225609

>  <r_i_glide_esite>  (59) 
-0.0738934

>  <r_i_glide_emodel>  (59) 
-36.9419

>  <r_i_glide_energy>  (59) 
-29.2479

>  <r_i_glide_einternal>  (59) 
0.532418

>  <r_i_glide_intrahb_reward>  (59) 
-0

>  <i_i_glide_confnum>  (59) 
1

>  <i_i_glide_posenum>  (59) 
12

>  <r_i_glide_eff_state_penalty>  (59) 
0

>  <ligand_id>  (59) 
15

>  <original_smiles>  (59) 
COc1c2c(-c3cccs3)nccc2nc2ncnn12

>  <smiles>  (59) 
[H]c1nc2nc3c([H])c([H])nc(-c4sc([H])c([H])c4[H])c3c(OC([H])([H])[H])n2n1

$$$$
16:0:0
     RDKit          3D

 61 65  0  0  1  0  0  0  0  0999 V2000
    1.2381    5.8178    3.2949 C   0  0  0  0  0  0  0  0  0  0  0  0
    0.8564    4.6776    4.0419 O   0  0  0  0  0  0  0  0  0  0  0  0
   -0.4352    4.3378    4.1819 C   0  0  0  0  0  0  0  0  0  0  0  0
   -1.3855    4.9446    3.6867 O   0  0  0  0  0  0  0  0  0  0  0  0
   -0.5877    3.1375    5.0212 C   0  0  0  0  0  0  0  0  0  0  0  0
   -1.7140    2.7032    5.6323 C   0  0  0  0  0  0  0  0  0  0  0  0
   -1.4101    1.5947    6.6542 C   0  0  1  0  0  0  0  0  0  0  0  0
   -1.5648    0.1452    6.1903 C   0  0  0  0  0  0  0  0  0  0  0  0
   -0.6598   -0.8812    6.1497 C   0  0  0  0  0  0  0  0  0  0  0  0
   -1.1507   -2.2376    5.6778 C   0  0  0  0  0  0  0  0  0  0  0  0
    0.8638   -0.9544    6.5180 C   0  0  0  0  0  0  0  0  0  0  0  0
    1.7531    0.2742    6.9543 C   0  0  1  0  0  0  0  0  0  0  0  0
    2.5417    1.2323    5.9397 C   0  0  2  0  0  0  0  0  0  0  0  0
    1.8572    2.4501    5.5253 O   0  0  0  0  0  0  0  0  0  0  0  0
    0.5083    2.1377    5.3034 C   0  0  2  0  0  0  0  0  0  0  0  0
    0.4973    1.1418    4.0432 C   0  0  1  0  0  0  0  0  0  0  0  0
   -0.8018    1.0357    3.1842 C   0  0  0  0  0  0  0  0  0  0  0  0
    1.6466    1.3971    3.0251 C   0  0  0  0  0  0  0  0  0  0  0  0
    3.0775    1.0648    3.4475 C   0  0  1  0  0  0  0  0  0  0  0  0
    3.5008    0.7032    4.8640 C   0  0  2  0  0  0  0  0  0  0  0  0
    3.5573   -0.3341    3.7271 C   0  0  0  0  0  0  0  0  0  0  0  0
    2.6909   -1.5663    3.5362 C   0  0  0  0  0  0  0  0  0  0  0  0
    4.9553   -0.7006    3.2395 C   0  0  0  0  0  0  0  0  0  0  0  0
    0.0412    1.9126    6.8132 C   0  0  2  0  0  0  0  0  0  0  0  0
    0.9316    1.1843    7.8551 C   0  0  0  0  0  0  0  0  0  0  0  0
    0.1734    0.4561    8.9995 C   0  0  0  0  0  0  0  0  0  0  0  0
    1.8423    2.1921    8.6250 C   0  0  0  0  0  0  0  0  0  0  0  0
    2.3228    5.9199    3.3011 H   0  0  0  0  0  0  0  0  0  0  0  0
    0.8145    6.7311    3.7135 H   0  0  0  0  0  0  0  0  0  0  0  0
    0.9192    5.7457    2.2588 H   0  0  0  0  0  0  0  0  0  0  0  0
   -2.6732    3.1899    5.5766 H   0  0  0  0  0  0  0  0  0  0  0  0
   -1.9673    1.7683    7.5725 H   0  0  0  0  0  0  0  0  0  0  0  0
   -2.5762   -0.0561    5.8634 H   0  0  0  0  0  0  0  0  0  0  0  0
   -0.6157   -2.5571    4.7818 H   0  0  0  0  0  0  0  0  0  0  0  0
   -2.2158   -2.2162    5.4451 H   0  0  0  0  0  0  0  0  0  0  0  0
   -0.9993   -2.9934    6.4525 H   0  0  0  0  0  0  0  0  0  0  0  0
    0.8862   -1.6438    7.3587 H   0  0  0  0  0  0  0  0  0  0  0  0
    1.3884   -1.5125    5.7553 H   0  0  0  0  0  0  0  0  0  0  0  0
    2.5418   -0.1790    7.5570 H   0  0  0  0  0  0  0  0  0  0  0  0
    3.2830    1.6850    6.5970 H   0  0  0  0  0  0  0  0  0  0  0  0
    0.6612    0.1576    4.3909 H   0  0  0  0  0  0  0  0  0  0  0  0
   -0.9881    1.9442    2.6066 H   0  0  0  0  0  0  0  0  0  0  0  0
   -1.7044    0.8253    3.7502 H   0  0  0  0  0  0  0  0  0  0  0  0
   -0.7099    0.2237    2.4636 H   0  0  0  0  0  0  0  0  0  0  0  0
    1.4688    0.8131    2.1225 H   0  0  0  0  0  0  0  0  0  0  0  0
    1.6116    2.4394    2.6982 H   0  0  0  0  0  0  0  0  0  0  0  0
    3.7809    1.6907    2.9157 H   0  0  0  0  0  0  0  0  0  0  0  0
    4.5057    1.0195    5.1296 H   0  0  0  0  0  0  0  0  0  0  0  0
    2.9663   -2.3298    4.2661 H   0  0  0  0  0  0  0  0  0  0  0  0
    2.8453   -1.9779    2.5363 H   0  0  0  0  0  0  0  0  0  0  0  0
    1.6287   -1.3697    3.5993 H   0  0  0  0  0  0  0  0  0  0  0  0
    5.3739   -1.5004    3.8506 H   0  0  0  0  0  0  0  0  0  0  0  0
    5.6311    0.1534    3.2965 H   0  0  0  0  0  0  0  0  0  0  0  0
    4.9352   -1.0335    2.2005 H   0  0  0  0  0  0  0  0  0  0  0  0
    0.0221    2.9062    7.2782 H   0  0  0  0  0  0  0  0  0  0  0  0
   -0.3542    1.1651    9.6367 H   0  0  0  0  0  0  0  0  0  0  0  0
    0.8742   -0.0864    9.6386 H   0  0  0  0  0  0  0  0  0  0  0  0
   -0.5692   -0.2615    8.6698 H   0  0  0  0  0  0  0  0  0  0  0  0
    1.2906    2.7169    9.4050 H   0  0  0  0  0  0  0  0  0  0  0  0
    2.2630    2.9725    7.9925 H   0  0  0  0  0  0  0  0  0  0  0  0
    2.6728    1.6773    9.1137 H   0  0  0  0  0  0  0  0  0  0  0  0
  1  2  1  0
  1 28  1  0
  1 29  1  0
  1 30  1  0
  2  3  1  0
  3  4  2  0
  3  5  1  0
 15  5  1  6
  5  6  2  0
  6  7  1  0
  6 31  1  0
  7 24  1  0
  7  8  1  0
  7 32  1  1
  8  9  2  0
  8 33  1  0
  9 10  1  0
  9 11  1  0
 10 34  1  0
 10 35  1  0
 10 36  1  0
 11 12  1  0
 11 37  1  0
 11 38  1  0
 12 25  1  0
 12 13  1  0
 12 39  1  1
 13 20  1  0
 13 14  1  0
 13 40  1  1
 14 15  1  0
 15 16  1  0
 15 24  1  0
 16 17  1  0
 16 18  1  0
 16 41  1  1
 17 42  1  0
 17 43  1  0
 17 44  1  0
 18 19  1  0
 18 45  1  0
 18 46  1  0
 19 21  1  0
 19 20  1  0
 19 47  1  6
 20 21  1  0
 20 48  1  1
 21 22  1  0
 21 23  1  0
 22 49  1  0
 22 50  1  0
 22 51  1  0
 23 52  1  0
 23 53  1  0
 23 54  1  0
 24 25  1  0
 24 55  1  1
 25 26  1  0
 25 27  1  0
 26 56  1  0
 26 57  1  0
 26 58  1  0
 27 59  1  0
 27 60  1  0
 27 61  1  0
M  END
>  <i_m_ct_stereo_status>  (60) 
1

>  <s_m_source_file>  (60) 
/var/tmp/pbs.5076255.sched01/tmpkni74bsw/0nq93mkxh.sdf

>  <i_m_source_file_index>  (60) 
27

>  <i_lp_mmshare_version>  (60) 
48012

>  <i_f3d_flags>  (60) 
0

>  <s_epik_input>  (60) 
W0NIM11PQyg9TylDMT1bQ0hdW0NASF0oW0NAQEhdMltDQEBdMTM0KVtDSF09QyhbQ0gzXSlbQ0gyXVtDQEhdKEMyKFtDSDNdKVtDSDNdKVtDQEhdKE8zKVtDQEBIXTVbQ0BASF0oQzUoW0NIM10pW0NIM10pW0NIMl1bQ0BASF00W0NIM10=

>  <s_epik_cmdline>  (60) 
J2VwaWtfcHl0aG9uJywgJy1waHQnLCAnMi4wJywgJy1waCcsICc3LjAnLCAnLXRuJywgJzgnLCAnLW1hJywgJzIwMCcsICctaW1hZScsICc8aW5maWxlLm1hZT4nLCAnLW9tYWUnLCAnPG91dGZpbGUubWFlPic=

>  <r_lp_tautomer_probability>  (60) 
1

>  <r_epik_Ionization_Penalty>  (60) 
4.24539e-13

>  <r_epik_Ionization_Penalty_Charging>  (60) 
0

>  <r_epik_Ionization_Penalty_Neutral>  (60) 
4.24539e-13

>  <r_epik_State_Penalty>  (60) 
-0

>  <r_epik_Charging_Adjusted_Penalty>  (60) 
0

>  <i_epik_Tot_Q>  (60) 
0

>  <i_epik_Tot_abs_Q>  (60) 
0

>  <s_epik_Chemistry_Notes>  (60) 
This compound has an ester and may undergo hydrolysis at high or low pH.

>  <s_lp_Force_Field>  (60) 
OPLS3e

>  <r_lp_Energy>  (60) 
124.519

>  <b_lp_Chiralities_Consistent>  (60) 
1

>  <s_lp_Variant>  (60) 
16:0-1

>  <s_i_glide_gridfile>  (60) 
pfpi4k_grid

>  <i_i_glide_lignum>  (60) 
27

>  <i_i_glide_rotatable_bonds>  (60) 
2

>  <r_i_docking_score>  (60) 
-2.66225

>  <r_i_glide_ligand_efficiency>  (60) 
-0.0986017

>  <r_i_glide_ligand_efficiency_sa>  (60) 
-0.295805

>  <r_i_glide_ligand_efficiency_ln>  (60) 
-0.619727

>  <r_i_glide_gscore>  (60) 
-2.66225

>  <r_i_glide_lipo>  (60) 
-0.166418

>  <r_i_glide_hbond>  (60) 
-0.159993

>  <r_i_glide_metal>  (60) 
-0

>  <r_i_glide_rewards>  (60) 
-0.882784

>  <r_i_glide_evdw>  (60) 
-20.4441

>  <r_i_glide_ecoul>  (60) 
-3.32198

>  <r_i_glide_erotb>  (60) 
0.140529

>  <r_i_glide_esite>  (60) 
-0.0730762

>  <r_i_glide_emodel>  (60) 
-26.5331

>  <r_i_glide_energy>  (60) 
-23.7661

>  <r_i_glide_einternal>  (60) 
2.66362

>  <r_i_glide_intrahb_reward>  (60) 
-0

>  <i_i_glide_confnum>  (60) 
2

>  <i_i_glide_posenum>  (60) 
30

>  <r_i_glide_eff_state_penalty>  (60) 
0

>  <ligand_id>  (60) 
16

>  <original_smiles>  (60) 
COC(=O)C1=CC2C=C(C)CC3C4OC1(C(C)CC1C4C1(C)C)C2C3(C)C

>  <smiles>  (60) 
[H]C1=C(C([H])([H])[H])C([H])([H])C2([H])C3([H])OC4(C(C(=O)OC([H])([H])[H])=C([H])C1([H])C4([H])C2(C([H])([H])[H])C([H])([H])[H])C([H])(C([H])([H])[H])C([H])([H])C1([H])C3([H])C1(C([H])([H])[H])C([H])([H])[H]

$$$$
16:0:1
     RDKit          3D

 61 65  0  0  1  0  0  0  0  0999 V2000
    1.9535    6.0802    3.3298 C   0  0  0  0  0  0  0  0  0  0  0  0
    1.5533    5.0020    4.1494 O   0  0  0  0  0  0  0  0  0  0  0  0
    0.4601    5.0923    4.9113 C   0  0  0  0  0  0  0  0  0  0  0  0
   -0.1795    6.1320    5.0933 O   0  0  0  0  0  0  0  0  0  0  0  0
    0.0953    3.7866    5.5076 C   0  0  0  0  0  0  0  0  0  0  0  0
   -0.9522    3.5114    6.3171 C   0  0  0  0  0  0  0  0  0  0  0  0
   -0.8031    2.1377    6.9995 C   0  0  1  0  0  0  0  0  0  0  0  0
   -1.4838    0.9299    6.3537 C   0  0  0  0  0  0  0  0  0  0  0  0
   -0.9554   -0.2396    5.8699 C   0  0  0  0  0  0  0  0  0  0  0  0
   -1.9087   -1.2552    5.2763 C   0  0  0  0  0  0  0  0  0  0  0  0
    0.5209   -0.7701    5.7889 C   0  0  0  0  0  0  0  0  0  0  0  0
    1.8093    0.0503    6.1884 C   0  0  1  0  0  0  0  0  0  0  0  0
    2.6288    1.0113    5.1982 C   0  0  2  0  0  0  0  0  0  0  0  0
    2.2665    2.4228    5.2118 O   0  0  0  0  0  0  0  0  0  0  0  0
    0.8711    2.5118    5.2969 C   0  0  2  0  0  0  0  0  0  0  0  0
    0.3098    1.8987    3.9236 C   0  0  1  0  0  0  0  0  0  0  0  0
   -1.1069    2.3352    3.4389 C   0  0  0  0  0  0  0  0  0  0  0  0
    1.2524    2.0997    2.6954 C   0  0  0  0  0  0  0  0  0  0  0  0
    2.5787    1.3444    2.6625 C   0  0  1  0  0  0  0  0  0  0  0  0
    3.1504    0.5512    3.8292 C   0  0  2  0  0  0  0  0  0  0  0  0
    2.6640   -0.1505    2.5505 C   0  0  0  0  0  0  0  0  0  0  0  0
    1.4513   -1.0416    2.3752 C   0  0  0  0  0  0  0  0  0  0  0  0
    3.7510   -0.7084    1.6439 C   0  0  0  0  0  0  0  0  0  0  0  0
    0.6746    2.0374    6.8098 C   0  0  2  0  0  0  0  0  0  0  0  0
    1.4982    0.8763    7.4270 C   0  0  0  0  0  0  0  0  0  0  0  0
    0.8032    0.0905    8.5752 C   0  0  0  0  0  0  0  0  0  0  0  0
    2.8048    1.4002    8.1016 C   0  0  0  0  0  0  0  0  0  0  0  0
    2.8404    5.7833    2.7674 H   0  0  0  0  0  0  0  0  0  0  0  0
    2.2003    6.9705    3.9124 H   0  0  0  0  0  0  0  0  0  0  0  0
    1.1741    6.3304    2.6069 H   0  0  0  0  0  0  0  0  0  0  0  0
   -1.7069    4.2190    6.6281 H   0  0  0  0  0  0  0  0  0  0  0  0
   -1.0746    2.2132    8.0486 H   0  0  0  0  0  0  0  0  0  0  0  0
   -2.5531    1.0720    6.2821 H   0  0  0  0  0  0  0  0  0  0  0  0
   -1.6577   -1.4502    4.2330 H   0  0  0  0  0  0  0  0  0  0  0  0
   -2.9460   -0.9122    5.3047 H   0  0  0  0  0  0  0  0  0  0  0  0
   -1.8460   -2.1990    5.8202 H   0  0  0  0  0  0  0  0  0  0  0  0
    0.5123   -1.6370    6.4449 H   0  0  0  0  0  0  0  0  0  0  0  0
    0.6823   -1.2250    4.8213 H   0  0  0  0  0  0  0  0  0  0  0  0
    2.5318   -0.7216    6.4625 H   0  0  0  0  0  0  0  0  0  0  0  0
    3.5880    1.0851    5.7084 H   0  0  0  0  0  0  0  0  0  0  0  0
    0.2322    0.8514    4.0382 H   0  0  0  0  0  0  0  0  0  0  0  0
   -1.1170    3.3770    3.1102 H   0  0  0  0  0  0  0  0  0  0  0  0
   -1.8921    2.2179    4.1800 H   0  0  0  0  0  0  0  0  0  0  0  0
   -1.4175    1.7380    2.5813 H   0  0  0  0  0  0  0  0  0  0  0  0
    0.7288    1.8127    1.7839 H   0  0  0  0  0  0  0  0  0  0  0  0
    1.4630    3.1604    2.5543 H   0  0  0  0  0  0  0  0  0  0  0  0
    3.3139    1.8912    2.0839 H   0  0  0  0  0  0  0  0  0  0  0  0
    4.2366    0.5347    3.8747 H   0  0  0  0  0  0  0  0  0  0  0  0
    1.6255   -2.0072    2.8513 H   0  0  0  0  0  0  0  0  0  0  0  0
    1.2806   -1.2140    1.3106 H   0  0  0  0  0  0  0  0  0  0  0  0
    0.5291   -0.6074    2.7408 H   0  0  0  0  0  0  0  0  0  0  0  0
    4.0263   -1.7135    1.9613 H   0  0  0  0  0  0  0  0  0  0  0  0
    4.6454   -0.0849    1.6747 H   0  0  0  0  0  0  0  0  0  0  0  0
    3.4145   -0.7512    0.6064 H   0  0  0  0  0  0  0  0  0  0  0  0
    1.0550    2.8551    7.4340 H   0  0  0  0  0  0  0  0  0  0  0  0
    0.6538    0.7259    9.4471 H   0  0  0  0  0  0  0  0  0  0  0  0
    1.4248   -0.7500    8.8947 H   0  0  0  0  0  0  0  0  0  0  0  0
   -0.1717   -0.3187    8.3312 H   0  0  0  0  0  0  0  0  0  0  0  0
    2.6031    1.8303    9.0824 H   0  0  0  0  0  0  0  0  0  0  0  0
    3.3028    2.1867    7.5366 H   0  0  0  0  0  0  0  0  0  0  0  0
    3.5249    0.5908    8.2496 H   0  0  0  0  0  0  0  0  0  0  0  0
  1  2  1  0
  1 28  1  0
  1 29  1  0
  1 30  1  0
  2  3  1  0
  3  4  2  0
  3  5  1  0
 15  5  1  1
  5  6  2  0
  6  7  1  0
  6 31  1  0
  7 24  1  0
  7  8  1  0
  7 32  1  1
  8  9  2  0
  8 33  1  0
  9 10  1  0
  9 11  1  0
 10 34  1  0
 10 35  1  0
 10 36  1  0
 11 12  1  0
 11 37  1  0
 11 38  1  0
 12 25  1  0
 12 13  1  0
 12 39  1  1
 13 20  1  0
 13 14  1  0
 13 40  1  1
 14 15  1  0
 15 16  1  0
 15 24  1  0
 16 17  1  0
 16 18  1  0
 16 41  1  1
 17 42  1  0
 17 43  1  0
 17 44  1  0
 18 19  1  0
 18 45  1  0
 18 46  1  0
 19 21  1  0
 19 20  1  0
 19 47  1  6
 20 21  1  0
 20 48  1  1
 21 22  1  0
 21 23  1  0
 22 49  1  0
 22 50  1  0
 22 51  1  0
 23 52  1  0
 23 53  1  0
 23 54  1  0
 24 25  1  0
 24 55  1  1
 25 26  1  0
 25 27  1  0
 26 56  1  0
 26 57  1  0
 26 58  1  0
 27 59  1  0
 27 60  1  0
 27 61  1  0
M  END
>  <i_m_ct_stereo_status>  (61) 
1

>  <s_m_source_file>  (61) 
/var/tmp/pbs.5076255.sched01/tmpkni74bsw/0nq93mkxh.sdf

>  <i_m_source_file_index>  (61) 
27

>  <i_lp_mmshare_version>  (61) 
48012

>  <i_f3d_flags>  (61) 
0

>  <s_epik_input>  (61) 
W0NIM11PQyg9TylDMT1bQ0hdW0NASF0oW0NAQEhdMltDQEBdMTM0KVtDSF09QyhbQ0gzXSlbQ0gyXVtDQEhdKEMyKFtDSDNdKVtDSDNdKVtDQEhdKE8zKVtDQEBIXTVbQ0BASF0oQzUoW0NIM10pW0NIM10pW0NIMl1bQ0BASF00W0NIM10=

>  <s_epik_cmdline>  (61) 
J2VwaWtfcHl0aG9uJywgJy1waHQnLCAnMi4wJywgJy1waCcsICc3LjAnLCAnLXRuJywgJzgnLCAnLW1hJywgJzIwMCcsICctaW1hZScsICc8aW5maWxlLm1hZT4nLCAnLW9tYWUnLCAnPG91dGZpbGUubWFlPic=

>  <r_lp_tautomer_probability>  (61) 
1

>  <r_epik_Ionization_Penalty>  (61) 
4.24539e-13

>  <r_epik_Ionization_Penalty_Charging>  (61) 
0

>  <r_epik_Ionization_Penalty_Neutral>  (61) 
4.24539e-13

>  <r_epik_State_Penalty>  (61) 
-0

>  <r_epik_Charging_Adjusted_Penalty>  (61) 
0

>  <i_epik_Tot_Q>  (61) 
0

>  <i_epik_Tot_abs_Q>  (61) 
0

>  <s_epik_Chemistry_Notes>  (61) 
This compound has an ester and may undergo hydrolysis at high or low pH.

>  <s_lp_Force_Field>  (61) 
OPLS3e

>  <r_lp_Energy>  (61) 
124.519

>  <b_lp_Chiralities_Consistent>  (61) 
1

>  <s_lp_Variant>  (61) 
16:0-1

>  <s_i_glide_gridfile>  (61) 
pfpi4k_grid

>  <i_i_glide_lignum>  (61) 
27

>  <i_i_glide_rotatable_bonds>  (61) 
2

>  <r_i_docking_score>  (61) 
-2.20555

>  <r_i_glide_ligand_efficiency>  (61) 
-0.0816871

>  <r_i_glide_ligand_efficiency_sa>  (61) 
-0.245061

>  <r_i_glide_ligand_efficiency_ln>  (61) 
-0.513416

>  <r_i_glide_gscore>  (61) 
-2.20555

>  <r_i_glide_lipo>  (61) 
-0.00601925

>  <r_i_glide_hbond>  (61) 
-0.00684532

>  <r_i_glide_metal>  (61) 
-0

>  <r_i_glide_rewards>  (61) 
-0.882784

>  <r_i_glide_evdw>  (61) 
-23.3321

>  <r_i_glide_ecoul>  (61) 
-1.68001

>  <r_i_glide_erotb>  (61) 
0.140529

>  <r_i_glide_esite>  (61) 
-0.0318234

>  <r_i_glide_emodel>  (61) 
-27.2114

>  <r_i_glide_energy>  (61) 
-25.0121

>  <r_i_glide_einternal>  (61) 
2.30027

>  <r_i_glide_intrahb_reward>  (61) 
-0

>  <i_i_glide_confnum>  (61) 
2

>  <i_i_glide_posenum>  (61) 
18

>  <r_i_glide_eff_state_penalty>  (61) 
0

>  <ligand_id>  (61) 
16

>  <original_smiles>  (61) 
COC(=O)C1=CC2C=C(C)CC3C4OC1(C(C)CC1C4C1(C)C)C2C3(C)C

>  <smiles>  (61) 
[H]C1=C(C([H])([H])[H])C([H])([H])C2([H])C3([H])OC4(C(C(=O)OC([H])([H])[H])=C([H])C1([H])C4([H])C2(C([H])([H])[H])C([H])([H])[H])C([H])(C([H])([H])[H])C([H])([H])C1([H])C3([H])C1(C([H])([H])[H])C([H])([H])[H]

$$$$
16:0:2
     RDKit          3D

 61 65  0  0  1  0  0  0  0  0999 V2000
    3.7559   -0.5493    0.7454 C   0  0  0  0  0  0  0  0  0  0  0  0
    3.3472   -0.4332    2.0943 O   0  0  0  0  0  0  0  0  0  0  0  0
    4.2510   -0.3307    3.0834 C   0  0  0  0  0  0  0  0  0  0  0  0
    5.4717   -0.2835    2.9148 O   0  0  0  0  0  0  0  0  0  0  0  0
    3.6027   -0.2567    4.4067 C   0  0  0  0  0  0  0  0  0  0  0  0
    4.1946   -0.3800    5.6183 C   0  0  0  0  0  0  0  0  0  0  0  0
    3.1538   -0.5571    6.7429 C   0  0  1  0  0  0  0  0  0  0  0  0
    2.7205    0.6791    7.5356 C   0  0  0  0  0  0  0  0  0  0  0  0
    1.4861    1.2525    7.6970 C   0  0  0  0  0  0  0  0  0  0  0  0
    1.3897    2.4936    8.5684 C   0  0  0  0  0  0  0  0  0  0  0  0
    0.0715    0.8685    7.1267 C   0  0  0  0  0  0  0  0  0  0  0  0
   -0.2157   -0.2915    6.0950 C   0  0  1  0  0  0  0  0  0  0  0  0
   -0.1698   -0.1311    4.4982 C   0  0  2  0  0  0  0  0  0  0  0  0
    1.0867   -0.4709    3.8452 O   0  0  0  0  0  0  0  0  0  0  0  0
    2.1354    0.0181    4.6358 C   0  0  2  0  0  0  0  0  0  0  0  0
    1.9954    1.6168    4.5929 C   0  0  1  0  0  0  0  0  0  0  0  0
    3.2602    2.4838    4.8806 C   0  0  0  0  0  0  0  0  0  0  0  0
    1.4028    2.1674    3.2599 C   0  0  0  0  0  0  0  0  0  0  0  0
   -0.0717    1.8962    2.9440 C   0  0  1  0  0  0  0  0  0  0  0  0
   -0.9566    0.9497    3.7408 C   0  0  2  0  0  0  0  0  0  0  0  0
   -1.2017    2.4674    3.7610 C   0  0  0  0  0  0  0  0  0  0  0  0
   -0.9965    3.4379    4.9163 C   0  0  0  0  0  0  0  0  0  0  0  0
   -2.4311    2.9494    3.0016 C   0  0  0  0  0  0  0  0  0  0  0  0
    2.0381   -1.0051    5.8571 C   0  0  2  0  0  0  0  0  0  0  0  0
    0.6751   -1.4805    6.4315 C   0  0  0  0  0  0  0  0  0  0  0  0
    0.6889   -1.8847    7.9339 C   0  0  0  0  0  0  0  0  0  0  0  0
    0.1819   -2.7795    5.7209 C   0  0  0  0  0  0  0  0  0  0  0  0
    2.8739   -0.6298    0.1099 H   0  0  0  0  0  0  0  0  0  0  0  0
    4.3674   -1.4373    0.5844 H   0  0  0  0  0  0  0  0  0  0  0  0
    4.3129    0.3334    0.4335 H   0  0  0  0  0  0  0  0  0  0  0  0
    5.2484   -0.5441    5.7803 H   0  0  0  0  0  0  0  0  0  0  0  0
    3.4723   -1.3458    7.4234 H   0  0  0  0  0  0  0  0  0  0  0  0
    3.5570    1.1442    8.0416 H   0  0  0  0  0  0  0  0  0  0  0  0
    1.0146    3.3429    7.9925 H   0  0  0  0  0  0  0  0  0  0  0  0
    2.3604    2.7780    8.9830 H   0  0  0  0  0  0  0  0  0  0  0  0
    0.7103    2.3219    9.4050 H   0  0  0  0  0  0  0  0  0  0  0  0
   -0.4905    0.6128    8.0232 H   0  0  0  0  0  0  0  0  0  0  0  0
   -0.4317    1.7654    6.7925 H   0  0  0  0  0  0  0  0  0  0  0  0
   -1.2486   -0.5742    6.2975 H   0  0  0  0  0  0  0  0  0  0  0  0
   -0.7509   -0.9937    4.1757 H   0  0  0  0  0  0  0  0  0  0  0  0
    1.3106    1.9101    5.3448 H   0  0  0  0  0  0  0  0  0  0  0  0
    3.9926    2.4121    4.0754 H   0  0  0  0  0  0  0  0  0  0  0  0
    3.7750    2.2355    5.8041 H   0  0  0  0  0  0  0  0  0  0  0  0
    2.9921    3.5367    4.9656 H   0  0  0  0  0  0  0  0  0  0  0  0
    1.5057    3.2524    3.2357 H   0  0  0  0  0  0  0  0  0  0  0  0
    2.0075    1.8117    2.4226 H   0  0  0  0  0  0  0  0  0  0  0  0
   -0.2375    1.8878    1.8704 H   0  0  0  0  0  0  0  0  0  0  0  0
   -1.7319    0.4572    3.1598 H   0  0  0  0  0  0  0  0  0  0  0  0
   -1.7751    3.2893    5.6665 H   0  0  0  0  0  0  0  0  0  0  0  0
   -1.0634    4.4656    4.5532 H   0  0  0  0  0  0  0  0  0  0  0  0
   -0.0238    3.3674    5.3838 H   0  0  0  0  0  0  0  0  0  0  0  0
   -3.3162    2.8995    3.6356 H   0  0  0  0  0  0  0  0  0  0  0  0
   -2.6100    2.3282    2.1218 H   0  0  0  0  0  0  0  0  0  0  0  0
   -2.2997    3.9747    2.6536 H   0  0  0  0  0  0  0  0  0  0  0  0
    2.4025   -1.9668    5.4767 H   0  0  0  0  0  0  0  0  0  0  0  0
    1.3136   -2.7633    8.0979 H   0  0  0  0  0  0  0  0  0  0  0  0
   -0.3137   -2.1466    8.2698 H   0  0  0  0  0  0  0  0  0  0  0  0
    1.0584   -1.1249    8.6160 H   0  0  0  0  0  0  0  0  0  0  0  0
    0.6983   -3.6640    6.0974 H   0  0  0  0  0  0  0  0  0  0  0  0
    0.3558   -2.7835    4.6447 H   0  0  0  0  0  0  0  0  0  0  0  0
   -0.8859   -2.9408    5.8837 H   0  0  0  0  0  0  0  0  0  0  0  0
  1  2  1  0
  1 28  1  0
  1 29  1  0
  1 30  1  0
  2  3  1  0
  3  4  2  0
  3  5  1  0
 15  5  1  6
  5  6  2  0
  6  7  1  0
  6 31  1  0
  7 24  1  0
  7  8  1  0
  7 32  1  1
  8  9  2  0
  8 33  1  0
  9 10  1  0
  9 11  1  0
 10 34  1  0
 10 35  1  0
 10 36  1  0
 11 12  1  0
 11 37  1  0
 11 38  1  0
 12 25  1  0
 12 13  1  0
 12 39  1  6
 13 20  1  0
 13 14  1  0
 13 40  1  6
 14 15  1  0
 15 16  1  0
 15 24  1  0
 16 17  1  0
 16 18  1  0
 16 41  1  1
 17 42  1  0
 17 43  1  0
 17 44  1  0
 18 19  1  0
 18 45  1  0
 18 46  1  0
 19 21  1  0
 19 20  1  0
 19 47  1  6
 20 21  1  0
 20 48  1  6
 21 22  1  0
 21 23  1  0
 22 49  1  0
 22 50  1  0
 22 51  1  0
 23 52  1  0
 23 53  1  0
 23 54  1  0
 24 25  1  0
 24 55  1  6
 25 26  1  0
 25 27  1  0
 26 56  1  0
 26 57  1  0
 26 58  1  0
 27 59  1  0
 27 60  1  0
 27 61  1  0
M  END
>  <i_m_ct_stereo_status>  (62) 
1

>  <s_m_source_file>  (62) 
/var/tmp/pbs.5076255.sched01/tmpkni74bsw/0nq93mkxh.sdf

>  <i_m_source_file_index>  (62) 
27

>  <i_lp_mmshare_version>  (62) 
48012

>  <i_f3d_flags>  (62) 
0

>  <s_epik_input>  (62) 
W0NIM11PQyg9TylDMT1bQ0hdW0NASF0oW0NAQEhdMltDQEBdMTM0KVtDSF09QyhbQ0gzXSlbQ0gyXVtDQEhdKEMyKFtDSDNdKVtDSDNdKVtDQEhdKE8zKVtDQEBIXTVbQ0BASF0oQzUoW0NIM10pW0NIM10pW0NIMl1bQ0BASF00W0NIM10=

>  <s_epik_cmdline>  (62) 
J2VwaWtfcHl0aG9uJywgJy1waHQnLCAnMi4wJywgJy1waCcsICc3LjAnLCAnLXRuJywgJzgnLCAnLW1hJywgJzIwMCcsICctaW1hZScsICc8aW5maWxlLm1hZT4nLCAnLW9tYWUnLCAnPG91dGZpbGUubWFlPic=

>  <r_lp_tautomer_probability>  (62) 
1

>  <r_epik_Ionization_Penalty>  (62) 
4.24539e-13

>  <r_epik_Ionization_Penalty_Charging>  (62) 
0

>  <r_epik_Ionization_Penalty_Neutral>  (62) 
4.24539e-13

>  <r_epik_State_Penalty>  (62) 
-0

>  <r_epik_Charging_Adjusted_Penalty>  (62) 
0

>  <i_epik_Tot_Q>  (62) 
0

>  <i_epik_Tot_abs_Q>  (62) 
0

>  <s_epik_Chemistry_Notes>  (62) 
This compound has an ester and may undergo hydrolysis at high or low pH.

>  <s_lp_Force_Field>  (62) 
OPLS3e

>  <r_lp_Energy>  (62) 
124.519

>  <b_lp_Chiralities_Consistent>  (62) 
1

>  <s_lp_Variant>  (62) 
16:0-1

>  <s_i_glide_gridfile>  (62) 
pfpi4k_grid

>  <i_i_glide_lignum>  (62) 
27

>  <i_i_glide_rotatable_bonds>  (62) 
2

>  <r_i_docking_score>  (62) 
-1.99616

>  <r_i_glide_ligand_efficiency>  (62) 
-0.073932

>  <r_i_glide_ligand_efficiency_sa>  (62) 
-0.221796

>  <r_i_glide_ligand_efficiency_ln>  (62) 
-0.464674

>  <r_i_glide_gscore>  (62) 
-1.99616

>  <r_i_glide_lipo>  (62) 
-0.00254462

>  <r_i_glide_hbond>  (62) 
-0.0483679

>  <r_i_glide_metal>  (62) 
-0

>  <r_i_glide_rewards>  (62) 
-0.952433

>  <r_i_glide_evdw>  (62) 
-24.1429

>  <r_i_glide_ecoul>  (62) 
0.491971

>  <r_i_glide_erotb>  (62) 
0.140529

>  <r_i_glide_esite>  (62) 
0

>  <r_i_glide_emodel>  (62) 
-25.526

>  <r_i_glide_energy>  (62) 
-23.6509

>  <r_i_glide_einternal>  (62) 
2.42147

>  <r_i_glide_intrahb_reward>  (62) 
-0

>  <i_i_glide_confnum>  (62) 
2

>  <i_i_glide_posenum>  (62) 
2

>  <r_i_glide_eff_state_penalty>  (62) 
0

>  <ligand_id>  (62) 
16

>  <original_smiles>  (62) 
COC(=O)C1=CC2C=C(C)CC3C4OC1(C(C)CC1C4C1(C)C)C2C3(C)C

>  <smiles>  (62) 
[H]C1=C(C([H])([H])[H])C([H])([H])C2([H])C3([H])OC4(C(C(=O)OC([H])([H])[H])=C([H])C1([H])C4([H])C2(C([H])([H])[H])C([H])([H])[H])C([H])(C([H])([H])[H])C([H])([H])C1([H])C3([H])C1(C([H])([H])[H])C([H])([H])[H]

$$$$
17:0:0
     RDKit          3D

 79 84  0  0  1  0  0  0  0  0999 V2000
   -0.6467   -9.3823    3.0085 C   0  0  0  0  0  0  0  0  0  0  0  0
    0.7931   -9.8388    2.7349 C   0  0  2  0  0  0  0  0  0  0  0  0
    1.2508  -11.0359    3.5647 C   0  0  0  0  0  0  0  0  0  0  0  0
    2.7675  -11.0233    3.4054 C   0  0  0  0  0  0  0  0  0  0  0  0
    3.1872   -9.5364    3.3989 C   0  0  2  0  0  0  0  0  0  0  0  0
    4.4529   -9.3766    2.5275 C   0  0  0  0  0  0  0  0  0  0  0  0
    3.5069   -9.1052    4.8517 C   0  0  0  0  0  0  0  0  0  0  0  0
    3.3690   -7.5913    5.0881 C   0  0  0  0  0  0  0  0  0  0  0  0
    1.9638   -7.0138    4.7557 C   0  0  2  0  0  0  0  0  0  0  0  0
    0.9578   -7.7910    5.6519 C   0  0  0  0  0  0  0  0  0  0  0  0
    1.6659   -7.3204    3.2536 C   0  0  1  0  0  0  0  0  0  0  0  0
    2.4054   -6.3391    2.3213 C   0  0  0  0  0  0  0  0  0  0  0  0
    2.1800   -4.8595    2.6605 C   0  0  0  0  0  0  0  0  0  0  0  0
    2.5922   -4.4330    4.1016 C   0  0  2  0  0  0  0  0  0  0  0  0
    4.1311   -4.6249    4.2942 C   0  0  0  0  0  0  0  0  0  0  0  0
    1.8392   -5.4458    5.0866 C   0  0  1  0  0  0  0  0  0  0  0  0
    0.3530   -5.0382    5.2969 C   0  0  0  0  0  0  0  0  0  0  0  0
    0.1392   -3.5798    5.6470 C   0  0  0  0  0  0  0  0  0  0  0  0
    0.6856   -2.7034    4.5308 C   0  0  1  0  0  0  0  0  0  0  0  0
    0.2040   -1.2532    4.7264 C   0  0  0  0  0  0  0  0  0  0  0  0
    0.5930   -0.3829    3.5416 C   0  0  0  0  0  0  0  0  0  0  0  0
    2.1194   -0.4175    3.3479 C   0  0  0  0  0  0  0  0  0  0  0  0
    2.4080    0.3483    2.2241 O   0  0  0  0  0  0  0  0  0  0  0  0
    2.4332    1.6862    2.6787 C   0  0  0  0  0  0  0  0  0  0  0  0
    2.9624    1.5354    4.1033 C   0  0  0  0  0  0  0  0  0  0  0  0
    2.7407    0.1765    4.4344 O   0  0  0  0  0  0  0  0  0  0  0  0
    2.6295   -1.8923    3.1512 C   0  0  1  0  0  0  0  0  0  0  0  0
    4.1067   -1.8660    2.6832 C   0  0  0  0  0  0  0  0  0  0  0  0
    2.2359   -2.8663    4.3614 C   0  0  2  0  0  0  0  0  0  0  0  0
    2.9500   -2.4153    5.6831 C   0  0  0  0  0  0  0  0  0  0  0  0
    1.9525   -8.7990    2.7814 C   0  0  2  0  0  0  0  0  0  0  0  0
   -0.8101   -9.1092    4.0479 H   0  0  0  0  0  0  0  0  0  0  0  0
   -1.3383  -10.1953    2.7924 H   0  0  0  0  0  0  0  0  0  0  0  0
   -0.9358   -8.5459    2.3736 H   0  0  0  0  0  0  0  0  0  0  0  0
    0.7829  -10.2075    1.7065 H   0  0  0  0  0  0  0  0  0  0  0  0
    0.9775  -10.9272    4.6142 H   0  0  0  0  0  0  0  0  0  0  0  0
    0.8131  -11.9692    3.2094 H   0  0  0  0  0  0  0  0  0  0  0  0
    3.2638  -11.6084    4.1788 H   0  0  0  0  0  0  0  0  0  0  0  0
    3.0202  -11.4945    2.4547 H   0  0  0  0  0  0  0  0  0  0  0  0
    4.8180   -8.3515    2.5100 H   0  0  0  0  0  0  0  0  0  0  0  0
    4.2721   -9.6794    1.4954 H   0  0  0  0  0  0  0  0  0  0  0  0
    5.2649  -10.0022    2.8983 H   0  0  0  0  0  0  0  0  0  0  0  0
    2.9112   -9.6681    5.5693 H   0  0  0  0  0  0  0  0  0  0  0  0
    4.5293   -9.3949    5.0936 H   0  0  0  0  0  0  0  0  0  0  0  0
    3.6405   -7.3566    6.1176 H   0  0  0  0  0  0  0  0  0  0  0  0
    4.1367   -7.1433    4.4704 H   0  0  0  0  0  0  0  0  0  0  0  0
   -0.0791   -7.5469    5.4287 H   0  0  0  0  0  0  0  0  0  0  0  0
    1.1373   -7.5954    6.7102 H   0  0  0  0  0  0  0  0  0  0  0  0
    0.9948   -8.8651    5.5172 H   0  0  0  0  0  0  0  0  0  0  0  0
    0.6134   -7.1053    3.0844 H   0  0  0  0  0  0  0  0  0  0  0  0
    3.4666   -6.5692    2.2949 H   0  0  0  0  0  0  0  0  0  0  0  0
    2.0620   -6.4953    1.2987 H   0  0  0  0  0  0  0  0  0  0  0  0
    2.7193   -4.2844    1.9116 H   0  0  0  0  0  0  0  0  0  0  0  0
    1.1250   -4.6494    2.4975 H   0  0  0  0  0  0  0  0  0  0  0  0
    4.3652   -5.0516    5.2677 H   0  0  0  0  0  0  0  0  0  0  0  0
    4.7140   -3.7150    4.2734 H   0  0  0  0  0  0  0  0  0  0  0  0
    4.5903   -5.2450    3.5323 H   0  0  0  0  0  0  0  0  0  0  0  0
    2.2841   -5.3182    6.0738 H   0  0  0  0  0  0  0  0  0  0  0  0
   -0.2296   -5.2926    4.4119 H   0  0  0  0  0  0  0  0  0  0  0  0
   -0.0879   -5.5700    6.1372 H   0  0  0  0  0  0  0  0  0  0  0  0
   -0.9262   -3.3997    5.7655 H   0  0  0  0  0  0  0  0  0  0  0  0
    0.5941   -3.3411    6.6084 H   0  0  0  0  0  0  0  0  0  0  0  0
    0.2071   -3.0339    3.6062 H   0  0  0  0  0  0  0  0  0  0  0  0
   -0.8809   -1.2409    4.8149 H   0  0  0  0  0  0  0  0  0  0  0  0
    0.5724   -0.8149    5.6522 H   0  0  0  0  0  0  0  0  0  0  0  0
    0.1371   -0.7465    2.6204 H   0  0  0  0  0  0  0  0  0  0  0  0
    0.2336    0.6297    3.7185 H   0  0  0  0  0  0  0  0  0  0  0  0
    3.0590    2.3318    2.0809 H   0  0  0  0  0  0  0  0  0  0  0  0
    1.4254    2.1060    2.6647 H   0  0  0  0  0  0  0  0  0  0  0  0
    4.0298    1.7481    4.1508 H   0  0  0  0  0  0  0  0  0  0  0  0
    2.4510    2.2004    4.8000 H   0  0  0  0  0  0  0  0  0  0  0  0
    2.0674   -2.2293    2.2822 H   0  0  0  0  0  0  0  0  0  0  0  0
    4.7847   -1.5480    3.4732 H   0  0  0  0  0  0  0  0  0  0  0  0
    4.2518   -1.1856    1.8447 H   0  0  0  0  0  0  0  0  0  0  0  0
    4.4337   -2.8369    2.3110 H   0  0  0  0  0  0  0  0  0  0  0  0
    2.4965   -1.5430    6.1447 H   0  0  0  0  0  0  0  0  0  0  0  0
    3.9904   -2.1421    5.5281 H   0  0  0  0  0  0  0  0  0  0  0  0
    2.9362   -3.1898    6.4472 H   0  0  0  0  0  0  0  0  0  0  0  0
    2.1802   -8.6976    1.7184 H   0  0  0  0  0  0  0  0  0  0  0  0
  1  2  1  0
  1 32  1  0
  1 33  1  0
  1 34  1  0
  2 31  1  0
  2  3  1  0
  2 35  1  6
  3  4  1  0
  3 36  1  0
  3 37  1  0
  4  5  1  0
  4 38  1  0
  4 39  1  0
  5 31  1  0
  5  6  1  6
  5  7  1  0
  6 40  1  0
  6 41  1  0
  6 42  1  0
  7  8  1  0
  7 43  1  0
  7 44  1  0
  8  9  1  0
  8 45  1  0
  8 46  1  0
  9 16  1  0
  9 10  1  1
  9 11  1  0
 10 47  1  0
 10 48  1  0
 10 49  1  0
 11 12  1  0
 11 31  1  0
 11 50  1  1
 12 13  1  0
 12 51  1  0
 12 52  1  0
 13 14  1  0
 13 53  1  0
 13 54  1  0
 14 29  1  0
 14 15  1  6
 14 16  1  0
 15 55  1  0
 15 56  1  0
 15 57  1  0
 16 17  1  0
 16 58  1  1
 17 18  1  0
 17 59  1  0
 17 60  1  0
 18 19  1  0
 18 61  1  0
 18 62  1  0
 19 29  1  0
 19 20  1  0
 19 63  1  6
 20 21  1  0
 20 64  1  0
 20 65  1  0
 21 22  1  0
 21 66  1  0
 21 67  1  0
 22 26  1  0
 22 23  1  0
 22 27  1  0
 23 24  1  0
 24 25  1  0
 24 68  1  0
 24 69  1  0
 25 26  1  0
 25 70  1  0
 25 71  1  0
 27 28  1  0
 27 29  1  0
 27 72  1  6
 28 73  1  0
 28 74  1  0
 28 75  1  0
 29 30  1  1
 30 76  1  0
 30 77  1  0
 30 78  1  0
 31 79  1  6
M  END
>  <i_m_ct_stereo_status>  (63) 
1

>  <s_m_source_file>  (63) 
/var/tmp/pbs.5076255.sched01/tmpkni74bsw/0nq93mkxh.sdf

>  <i_m_source_file_index>  (63) 
28

>  <i_lp_mmshare_version>  (63) 
48012

>  <i_f3d_flags>  (63) 
0

>  <s_epik_input>  (63) 
W0NIM11bQ0BASF0xW0NIMl1bQ0gyXVtDQF0oW0NIM10pKFtDSDJdW0NIMl0yKVtDQEBIXTFbQ0BIXShbQ0gyXVtDSDJdMylbQ0BdMihbQ0gzXSlbQ0BIXShbQ0gyXVtDSDJdNClbQ0BdMyhbQ0gzXSlbQ0BAXShbQ0gzXSkoW0NAQEhdNVtDSDNdKVtDQEBIXTRbQ0gyXVtDSDJdQzU2T1tDSDJdW0NIMl1PNg==

>  <s_epik_cmdline>  (63) 
J2VwaWtfcHl0aG9uJywgJy1waHQnLCAnMi4wJywgJy1waCcsICc3LjAnLCAnLXRuJywgJzgnLCAnLW1hJywgJzIwMCcsICctaW1hZScsICc8aW5maWxlLm1hZT4nLCAnLW9tYWUnLCAnPG91dGZpbGUubWFlPic=

>  <r_lp_tautomer_probability>  (63) 
1

>  <r_epik_Ionization_Penalty>  (63) 
5.19918e-13

>  <r_epik_Ionization_Penalty_Charging>  (63) 
0

>  <r_epik_Ionization_Penalty_Neutral>  (63) 
5.19918e-13

>  <r_epik_State_Penalty>  (63) 
-0

>  <r_epik_Charging_Adjusted_Penalty>  (63) 
0

>  <i_epik_Tot_Q>  (63) 
0

>  <i_epik_Tot_abs_Q>  (63) 
0

>  <s_lp_Force_Field>  (63) 
OPLS3e

>  <r_lp_Energy>  (63) 
91.9165

>  <b_lp_Chiralities_Consistent>  (63) 
1

>  <s_lp_Variant>  (63) 
17:0-1

>  <s_i_glide_gridfile>  (63) 
pfpi4k_grid

>  <i_i_glide_lignum>  (63) 
28

>  <i_i_glide_rotatable_bonds>  (63) 
0

>  <r_i_docking_score>  (63) 
-2.34466

>  <r_i_glide_ligand_efficiency>  (63) 
-0.075634

>  <r_i_glide_ligand_efficiency_sa>  (63) 
-0.237595

>  <r_i_glide_ligand_efficiency_ln>  (63) 
-0.528792

>  <r_i_glide_gscore>  (63) 
-2.34466

>  <r_i_glide_lipo>  (63) 
-0.301307

>  <r_i_glide_hbond>  (63) 
0

>  <r_i_glide_metal>  (63) 
-0

>  <r_i_glide_rewards>  (63) 
-0.486203

>  <r_i_glide_evdw>  (63) 
-28.2501

>  <r_i_glide_ecoul>  (63) 
-0.951237

>  <r_i_glide_erotb>  (63) 
0

>  <r_i_glide_esite>  (63) 
-0.00195374

>  <r_i_glide_emodel>  (63) 
-33.1955

>  <r_i_glide_energy>  (63) 
-29.2014

>  <r_i_glide_einternal>  (63) 
0

>  <r_i_glide_intrahb_reward>  (63) 
-0

>  <i_i_glide_confnum>  (63) 
1

>  <i_i_glide_posenum>  (63) 
8

>  <r_i_glide_eff_state_penalty>  (63) 
0

>  <ligand_id>  (63) 
17

>  <original_smiles>  (63) 
CC1CCC2(C)CCC3(C)C(CCC4(C)C3CCC3CCC5(OCCO5)C(C)C34C)C12

>  <smiles>  (63) 
[H]C([H])([H])C1([H])C([H])([H])C([H])([H])C2(C([H])([H])[H])C([H])([H])C([H])([H])C3(C([H])([H])[H])C([H])(C([H])([H])C([H])([H])C4(C([H])([H])[H])C3([H])C([H])([H])C([H])([H])C3([H])C([H])([H])C([H])([H])C5(OC([H])([H])C([H])([H])O5)C([H])(C([H])([H])[H])C34C([H])([H])[H])C12[H]

$$$$
17:0:1
     RDKit          3D

 79 84  0  0  1  0  0  0  0  0999 V2000
   -0.7238   -9.3889    2.9248 C   0  0  0  0  0  0  0  0  0  0  0  0
    0.7430   -9.8122    2.7539 C   0  0  2  0  0  0  0  0  0  0  0  0
    1.1383  -11.0699    3.5251 C   0  0  0  0  0  0  0  0  0  0  0  0
    2.6626  -11.0378    3.5041 C   0  0  0  0  0  0  0  0  0  0  0  0
    3.0613   -9.5528    3.6618 C   0  0  2  0  0  0  0  0  0  0  0  0
    4.4005   -9.3157    2.9281 C   0  0  0  0  0  0  0  0  0  0  0  0
    3.2413   -9.2383    5.1684 C   0  0  0  0  0  0  0  0  0  0  0  0
    3.0613   -7.7500    5.5096 C   0  0  0  0  0  0  0  0  0  0  0  0
    1.6841   -7.1562    5.0964 C   0  0  2  0  0  0  0  0  0  0  0  0
    0.6107   -8.0081    5.8299 C   0  0  0  0  0  0  0  0  0  0  0  0
    1.5309   -7.3411    3.5531 C   0  0  1  0  0  0  0  0  0  0  0  0
    2.3373   -6.2828    2.7728 C   0  0  0  0  0  0  0  0  0  0  0  0
    2.0577   -4.8388    3.2063 C   0  0  0  0  0  0  0  0  0  0  0  0
    2.3338   -4.5317    4.7097 C   0  0  2  0  0  0  0  0  0  0  0  0
    3.8514   -4.7313    5.0320 C   0  0  0  0  0  0  0  0  0  0  0  0
    1.5068   -5.6206    5.5369 C   0  0  1  0  0  0  0  0  0  0  0  0
    0.0029   -5.2346    5.6395 C   0  0  0  0  0  0  0  0  0  0  0  0
   -0.2574   -3.8056    6.0810 C   0  0  0  0  0  0  0  0  0  0  0  0
    0.3747   -2.8361    5.0924 C   0  0  1  0  0  0  0  0  0  0  0  0
   -0.1244   -1.3957    5.3495 C   0  0  0  0  0  0  0  0  0  0  0  0
    0.3912   -0.4334    4.2761 C   0  0  0  0  0  0  0  0  0  0  0  0
    1.9288   -0.4805    4.2320 C   0  0  0  0  0  0  0  0  0  0  0  0
    2.3349    0.3658    3.2059 O   0  0  0  0  0  0  0  0  0  0  0  0
    3.3207    1.2235    3.7446 C   0  0  0  0  0  0  0  0  0  0  0  0
    2.9068    1.3072    5.1996 C   0  0  0  0  0  0  0  0  0  0  0  0
    2.4385   -0.0002    5.4327 O   0  0  0  0  0  0  0  0  0  0  0  0
    2.4376   -1.9408    3.9652 C   0  0  1  0  0  0  0  0  0  0  0  0
    3.9472   -1.9160    3.6198 C   0  0  0  0  0  0  0  0  0  0  0  0
    1.9379   -2.9940    5.0581 C   0  0  2  0  0  0  0  0  0  0  0  0
    2.5198   -2.6492    6.4747 C   0  0  0  0  0  0  0  0  0  0  0  0
    1.8786   -8.7739    2.9914 C   0  0  2  0  0  0  0  0  0  0  0  0
   -0.9850   -9.2026    3.9625 H   0  0  0  0  0  0  0  0  0  0  0  0
   -1.3784  -10.1877    2.5800 H   0  0  0  0  0  0  0  0  0  0  0  0
   -0.9647   -8.5050    2.3360 H   0  0  0  0  0  0  0  0  0  0  0  0
    0.8364  -10.0953    1.7030 H   0  0  0  0  0  0  0  0  0  0  0  0
    0.7710  -11.0456    4.5500 H   0  0  0  0  0  0  0  0  0  0  0  0
    0.7459  -11.9737    3.0589 H   0  0  0  0  0  0  0  0  0  0  0  0
    3.0944  -11.6827    4.2678 H   0  0  0  0  0  0  0  0  0  0  0  0
    3.0088  -11.4234    2.5419 H   0  0  0  0  0  0  0  0  0  0  0  0
    4.7516   -8.2917    3.0282 H   0  0  0  0  0  0  0  0  0  0  0  0
    4.3203   -9.5351    1.8634 H   0  0  0  0  0  0  0  0  0  0  0  0
    5.1832   -9.9656    3.3230 H   0  0  0  0  0  0  0  0  0  0  0  0
    2.5879   -9.8606    5.7804 H   0  0  0  0  0  0  0  0  0  0  0  0
    4.2388   -9.5417    5.4802 H   0  0  0  0  0  0  0  0  0  0  0  0
    3.2338   -7.5948    6.5748 H   0  0  0  0  0  0  0  0  0  0  0  0
    3.8768   -7.2490    5.0035 H   0  0  0  0  0  0  0  0  0  0  0  0
   -0.4028   -7.7516    5.5275 H   0  0  0  0  0  0  0  0  0  0  0  0
    0.6888   -7.8952    6.9121 H   0  0  0  0  0  0  0  0  0  0  0  0
    0.6742   -9.0674    5.6144 H   0  0  0  0  0  0  0  0  0  0  0  0
    0.4956   -7.1183    3.3055 H   0  0  0  0  0  0  0  0  0  0  0  0
    3.3999   -6.5020    2.8279 H   0  0  0  0  0  0  0  0  0  0  0  0
    2.0948   -6.3605    1.7138 H   0  0  0  0  0  0  0  0  0  0  0  0
    2.6589   -4.2068    2.5580 H   0  0  0  0  0  0  0  0  0  0  0  0
    1.0217   -4.6175    2.9582 H   0  0  0  0  0  0  0  0  0  0  0  0
    4.0005   -5.2342    5.9853 H   0  0  0  0  0  0  0  0  0  0  0  0
    4.4232   -3.8236    5.1507 H   0  0  0  0  0  0  0  0  0  0  0  0
    4.3882   -5.2790    4.2662 H   0  0  0  0  0  0  0  0  0  0  0  0
    1.8591   -5.5702    6.5676 H   0  0  0  0  0  0  0  0  0  0  0  0
   -0.4923   -5.4211    4.6878 H   0  0  0  0  0  0  0  0  0  0  0  0
   -0.5061   -5.8348    6.3898 H   0  0  0  0  0  0  0  0  0  0  0  0
   -1.3327   -3.6403    6.1196 H   0  0  0  0  0  0  0  0  0  0  0  0
    0.1059   -3.6455    7.0961 H   0  0  0  0  0  0  0  0  0  0  0  0
   -0.0210   -3.0932    4.1068 H   0  0  0  0  0  0  0  0  0  0  0  0
   -1.2157   -1.3881    5.3306 H   0  0  0  0  0  0  0  0  0  0  0  0
    0.1423   -1.0379    6.3417 H   0  0  0  0  0  0  0  0  0  0  0  0
   -0.0003   -0.7213    3.2970 H   0  0  0  0  0  0  0  0  0  0  0  0
    0.0563    0.5837    4.4793 H   0  0  0  0  0  0  0  0  0  0  0  0
    4.3114    0.7754    3.6713 H   0  0  0  0  0  0  0  0  0  0  0  0
    3.3495    2.1907    3.2473 H   0  0  0  0  0  0  0  0  0  0  0  0
    3.7415    1.5487    5.8585 H   0  0  0  0  0  0  0  0  0  0  0  0
    2.1167    2.0432    5.3504 H   0  0  0  0  0  0  0  0  0  0  0  0
    1.9436   -2.2022    3.0301 H   0  0  0  0  0  0  0  0  0  0  0  0
    4.5473   -1.6101    4.4753 H   0  0  0  0  0  0  0  0  0  0  0  0
    4.1595   -1.2259    2.8047 H   0  0  0  0  0  0  0  0  0  0  0  0
    4.3157   -2.8742    3.2586 H   0  0  0  0  0  0  0  0  0  0  0  0
    2.0111   -1.8247    6.9648 H   0  0  0  0  0  0  0  0  0  0  0  0
    3.5649   -2.3530    6.4365 H   0  0  0  0  0  0  0  0  0  0  0  0
    2.4516   -3.4844    7.1688 H   0  0  0  0  0  0  0  0  0  0  0  0
    2.2043   -8.5853    1.9682 H   0  0  0  0  0  0  0  0  0  0  0  0
  1  2  1  0
  1 32  1  0
  1 33  1  0
  1 34  1  0
  2 31  1  0
  2  3  1  0
  2 35  1  6
  3  4  1  0
  3 36  1  0
  3 37  1  0
  4  5  1  0
  4 38  1  0
  4 39  1  0
  5 31  1  0
  5  6  1  6
  5  7  1  0
  6 40  1  0
  6 41  1  0
  6 42  1  0
  7  8  1  0
  7 43  1  0
  7 44  1  0
  8  9  1  0
  8 45  1  0
  8 46  1  0
  9 16  1  0
  9 10  1  1
  9 11  1  0
 10 47  1  0
 10 48  1  0
 10 49  1  0
 11 12  1  0
 11 31  1  0
 11 50  1  1
 12 13  1  0
 12 51  1  0
 12 52  1  0
 13 14  1  0
 13 53  1  0
 13 54  1  0
 14 29  1  0
 14 15  1  6
 14 16  1  0
 15 55  1  0
 15 56  1  0
 15 57  1  0
 16 17  1  0
 16 58  1  1
 17 18  1  0
 17 59  1  0
 17 60  1  0
 18 19  1  0
 18 61  1  0
 18 62  1  0
 19 29  1  0
 19 20  1  0
 19 63  1  6
 20 21  1  0
 20 64  1  0
 20 65  1  0
 21 22  1  0
 21 66  1  0
 21 67  1  0
 22 26  1  0
 22 23  1  0
 22 27  1  0
 23 24  1  0
 24 25  1  0
 24 68  1  0
 24 69  1  0
 25 26  1  0
 25 70  1  0
 25 71  1  0
 27 28  1  0
 27 29  1  0
 27 72  1  6
 28 73  1  0
 28 74  1  0
 28 75  1  0
 29 30  1  1
 30 76  1  0
 30 77  1  0
 30 78  1  0
 31 79  1  6
M  END
>  <i_m_ct_stereo_status>  (64) 
1

>  <s_m_source_file>  (64) 
/var/tmp/pbs.5076255.sched01/tmpkni74bsw/0nq93mkxh.sdf

>  <i_m_source_file_index>  (64) 
28

>  <i_lp_mmshare_version>  (64) 
48012

>  <i_f3d_flags>  (64) 
0

>  <s_epik_input>  (64) 
W0NIM11bQ0BASF0xW0NIMl1bQ0gyXVtDQF0oW0NIM10pKFtDSDJdW0NIMl0yKVtDQEBIXTFbQ0BIXShbQ0gyXVtDSDJdMylbQ0BdMihbQ0gzXSlbQ0BIXShbQ0gyXVtDSDJdNClbQ0BdMyhbQ0gzXSlbQ0BAXShbQ0gzXSkoW0NAQEhdNVtDSDNdKVtDQEBIXTRbQ0gyXVtDSDJdQzU2T1tDSDJdW0NIMl1PNg==

>  <s_epik_cmdline>  (64) 
J2VwaWtfcHl0aG9uJywgJy1waHQnLCAnMi4wJywgJy1waCcsICc3LjAnLCAnLXRuJywgJzgnLCAnLW1hJywgJzIwMCcsICctaW1hZScsICc8aW5maWxlLm1hZT4nLCAnLW9tYWUnLCAnPG91dGZpbGUubWFlPic=

>  <r_lp_tautomer_probability>  (64) 
1

>  <r_epik_Ionization_Penalty>  (64) 
5.19918e-13

>  <r_epik_Ionization_Penalty_Charging>  (64) 
0

>  <r_epik_Ionization_Penalty_Neutral>  (64) 
5.19918e-13

>  <r_epik_State_Penalty>  (64) 
-0

>  <r_epik_Charging_Adjusted_Penalty>  (64) 
0

>  <i_epik_Tot_Q>  (64) 
0

>  <i_epik_Tot_abs_Q>  (64) 
0

>  <s_lp_Force_Field>  (64) 
OPLS3e

>  <r_lp_Energy>  (64) 
91.9165

>  <b_lp_Chiralities_Consistent>  (64) 
1

>  <s_lp_Variant>  (64) 
17:0-1

>  <s_i_glide_gridfile>  (64) 
pfpi4k_grid

>  <i_i_glide_lignum>  (64) 
28

>  <i_i_glide_rotatable_bonds>  (64) 
0

>  <r_i_docking_score>  (64) 
-2.18157

>  <r_i_glide_ligand_efficiency>  (64) 
-0.0703731

>  <r_i_glide_ligand_efficiency_sa>  (64) 
-0.221069

>  <r_i_glide_ligand_efficiency_ln>  (64) 
-0.49201

>  <r_i_glide_gscore>  (64) 
-2.18157

>  <r_i_glide_lipo>  (64) 
-0.277981

>  <r_i_glide_hbond>  (64) 
0

>  <r_i_glide_metal>  (64) 
-0

>  <r_i_glide_rewards>  (64) 
-0.486203

>  <r_i_glide_evdw>  (64) 
-26.3957

>  <r_i_glide_ecoul>  (64) 
-0.646825

>  <r_i_glide_erotb>  (64) 
0

>  <r_i_glide_esite>  (64) 
-0.000576118

>  <r_i_glide_emodel>  (64) 
-30.6706

>  <r_i_glide_energy>  (64) 
-27.0425

>  <r_i_glide_einternal>  (64) 
0

>  <r_i_glide_intrahb_reward>  (64) 
-0

>  <i_i_glide_confnum>  (64) 
5

>  <i_i_glide_posenum>  (64) 
32

>  <r_i_glide_eff_state_penalty>  (64) 
0

>  <ligand_id>  (64) 
17

>  <original_smiles>  (64) 
CC1CCC2(C)CCC3(C)C(CCC4(C)C3CCC3CCC5(OCCO5)C(C)C34C)C12

>  <smiles>  (64) 
[H]C([H])([H])C1([H])C([H])([H])C([H])([H])C2(C([H])([H])[H])C([H])([H])C([H])([H])C3(C([H])([H])[H])C([H])(C([H])([H])C([H])([H])C4(C([H])([H])[H])C3([H])C([H])([H])C([H])([H])C3([H])C([H])([H])C([H])([H])C5(OC([H])([H])C([H])([H])O5)C([H])(C([H])([H])[H])C34C([H])([H])[H])C12[H]

$$$$
17:0:2
     RDKit          3D

 79 84  0  0  1  0  0  0  0  0999 V2000
    0.0912   -9.2688    3.9068 C   0  0  0  0  0  0  0  0  0  0  0  0
    1.3914   -9.5035    3.1281 C   0  0  2  0  0  0  0  0  0  0  0  0
    2.2987  -10.5731    3.7341 C   0  0  0  0  0  0  0  0  0  0  0  0
    3.6431  -10.3272    3.0642 C   0  0  0  0  0  0  0  0  0  0  0  0
    3.7882   -8.7977    2.9287 C   0  0  2  0  0  0  0  0  0  0  0  0
    4.6295   -8.4798    1.6719 C   0  0  0  0  0  0  0  0  0  0  0  0
    4.5186   -8.2562    4.1833 C   0  0  0  0  0  0  0  0  0  0  0  0
    4.2249   -6.7744    4.4754 C   0  0  0  0  0  0  0  0  0  0  0  0
    2.7170   -6.4449    4.6650 C   0  0  2  0  0  0  0  0  0  0  0  0
    2.2272   -7.3283    5.8442 C   0  0  0  0  0  0  0  0  0  0  0  0
    1.9714   -6.8599    3.3573 C   0  0  1  0  0  0  0  0  0  0  0  0
    2.1727   -5.8186    2.2401 C   0  0  0  0  0  0  0  0  0  0  0  0
    1.8404   -4.3848    2.6662 C   0  0  0  0  0  0  0  0  0  0  0  0
    2.6524   -3.8345    3.8727 C   0  0  2  0  0  0  0  0  0  0  0  0
    4.1730   -3.7732    3.5149 C   0  0  0  0  0  0  0  0  0  0  0  0
    2.4572   -4.9041    5.0435 C   0  0  1  0  0  0  0  0  0  0  0  0
    1.0858   -4.7225    5.7561 C   0  0  0  0  0  0  0  0  0  0  0  0
    0.7675   -3.3007    6.1770 C   0  0  0  0  0  0  0  0  0  0  0  0
    0.7462   -2.3939    4.9525 C   0  0  1  0  0  0  0  0  0  0  0  0
    0.1459   -1.0153    5.3129 C   0  0  0  0  0  0  0  0  0  0  0  0
   -0.0169   -0.1414    4.0658 C   0  0  0  0  0  0  0  0  0  0  0  0
    1.3384    0.0165    3.3608 C   0  0  0  0  0  0  0  0  0  0  0  0
    1.1104    0.7610    2.2066 O   0  0  0  0  0  0  0  0  0  0  0  0
    2.0562    1.8121    2.2048 C   0  0  0  0  0  0  0  0  0  0  0  0
    2.2831    2.0409    3.6843 C   0  0  0  0  0  0  0  0  0  0  0  0
    2.2065    0.7258    4.1824 O   0  0  0  0  0  0  0  0  0  0  0  0
    1.9484   -1.3805    2.9879 C   0  0  1  0  0  0  0  0  0  0  0  0
    3.1403   -1.1957    2.0198 C   0  0  0  0  0  0  0  0  0  0  0  0
    2.1547   -2.3350    4.2569 C   0  0  2  0  0  0  0  0  0  0  0  0
    3.1986   -1.7199    5.2528 C   0  0  0  0  0  0  0  0  0  0  0  0
    2.3123   -8.2933    2.7891 C   0  0  2  0  0  0  0  0  0  0  0  0
    0.2616   -8.9845    4.9413 H   0  0  0  0  0  0  0  0  0  0  0  0
   -0.4864  -10.1910    3.9282 H   0  0  0  0  0  0  0  0  0  0  0  0
   -0.5374   -8.5149    3.4331 H   0  0  0  0  0  0  0  0  0  0  0  0
    1.0743   -9.9081    2.1627 H   0  0  0  0  0  0  0  0  0  0  0  0
    2.3856  -10.4589    4.8159 H   0  0  0  0  0  0  0  0  0  0  0  0
    1.9262  -11.5796    3.5441 H   0  0  0  0  0  0  0  0  0  0  0  0
    4.4654  -10.7922    3.6047 H   0  0  0  0  0  0  0  0  0  0  0  0
    3.6178  -10.7904    2.0839 H   0  0  0  0  0  0  0  0  0  0  0  0
    4.7943   -7.4118    1.5411 H   0  0  0  0  0  0  0  0  0  0  0  0
    4.1542   -8.8520    0.7640 H   0  0  0  0  0  0  0  0  0  0  0  0
    5.6105   -8.9527    1.7277 H   0  0  0  0  0  0  0  0  0  0  0  0
    4.3080   -8.8723    5.0570 H   0  0  0  0  0  0  0  0  0  0  0  0
    5.5930   -8.3696    4.0490 H   0  0  0  0  0  0  0  0  0  0  0  0
    4.7951   -6.4544    5.3486 H   0  0  0  0  0  0  0  0  0  0  0  0
    4.6470   -6.2400    3.6342 H   0  0  0  0  0  0  0  0  0  0  0  0
    1.1525   -7.2587    5.9994 H   0  0  0  0  0  0  0  0  0  0  0  0
    2.7275   -7.0583    6.7747 H   0  0  0  0  0  0  0  0  0  0  0  0
    2.3893   -8.3874    5.6896 H   0  0  0  0  0  0  0  0  0  0  0  0
    0.9042   -6.8208    3.5687 H   0  0  0  0  0  0  0  0  0  0  0  0
    3.1812   -5.8791    1.8411 H   0  0  0  0  0  0  0  0  0  0  0  0
    1.5253   -6.0700    1.4011 H   0  0  0  0  0  0  0  0  0  0  0  0
    1.9858   -3.7659    1.7839 H   0  0  0  0  0  0  0  0  0  0  0  0
    0.7750   -4.3493    2.8820 H   0  0  0  0  0  0  0  0  0  0  0  0
    4.7985   -4.1136    4.3365 H   0  0  0  0  0  0  0  0  0  0  0  0
    4.5616   -2.7854    3.3121 H   0  0  0  0  0  0  0  0  0  0  0  0
    4.4314   -4.3393    2.6265 H   0  0  0  0  0  0  0  0  0  0  0  0
    3.1891   -4.6641    5.8149 H   0  0  0  0  0  0  0  0  0  0  0  0
    0.2811   -5.1065    5.1283 H   0  0  0  0  0  0  0  0  0  0  0  0
    1.0582   -5.2775    6.6911 H   0  0  0  0  0  0  0  0  0  0  0  0
   -0.2057   -3.2882    6.6640 H   0  0  0  0  0  0  0  0  0  0  0  0
    1.4827   -2.9523    6.9217 H   0  0  0  0  0  0  0  0  0  0  0  0
    0.0313   -2.8358    4.2532 H   0  0  0  0  0  0  0  0  0  0  0  0
   -0.8331   -1.1616    5.7665 H   0  0  0  0  0  0  0  0  0  0  0  0
    0.7306   -0.4950    6.0677 H   0  0  0  0  0  0  0  0  0  0  0  0
   -0.7188   -0.6115    3.3756 H   0  0  0  0  0  0  0  0  0  0  0  0
   -0.4166    0.8370    4.3290 H   0  0  0  0  0  0  0  0  0  0  0  0
    2.9868    1.4953    1.7355 H   0  0  0  0  0  0  0  0  0  0  0  0
    1.6975    2.6982    1.6861 H   0  0  0  0  0  0  0  0  0  0  0  0
    3.2541    2.4866    3.8933 H   0  0  0  0  0  0  0  0  0  0  0  0
    1.5051    2.6731    4.1148 H   0  0  0  0  0  0  0  0  0  0  0  0
    1.1683   -1.8351    2.3807 H   0  0  0  0  0  0  0  0  0  0  0  0
    3.9748   -0.6901    2.5035 H   0  0  0  0  0  0  0  0  0  0  0  0
    2.8565   -0.6018    1.1494 H   0  0  0  0  0  0  0  0  0  0  0  0
    3.4961   -2.1328    1.5956 H   0  0  0  0  0  0  0  0  0  0  0  0
    2.7971   -0.9151    5.8629 H   0  0  0  0  0  0  0  0  0  0  0  0
    4.0576   -1.2881    4.7455 H   0  0  0  0  0  0  0  0  0  0  0  0
    3.5832   -2.4532    5.9605 H   0  0  0  0  0  0  0  0  0  0  0  0
    2.1413   -8.2011    1.7145 H   0  0  0  0  0  0  0  0  0  0  0  0
  1  2  1  0
  1 32  1  0
  1 33  1  0
  1 34  1  0
  2 31  1  0
  2  3  1  0
  2 35  1  6
  3  4  1  0
  3 36  1  0
  3 37  1  0
  4  5  1  0
  4 38  1  0
  4 39  1  0
  5 31  1  0
  5  6  1  6
  5  7  1  0
  6 40  1  0
  6 41  1  0
  6 42  1  0
  7  8  1  0
  7 43  1  0
  7 44  1  0
  8  9  1  0
  8 45  1  0
  8 46  1  0
  9 16  1  0
  9 10  1  1
  9 11  1  0
 10 47  1  0
 10 48  1  0
 10 49  1  0
 11 12  1  0
 11 31  1  0
 11 50  1  1
 12 13  1  0
 12 51  1  0
 12 52  1  0
 13 14  1  0
 13 53  1  0
 13 54  1  0
 14 29  1  0
 14 15  1  6
 14 16  1  0
 15 55  1  0
 15 56  1  0
 15 57  1  0
 16 17  1  0
 16 58  1  1
 17 18  1  0
 17 59  1  0
 17 60  1  0
 18 19  1  0
 18 61  1  0
 18 62  1  0
 19 29  1  0
 19 20  1  0
 19 63  1  6
 20 21  1  0
 20 64  1  0
 20 65  1  0
 21 22  1  0
 21 66  1  0
 21 67  1  0
 22 26  1  0
 22 23  1  0
 22 27  1  0
 23 24  1  0
 24 25  1  0
 24 68  1  0
 24 69  1  0
 25 26  1  0
 25 70  1  0
 25 71  1  0
 27 28  1  0
 27 29  1  0
 27 72  1  6
 28 73  1  0
 28 74  1  0
 28 75  1  0
 29 30  1  1
 30 76  1  0
 30 77  1  0
 30 78  1  0
 31 79  1  6
M  END
>  <i_m_ct_stereo_status>  (65) 
1

>  <s_m_source_file>  (65) 
/var/tmp/pbs.5076255.sched01/tmpkni74bsw/0nq93mkxh.sdf

>  <i_m_source_file_index>  (65) 
28

>  <i_lp_mmshare_version>  (65) 
48012

>  <i_f3d_flags>  (65) 
0

>  <s_epik_input>  (65) 
W0NIM11bQ0BASF0xW0NIMl1bQ0gyXVtDQF0oW0NIM10pKFtDSDJdW0NIMl0yKVtDQEBIXTFbQ0BIXShbQ0gyXVtDSDJdMylbQ0BdMihbQ0gzXSlbQ0BIXShbQ0gyXVtDSDJdNClbQ0BdMyhbQ0gzXSlbQ0BAXShbQ0gzXSkoW0NAQEhdNVtDSDNdKVtDQEBIXTRbQ0gyXVtDSDJdQzU2T1tDSDJdW0NIMl1PNg==

>  <s_epik_cmdline>  (65) 
J2VwaWtfcHl0aG9uJywgJy1waHQnLCAnMi4wJywgJy1waCcsICc3LjAnLCAnLXRuJywgJzgnLCAnLW1hJywgJzIwMCcsICctaW1hZScsICc8aW5maWxlLm1hZT4nLCAnLW9tYWUnLCAnPG91dGZpbGUubWFlPic=

>  <r_lp_tautomer_probability>  (65) 
1

>  <r_epik_Ionization_Penalty>  (65) 
5.19918e-13

>  <r_epik_Ionization_Penalty_Charging>  (65) 
0

>  <r_epik_Ionization_Penalty_Neutral>  (65) 
5.19918e-13

>  <r_epik_State_Penalty>  (65) 
-0

>  <r_epik_Charging_Adjusted_Penalty>  (65) 
0

>  <i_epik_Tot_Q>  (65) 
0

>  <i_epik_Tot_abs_Q>  (65) 
0

>  <s_lp_Force_Field>  (65) 
OPLS3e

>  <r_lp_Energy>  (65) 
91.9165

>  <b_lp_Chiralities_Consistent>  (65) 
1

>  <s_lp_Variant>  (65) 
17:0-1

>  <s_i_glide_gridfile>  (65) 
pfpi4k_grid

>  <i_i_glide_lignum>  (65) 
28

>  <i_i_glide_rotatable_bonds>  (65) 
0

>  <r_i_docking_score>  (65) 
-1.95382

>  <r_i_glide_ligand_efficiency>  (65) 
-0.0630266

>  <r_i_glide_ligand_efficiency_sa>  (65) 
-0.19799

>  <r_i_glide_ligand_efficiency_ln>  (65) 
-0.440647

>  <r_i_glide_gscore>  (65) 
-1.95382

>  <r_i_glide_lipo>  (65) 
-0.0396263

>  <r_i_glide_hbond>  (65) 
0

>  <r_i_glide_metal>  (65) 
-0

>  <r_i_glide_rewards>  (65) 
-0.486203

>  <r_i_glide_evdw>  (65) 
-26.0467

>  <r_i_glide_ecoul>  (65) 
-0.76822

>  <r_i_glide_erotb>  (65) 
0

>  <r_i_glide_esite>  (65) 
-0.010427

>  <r_i_glide_emodel>  (65) 
-30.0258

>  <r_i_glide_energy>  (65) 
-26.8149

>  <r_i_glide_einternal>  (65) 
0

>  <r_i_glide_intrahb_reward>  (65) 
-0

>  <i_i_glide_confnum>  (65) 
2

>  <i_i_glide_posenum>  (65) 
25

>  <r_i_glide_eff_state_penalty>  (65) 
0

>  <ligand_id>  (65) 
17

>  <original_smiles>  (65) 
CC1CCC2(C)CCC3(C)C(CCC4(C)C3CCC3CCC5(OCCO5)C(C)C34C)C12

>  <smiles>  (65) 
[H]C([H])([H])C1([H])C([H])([H])C([H])([H])C2(C([H])([H])[H])C([H])([H])C([H])([H])C3(C([H])([H])[H])C([H])(C([H])([H])C([H])([H])C4(C([H])([H])[H])C3([H])C([H])([H])C([H])([H])C3([H])C([H])([H])C([H])([H])C5(OC([H])([H])C([H])([H])O5)C([H])(C([H])([H])[H])C34C([H])([H])[H])C12[H]

$$$$
18:0:0
     RDKit          3D

 41 43  0  0  1  0  0  0  0  0999 V2000
    2.6962   -9.6921    2.8826 C   0  0  0  0  0  0  0  0  0  0  0  0
    3.3597   -8.3581    2.4988 C   0  0  2  0  0  0  0  0  0  0  0  0
    2.3966   -7.2998    1.9468 C   0  0  0  0  0  0  0  0  0  0  0  0
    3.2222   -6.3579    1.1752 N   0  0  0  0  0  0  0  0  0  0  0  0
    3.4252   -4.7445    1.7978 S   0  0  0  0  0  0  0  0  0  0  0  0
    2.1184   -4.2749    2.2789 O   0  0  0  0  0  0  0  0  0  0  0  0
    4.6047   -4.7364    2.6779 O   0  0  0  0  0  0  0  0  0  0  0  0
    3.7963   -3.8759    0.3434 N   0  0  0  0  0  0  0  0  0  0  0  0
    2.7679   -3.5670   -0.6438 C   0  0  0  0  0  0  0  0  0  0  0  0
    3.5068   -2.8705   -1.7910 C   0  0  0  0  0  0  0  0  0  0  0  0
    4.8876   -3.5377   -1.7627 C   0  0  1  0  0  0  0  0  0  0  0  0
    6.0866   -2.6512   -2.0848 C   0  0  0  0  0  0  0  0  0  0  0  0
    6.9423   -2.7126   -0.9473 O   0  0  0  0  0  0  0  0  0  0  0  0
    6.1377   -2.9477    0.2084 C   0  0  0  0  0  0  0  0  0  0  0  0
    5.1032   -3.9379   -0.3207 C   0  0  1  0  0  0  0  0  0  0  0  0
    4.4111   -7.0968    0.7101 C   0  0  0  0  0  0  0  0  0  0  0  0
    4.4370   -8.4696    1.4200 C   0  0  1  0  0  0  0  0  0  0  0  0
    5.8306   -8.8305    1.9531 C   0  0  0  0  0  0  0  0  0  0  0  0
    4.1159   -9.4425    0.4650 O   0  0  0  0  0  0  0  0  0  0  0  0
    2.1726  -10.1465    2.0351 H   0  0  0  0  0  0  0  0  0  0  0  0
    1.9686   -9.5771    3.6834 H   0  0  0  0  0  0  0  0  0  0  0  0
    3.4452  -10.4107    3.2134 H   0  0  0  0  0  0  0  0  0  0  0  0
    3.8185   -7.9169    3.3926 H   0  0  0  0  0  0  0  0  0  0  0  0
    1.6889   -7.7679    1.2546 H   0  0  0  0  0  0  0  0  0  0  0  0
    1.8279   -6.7967    2.7347 H   0  0  0  0  0  0  0  0  0  0  0  0
    2.3136   -4.4945   -0.9873 H   0  0  0  0  0  0  0  0  0  0  0  0
    1.9981   -2.9216   -0.2247 H   0  0  0  0  0  0  0  0  0  0  0  0
    3.0008   -2.9761   -2.7554 H   0  0  0  0  0  0  0  0  0  0  0  0
    3.5797   -1.8024   -1.5661 H   0  0  0  0  0  0  0  0  0  0  0  0
    4.8723   -4.4358   -2.3823 H   0  0  0  0  0  0  0  0  0  0  0  0
    6.6089   -2.9990   -2.9749 H   0  0  0  0  0  0  0  0  0  0  0  0
    5.7850   -1.6170   -2.2436 H   0  0  0  0  0  0  0  0  0  0  0  0
    6.7312   -3.3785    1.0136 H   0  0  0  0  0  0  0  0  0  0  0  0
    5.6913   -2.0129    0.5543 H   0  0  0  0  0  0  0  0  0  0  0  0
    5.5135   -4.9353   -0.3253 H   0  0  0  0  0  0  0  0  0  0  0  0
    4.3760   -7.1710   -0.3783 H   0  0  0  0  0  0  0  0  0  0  0  0
    5.3108   -6.5511    0.9892 H   0  0  0  0  0  0  0  0  0  0  0  0
    6.1769   -8.1162    2.7050 H   0  0  0  0  0  0  0  0  0  0  0  0
    6.5681   -8.8453    1.1503 H   0  0  0  0  0  0  0  0  0  0  0  0
    5.8240   -9.8180    2.4104 H   0  0  0  0  0  0  0  0  0  0  0  0
    4.1977  -10.3385    0.8120 H   0  0  0  0  0  0  0  0  0  0  0  0
  1  2  1  0
  1 20  1  0
  1 21  1  0
  1 22  1  0
  2 17  1  0
  2  3  1  0
  2 23  1  1
  3  4  1  0
  3 24  1  0
  3 25  1  0
  4  5  1  0
  4 16  1  0
  5  6  2  0
  5  7  2  0
  5  8  1  0
  8 15  1  0
  8  9  1  0
  9 10  1  0
  9 26  1  0
  9 27  1  0
 10 11  1  0
 10 28  1  0
 10 29  1  0
 11 15  1  0
 11 12  1  0
 11 30  1  6
 12 13  1  0
 12 31  1  0
 12 32  1  0
 13 14  1  0
 14 15  1  0
 14 33  1  0
 14 34  1  0
 15 35  1  6
 16 17  1  0
 16 36  1  0
 16 37  1  0
 17 18  1  0
 17 19  1  6
 18 38  1  0
 18 39  1  0
 18 40  1  0
 19 41  1  0
M  END
>  <i_m_ct_stereo_status>  (66) 
1

>  <s_m_source_file>  (66) 
/var/tmp/pbs.5076255.sched01/tmpkni74bsw/0nq93mkxh.sdf

>  <i_m_source_file_index>  (66) 
29

>  <i_lp_mmshare_version>  (66) 
48012

>  <i_f3d_flags>  (66) 
0

>  <s_epik_input>  (66) 
W0NIM11bQ0BAXTEoW09IXSlbQ0BIXShbQ0gzXSlbQ0gyXU4oW0NIMl0xKVMoPU8pKD1PKU4oW0NIMl1bQ0gyXTIpW0NAQEhdKFtDQEBIXTIzKVtDSDJdT1tDSDJdMw==

>  <s_epik_cmdline>  (66) 
J2VwaWtfcHl0aG9uJywgJy1waHQnLCAnMi4wJywgJy1waCcsICc3LjAnLCAnLXRuJywgJzgnLCAnLW1hJywgJzIwMCcsICctaW1hZScsICc8aW5maWxlLm1hZT4nLCAnLW9tYWUnLCAnPG91dGZpbGUubWFlPic=

>  <r_lp_tautomer_probability>  (66) 
1

>  <r_epik_Ionization_Penalty>  (66) 
4.32965e-08

>  <r_epik_Ionization_Penalty_Charging>  (66) 
0

>  <r_epik_Ionization_Penalty_Neutral>  (66) 
4.32965e-08

>  <r_epik_State_Penalty>  (66) 
-0

>  <r_epik_Charging_Adjusted_Penalty>  (66) 
0

>  <i_epik_Tot_Q>  (66) 
0

>  <i_epik_Tot_abs_Q>  (66) 
0

>  <s_lp_Force_Field>  (66) 
OPLS3e

>  <r_lp_Energy>  (66) 
-15.6003

>  <b_lp_Chiralities_Consistent>  (66) 
1

>  <s_lp_Variant>  (66) 
18:0-1

>  <s_i_glide_gridfile>  (66) 
pfpi4k_grid

>  <i_i_glide_lignum>  (66) 
29

>  <i_i_glide_rotatable_bonds>  (66) 
3

>  <r_i_docking_score>  (66) 
-3.36037

>  <r_i_glide_ligand_efficiency>  (66) 
-0.176861

>  <r_i_glide_ligand_efficiency_sa>  (66) 
-0.471937

>  <r_i_glide_ligand_efficiency_ln>  (66) 
-0.851925

>  <r_i_glide_gscore>  (66) 
-3.36037

>  <r_i_glide_lipo>  (66) 
-0.298947

>  <r_i_glide_hbond>  (66) 
-0.154676

>  <r_i_glide_metal>  (66) 
-0

>  <r_i_glide_rewards>  (66) 
-1.48922

>  <r_i_glide_evdw>  (66) 
-22.6793

>  <r_i_glide_ecoul>  (66) 
-4.68423

>  <r_i_glide_erotb>  (66) 
0.432257

>  <r_i_glide_esite>  (66) 
-0.0131814

>  <r_i_glide_emodel>  (66) 
-32.7533

>  <r_i_glide_energy>  (66) 
-27.3636

>  <r_i_glide_einternal>  (66) 
1.82791

>  <r_i_glide_intrahb_reward>  (66) 
-0

>  <i_i_glide_confnum>  (66) 
6

>  <i_i_glide_posenum>  (66) 
7

>  <r_i_glide_eff_state_penalty>  (66) 
0

>  <ligand_id>  (66) 
18

>  <original_smiles>  (66) 
CC1CN(S(=O)(=O)N2CCC3COCC32)CC1(C)O

>  <smiles>  (66) 
[H]OC1(C([H])([H])[H])C([H])([H])N(S(=O)(=O)N2C([H])([H])C([H])([H])C3([H])C([H])([H])OC([H])([H])C23[H])C([H])([H])C1([H])C([H])([H])[H]

$$$$
18:0:1
     RDKit          3D

 41 43  0  0  1  0  0  0  0  0999 V2000
    1.0516   -6.2285    4.0862 C   0  0  0  0  0  0  0  0  0  0  0  0
    2.1595   -5.8088    3.0962 C   0  0  2  0  0  0  0  0  0  0  0  0
    2.1256   -4.3346    2.6872 C   0  0  0  0  0  0  0  0  0  0  0  0
    2.8633   -4.2536    1.4182 N   0  0  0  0  0  0  0  0  0  0  0  0
    4.3829   -3.3988    1.4265 S   0  0  0  0  0  0  0  0  0  0  0  0
    4.1626   -2.0377    1.9349 O   0  0  0  0  0  0  0  0  0  0  0  0
    5.3766   -4.2865    2.0500 O   0  0  0  0  0  0  0  0  0  0  0  0
    4.7092   -3.3040   -0.2789 N   0  0  0  0  0  0  0  0  0  0  0  0
    6.0888   -3.3417   -0.7515 C   0  0  0  0  0  0  0  0  0  0  0  0
    5.9913   -3.0516   -2.2498 C   0  0  0  0  0  0  0  0  0  0  0  0
    4.8307   -2.0564   -2.3349 C   0  0  1  0  0  0  0  0  0  0  0  0
    3.9189   -2.2068   -3.5604 C   0  0  0  0  0  0  0  0  0  0  0  0
    2.6138   -2.4054   -3.0376 O   0  0  0  0  0  0  0  0  0  0  0  0
    2.7255   -3.0546   -1.7791 C   0  0  0  0  0  0  0  0  0  0  0  0
    3.9388   -2.3954   -1.1462 C   0  0  1  0  0  0  0  0  0  0  0  0
    2.7967   -5.5721    0.7537 C   0  0  0  0  0  0  0  0  0  0  0  0
    2.1554   -6.5599    1.7556 C   0  0  1  0  0  0  0  0  0  0  0  0
    2.9010   -7.9061    1.8433 C   0  0  0  0  0  0  0  0  0  0  0  0
    0.8384   -6.8178    1.2890 O   0  0  0  0  0  0  0  0  0  0  0  0
    0.0526   -6.0538    3.6859 H   0  0  0  0  0  0  0  0  0  0  0  0
    1.1149   -5.6908    5.0324 H   0  0  0  0  0  0  0  0  0  0  0  0
    1.1184   -7.2913    4.3191 H   0  0  0  0  0  0  0  0  0  0  0  0
    3.1234   -5.9719    3.5818 H   0  0  0  0  0  0  0  0  0  0  0  0
    1.0940   -4.0320    2.4961 H   0  0  0  0  0  0  0  0  0  0  0  0
    2.5511   -3.6687    3.4448 H   0  0  0  0  0  0  0  0  0  0  0  0
    6.6690   -2.5655   -0.2464 H   0  0  0  0  0  0  0  0  0  0  0  0
    6.5445   -4.3115   -0.5543 H   0  0  0  0  0  0  0  0  0  0  0  0
    6.9193   -2.6629   -2.6786 H   0  0  0  0  0  0  0  0  0  0  0  0
    5.7491   -3.9797   -2.7743 H   0  0  0  0  0  0  0  0  0  0  0  0
    5.1978   -1.0355   -2.2351 H   0  0  0  0  0  0  0  0  0  0  0  0
    3.9387   -1.3179   -4.1890 H   0  0  0  0  0  0  0  0  0  0  0  0
    4.1977   -3.0614   -4.1790 H   0  0  0  0  0  0  0  0  0  0  0  0
    1.8212   -2.9544   -1.1803 H   0  0  0  0  0  0  0  0  0  0  0  0
    2.8977   -4.1181   -1.9235 H   0  0  0  0  0  0  0  0  0  0  0  0
    3.6603   -1.4881   -0.6118 H   0  0  0  0  0  0  0  0  0  0  0  0
    2.1998   -5.4792   -0.1583 H   0  0  0  0  0  0  0  0  0  0  0  0
    3.7976   -5.8853    0.4511 H   0  0  0  0  0  0  0  0  0  0  0  0
    3.9287   -7.7674    2.1812 H   0  0  0  0  0  0  0  0  0  0  0  0
    2.9444   -8.4163    0.8790 H   0  0  0  0  0  0  0  0  0  0  0  0
    2.4245   -8.5841    2.5541 H   0  0  0  0  0  0  0  0  0  0  0  0
    0.8200   -7.6839    0.9008 H   0  0  0  0  0  0  0  0  0  0  0  0
  1  2  1  0
  1 20  1  0
  1 21  1  0
  1 22  1  0
  2 17  1  0
  2  3  1  0
  2 23  1  1
  3  4  1  0
  3 24  1  0
  3 25  1  0
  4  5  1  0
  4 16  1  0
  5  6  2  0
  5  7  2  0
  5  8  1  0
  8 15  1  0
  8  9  1  0
  9 10  1  0
  9 26  1  0
  9 27  1  0
 10 11  1  0
 10 28  1  0
 10 29  1  0
 11 15  1  0
 11 12  1  0
 11 30  1  1
 12 13  1  0
 12 31  1  0
 12 32  1  0
 13 14  1  0
 14 15  1  0
 14 33  1  0
 14 34  1  0
 15 35  1  1
 16 17  1  0
 16 36  1  0
 16 37  1  0
 17 18  1  0
 17 19  1  6
 18 38  1  0
 18 39  1  0
 18 40  1  0
 19 41  1  0
M  END
>  <i_m_ct_stereo_status>  (67) 
1

>  <s_m_source_file>  (67) 
/var/tmp/pbs.5076255.sched01/tmpkni74bsw/0nq93mkxh.sdf

>  <i_m_source_file_index>  (67) 
29

>  <i_lp_mmshare_version>  (67) 
48012

>  <i_f3d_flags>  (67) 
0

>  <s_epik_input>  (67) 
W0NIM11bQ0BAXTEoW09IXSlbQ0BIXShbQ0gzXSlbQ0gyXU4oW0NIMl0xKVMoPU8pKD1PKU4oW0NIMl1bQ0gyXTIpW0NAQEhdKFtDQEBIXTIzKVtDSDJdT1tDSDJdMw==

>  <s_epik_cmdline>  (67) 
J2VwaWtfcHl0aG9uJywgJy1waHQnLCAnMi4wJywgJy1waCcsICc3LjAnLCAnLXRuJywgJzgnLCAnLW1hJywgJzIwMCcsICctaW1hZScsICc8aW5maWxlLm1hZT4nLCAnLW9tYWUnLCAnPG91dGZpbGUubWFlPic=

>  <r_lp_tautomer_probability>  (67) 
1

>  <r_epik_Ionization_Penalty>  (67) 
4.32965e-08

>  <r_epik_Ionization_Penalty_Charging>  (67) 
0

>  <r_epik_Ionization_Penalty_Neutral>  (67) 
4.32965e-08

>  <r_epik_State_Penalty>  (67) 
-0

>  <r_epik_Charging_Adjusted_Penalty>  (67) 
0

>  <i_epik_Tot_Q>  (67) 
0

>  <i_epik_Tot_abs_Q>  (67) 
0

>  <s_lp_Force_Field>  (67) 
OPLS3e

>  <r_lp_Energy>  (67) 
-15.6003

>  <b_lp_Chiralities_Consistent>  (67) 
1

>  <s_lp_Variant>  (67) 
18:0-1

>  <s_i_glide_gridfile>  (67) 
pfpi4k_grid

>  <i_i_glide_lignum>  (67) 
29

>  <i_i_glide_rotatable_bonds>  (67) 
3

>  <r_i_docking_score>  (67) 
-3.12726

>  <r_i_glide_ligand_efficiency>  (67) 
-0.164593

>  <r_i_glide_ligand_efficiency_sa>  (67) 
-0.4392

>  <r_i_glide_ligand_efficiency_ln>  (67) 
-0.792829

>  <r_i_glide_gscore>  (67) 
-3.12726

>  <r_i_glide_lipo>  (67) 
-0.509236

>  <r_i_glide_hbond>  (67) 
-0.00545495

>  <r_i_glide_metal>  (67) 
-0

>  <r_i_glide_rewards>  (67) 
-1.50435

>  <r_i_glide_evdw>  (67) 
-24.8326

>  <r_i_glide_ecoul>  (67) 
-1.9395

>  <r_i_glide_erotb>  (67) 
0.432257

>  <r_i_glide_esite>  (67) 
-0.00792529

>  <r_i_glide_emodel>  (67) 
-29.4115

>  <r_i_glide_energy>  (67) 
-26.7721

>  <r_i_glide_einternal>  (67) 
6.07185

>  <r_i_glide_intrahb_reward>  (67) 
-0

>  <i_i_glide_confnum>  (67) 
6

>  <i_i_glide_posenum>  (67) 
22

>  <r_i_glide_eff_state_penalty>  (67) 
0

>  <ligand_id>  (67) 
18

>  <original_smiles>  (67) 
CC1CN(S(=O)(=O)N2CCC3COCC32)CC1(C)O

>  <smiles>  (67) 
[H]OC1(C([H])([H])[H])C([H])([H])N(S(=O)(=O)N2C([H])([H])C([H])([H])C3([H])C([H])([H])OC([H])([H])C23[H])C([H])([H])C1([H])C([H])([H])[H]

$$$$
18:0:2
     RDKit          3D

 41 43  0  0  1  0  0  0  0  0999 V2000
    0.5322   -6.4461    4.1277 C   0  0  0  0  0  0  0  0  0  0  0  0
    1.7243   -5.7838    3.4057 C   0  0  2  0  0  0  0  0  0  0  0  0
    1.6499   -4.2592    3.2752 C   0  0  0  0  0  0  0  0  0  0  0  0
    2.5579   -3.9075    2.1756 N   0  0  0  0  0  0  0  0  0  0  0  0
    3.9921   -3.0102    2.5724 S   0  0  0  0  0  0  0  0  0  0  0  0
    3.5740   -1.8215    3.3369 O   0  0  0  0  0  0  0  0  0  0  0  0
    4.9865   -3.9457    3.1125 O   0  0  0  0  0  0  0  0  0  0  0  0
    4.5049   -2.4809    1.0079 N   0  0  0  0  0  0  0  0  0  0  0  0
    3.7199   -1.5280    0.2270 C   0  0  0  0  0  0  0  0  0  0  0  0
    4.4687   -1.3864   -1.1031 C   0  0  0  0  0  0  0  0  0  0  0  0
    5.1039   -2.7747   -1.2914 C   0  0  1  0  0  0  0  0  0  0  0  0
    6.5007   -2.8205   -1.9253 C   0  0  0  0  0  0  0  0  0  0  0  0
    7.3458   -3.4408   -0.9603 O   0  0  0  0  0  0  0  0  0  0  0  0
    6.8376   -3.1759    0.3350 C   0  0  0  0  0  0  0  0  0  0  0  0
    5.3325   -3.2943    0.1092 C   0  0  1  0  0  0  0  0  0  0  0  0
    2.6534   -5.0784    1.2876 C   0  0  0  0  0  0  0  0  0  0  0  0
    1.9619   -6.2689    1.9640 C   0  0  1  0  0  0  0  0  0  0  0  0
    2.8144   -7.5488    1.9108 C   0  0  0  0  0  0  0  0  0  0  0  0
    0.7568   -6.5329    1.2608 O   0  0  0  0  0  0  0  0  0  0  0  0
   -0.4122   -6.2528    3.6165 H   0  0  0  0  0  0  0  0  0  0  0  0
    0.4248   -6.1053    5.1557 H   0  0  0  0  0  0  0  0  0  0  0  0
    0.6594   -7.5338    4.1562 H   0  0  0  0  0  0  0  0  0  0  0  0
    2.6283   -5.9871    3.9822 H   0  0  0  0  0  0  0  0  0  0  0  0
    0.6342   -3.9651    2.9992 H   0  0  0  0  0  0  0  0  0  0  0  0
    1.9134   -3.7367    4.2049 H   0  0  0  0  0  0  0  0  0  0  0  0
    2.7261   -1.9451    0.0729 H   0  0  0  0  0  0  0  0  0  0  0  0
    3.6286   -0.5705    0.7378 H   0  0  0  0  0  0  0  0  0  0  0  0
    3.8126   -1.0909   -1.9260 H   0  0  0  0  0  0  0  0  0  0  0  0
    5.2303   -0.6131   -0.9903 H   0  0  0  0  0  0  0  0  0  0  0  0
    4.3993   -3.4245   -1.8088 H   0  0  0  0  0  0  0  0  0  0  0  0
    6.4986   -3.3633   -2.8656 H   0  0  0  0  0  0  0  0  0  0  0  0
    6.8813   -1.8261   -2.1158 H   0  0  0  0  0  0  0  0  0  0  0  0
    7.1788   -3.9295    1.0393 H   0  0  0  0  0  0  0  0  0  0  0  0
    7.1506   -2.1903    0.6886 H   0  0  0  0  0  0  0  0  0  0  0  0
    5.0705   -4.3380    0.1160 H   0  0  0  0  0  0  0  0  0  0  0  0
    2.2386   -4.8281    0.3033 H   0  0  0  0  0  0  0  0  0  0  0  0
    3.6908   -5.3591    1.1701 H   0  0  0  0  0  0  0  0  0  0  0  0
    3.7716   -7.4135    2.4203 H   0  0  0  0  0  0  0  0  0  0  0  0
    3.0405   -7.8337    0.8817 H   0  0  0  0  0  0  0  0  0  0  0  0
    2.3154   -8.3917    2.3888 H   0  0  0  0  0  0  0  0  0  0  0  0
    0.4373   -7.3743    1.5474 H   0  0  0  0  0  0  0  0  0  0  0  0
  1  2  1  0
  1 20  1  0
  1 21  1  0
  1 22  1  0
  2 17  1  0
  2  3  1  0
  2 23  1  1
  3  4  1  0
  3 24  1  0
  3 25  1  0
  4  5  1  0
  4 16  1  0
  5  6  2  0
  5  7  2  0
  5  8  1  0
  8 15  1  0
  8  9  1  0
  9 10  1  0
  9 26  1  0
  9 27  1  0
 10 11  1  0
 10 28  1  0
 10 29  1  0
 11 15  1  0
 11 12  1  0
 11 30  1  6
 12 13  1  0
 12 31  1  0
 12 32  1  0
 13 14  1  0
 14 15  1  0
 14 33  1  0
 14 34  1  0
 15 35  1  6
 16 17  1  0
 16 36  1  0
 16 37  1  0
 17 18  1  0
 17 19  1  6
 18 38  1  0
 18 39  1  0
 18 40  1  0
 19 41  1  0
M  END
>  <i_m_ct_stereo_status>  (68) 
1

>  <s_m_source_file>  (68) 
/var/tmp/pbs.5076255.sched01/tmpkni74bsw/0nq93mkxh.sdf

>  <i_m_source_file_index>  (68) 
29

>  <i_lp_mmshare_version>  (68) 
48012

>  <i_f3d_flags>  (68) 
0

>  <s_epik_input>  (68) 
W0NIM11bQ0BAXTEoW09IXSlbQ0BIXShbQ0gzXSlbQ0gyXU4oW0NIMl0xKVMoPU8pKD1PKU4oW0NIMl1bQ0gyXTIpW0NAQEhdKFtDQEBIXTIzKVtDSDJdT1tDSDJdMw==

>  <s_epik_cmdline>  (68) 
J2VwaWtfcHl0aG9uJywgJy1waHQnLCAnMi4wJywgJy1waCcsICc3LjAnLCAnLXRuJywgJzgnLCAnLW1hJywgJzIwMCcsICctaW1hZScsICc8aW5maWxlLm1hZT4nLCAnLW9tYWUnLCAnPG91dGZpbGUubWFlPic=

>  <r_lp_tautomer_probability>  (68) 
1

>  <r_epik_Ionization_Penalty>  (68) 
4.32965e-08

>  <r_epik_Ionization_Penalty_Charging>  (68) 
0

>  <r_epik_Ionization_Penalty_Neutral>  (68) 
4.32965e-08

>  <r_epik_State_Penalty>  (68) 
-0

>  <r_epik_Charging_Adjusted_Penalty>  (68) 
0

>  <i_epik_Tot_Q>  (68) 
0

>  <i_epik_Tot_abs_Q>  (68) 
0

>  <s_lp_Force_Field>  (68) 
OPLS3e

>  <r_lp_Energy>  (68) 
-15.6003

>  <b_lp_Chiralities_Consistent>  (68) 
1

>  <s_lp_Variant>  (68) 
18:0-1

>  <s_i_glide_gridfile>  (68) 
pfpi4k_grid

>  <i_i_glide_lignum>  (68) 
29

>  <i_i_glide_rotatable_bonds>  (68) 
3

>  <r_i_docking_score>  (68) 
-2.97604

>  <r_i_glide_ligand_efficiency>  (68) 
-0.156634

>  <r_i_glide_ligand_efficiency_sa>  (68) 
-0.417961

>  <r_i_glide_ligand_efficiency_ln>  (68) 
-0.75449

>  <r_i_glide_gscore>  (68) 
-2.97604

>  <r_i_glide_lipo>  (68) 
-0.161074

>  <r_i_glide_hbond>  (68) 
-0.122235

>  <r_i_glide_metal>  (68) 
-0

>  <r_i_glide_rewards>  (68) 
-1.44245

>  <r_i_glide_evdw>  (68) 
-21.7223

>  <r_i_glide_ecoul>  (68) 
-3.93058

>  <r_i_glide_erotb>  (68) 
0.432257

>  <r_i_glide_esite>  (68) 
-0.00683298

>  <r_i_glide_emodel>  (68) 
-29.7846

>  <r_i_glide_energy>  (68) 
-25.6529

>  <r_i_glide_einternal>  (68) 
2.31033

>  <r_i_glide_intrahb_reward>  (68) 
-0

>  <i_i_glide_confnum>  (68) 
6

>  <i_i_glide_posenum>  (68) 
27

>  <r_i_glide_eff_state_penalty>  (68) 
0

>  <ligand_id>  (68) 
18

>  <original_smiles>  (68) 
CC1CN(S(=O)(=O)N2CCC3COCC32)CC1(C)O

>  <smiles>  (68) 
[H]OC1(C([H])([H])[H])C([H])([H])N(S(=O)(=O)N2C([H])([H])C([H])([H])C3([H])C([H])([H])OC([H])([H])C23[H])C([H])([H])C1([H])C([H])([H])[H]

$$$$
19:0:0
     RDKit          3D

 40 42  0  0  1  0  0  0  0  0999 V2000
    1.0112   -0.5701    2.0935 O   0  0  0  0  0  0  0  0  0  0  0  0
    1.6735   -1.4558    2.9696 C   0  0  0  0  0  0  0  0  0  0  0  0
    2.5040   -2.5106    2.2192 C   0  0  2  0  0  0  0  0  0  0  0  0
    3.1903   -3.5317    3.1428 C   0  0  1  0  0  0  0  0  0  0  0  0
    2.2930   -4.5491    3.5389 O   0  0  0  0  0  0  0  0  0  0  0  0
    4.3412   -4.0971    2.3016 C   0  0  2  0  0  0  0  0  0  0  0  0
    5.3051   -4.6176    3.0554 F   0  0  0  0  0  0  0  0  0  0  0  0
    4.8480   -2.8907    1.4976 C   0  0  1  0  0  0  0  0  0  0  0  0
    5.2245   -3.1604    0.0378 C   0  0  0  0  0  0  0  0  0  0  0  0
    4.7055   -1.9765   -0.6870 N   0  0  1  0  0  0  0  0  0  0  0  0
    4.6496   -2.0999   -2.1564 C   0  0  0  0  0  0  0  0  0  0  0  0
    3.9516   -0.9084   -2.8426 C   0  0  0  0  0  0  0  0  0  0  0  0
    3.4986   -1.4497   -4.1946 C   0  0  0  0  0  0  0  0  0  0  0  0
    3.2616   -2.9549   -3.9811 C   0  0  0  0  0  0  0  0  0  0  0  0
    3.8985   -3.3466   -2.6508 C   0  0  0  0  0  0  0  0  0  0  0  0
    3.4214   -1.6518   -0.0380 C   0  0  0  0  0  0  0  0  0  0  0  0
    3.6785   -1.8922    1.4425 C   0  0  1  0  0  0  0  0  0  0  0  0
    1.3187   -0.6753    1.1920 H   0  0  0  0  0  0  0  0  0  0  0  0
    2.3155   -0.8739    3.6340 H   0  0  0  0  0  0  0  0  0  0  0  0
    0.9268   -1.9401    3.6044 H   0  0  0  0  0  0  0  0  0  0  0  0
    1.8514   -3.0647    1.5471 H   0  0  0  0  0  0  0  0  0  0  0  0
    3.5877   -3.0187    4.0165 H   0  0  0  0  0  0  0  0  0  0  0  0
    2.7653   -5.1547    4.0889 H   0  0  0  0  0  0  0  0  0  0  0  0
    3.9610   -4.8836    1.6443 H   0  0  0  0  0  0  0  0  0  0  0  0
    5.6740   -2.4180    2.0300 H   0  0  0  0  0  0  0  0  0  0  0  0
    6.2968   -3.3050   -0.0977 H   0  0  0  0  0  0  0  0  0  0  0  0
    4.7155   -4.0707   -0.3034 H   0  0  0  0  0  0  0  0  0  0  0  0
    5.6775   -2.1634   -2.5313 H   0  0  0  0  0  0  0  0  0  0  0  0
    3.0606   -0.6055   -2.2971 H   0  0  0  0  0  0  0  0  0  0  0  0
    4.6031   -0.0370   -2.9397 H   0  0  0  0  0  0  0  0  0  0  0  0
    2.5894   -0.9374   -4.5100 H   0  0  0  0  0  0  0  0  0  0  0  0
    4.2557   -1.2741   -4.9640 H   0  0  0  0  0  0  0  0  0  0  0  0
    2.1936   -3.1763   -3.9365 H   0  0  0  0  0  0  0  0  0  0  0  0
    3.6894   -3.5422   -4.7882 H   0  0  0  0  0  0  0  0  0  0  0  0
    4.5713   -4.2018   -2.7718 H   0  0  0  0  0  0  0  0  0  0  0  0
    3.1059   -3.6397   -1.9584 H   0  0  0  0  0  0  0  0  0  0  0  0
    3.1190   -0.6155   -0.2126 H   0  0  0  0  0  0  0  0  0  0  0  0
    2.6261   -2.3167   -0.4109 H   0  0  0  0  0  0  0  0  0  0  0  0
    4.0044   -0.9636    1.9253 H   0  0  0  0  0  0  0  0  0  0  0  0
    5.3295   -1.2157   -0.4539 H   0  0  0  0  0  0  0  0  0  0  0  0
  1  2  1  0
  1 18  1  0
  2  3  1  0
  2 19  1  0
  2 20  1  0
  3 17  1  0
  3  4  1  0
  3 21  1  6
  4  5  1  0
  4  6  1  0
  4 22  1  1
  5 23  1  0
  6  7  1  0
  6  8  1  0
  6 24  1  6
  8 17  1  0
  8  9  1  0
  8 25  1  1
  9 10  1  0
  9 26  1  0
  9 27  1  0
 10 11  1  0
 10 16  1  0
 10 40  1  6
 11 15  1  0
 11 12  1  0
 11 28  1  0
 12 13  1  0
 12 29  1  0
 12 30  1  0
 13 14  1  0
 13 31  1  0
 13 32  1  0
 14 15  1  0
 14 33  1  0
 14 34  1  0
 15 35  1  0
 15 36  1  0
 16 17  1  0
 16 37  1  0
 16 38  1  0
 17 39  1  1
M  CHG  1  10   1
M  END
>  <i_m_ct_stereo_status>  (69) 
1

>  <s_m_source_file>  (69) 
/var/tmp/pbs.5076255.sched01/tmpkni74bsw/0nq93mkxh.sdf

>  <i_m_source_file_index>  (69) 
30

>  <i_lp_mmshare_version>  (69) 
48012

>  <i_f3d_flags>  (69) 
0

>  <s_epik_input>  (69) 
RltDQEhdMVtDQEhdKFtPSF0pW0NAQEhdKFtDSDJdW09IXSlbQ0BASF0oW0NAQEhdMTIpW0NIMl1OKFtDSDJdMilbQ0hdM1tDSDJdW0NIMl1bQ0gyXVtDSDJdMw==

>  <s_epik_cmdline>  (69) 
J2VwaWtfcHl0aG9uJywgJy1waHQnLCAnMi4wJywgJy1waCcsICc3LjAnLCAnLXRuJywgJzgnLCAnLW1hJywgJzIwMCcsICctaW1hZScsICc8aW5maWxlLm1hZT4nLCAnLW9tYWUnLCAnPG91dGZpbGUubWFlPic=

>  <r_epik_Ionization_Penalty>  (69) 
0.00105397

>  <r_epik_Ionization_Penalty_Charging>  (69) 
0.00104859

>  <r_epik_Ionization_Penalty_Neutral>  (69) 
5.38096e-06

>  <r_epik_State_Penalty>  (69) 
0.000685734

>  <r_epik_Charging_Adjusted_Penalty>  (69) 
0.00173433

>  <i_epik_Tot_Q>  (69) 
1

>  <i_epik_Tot_abs_Q>  (69) 
1

>  <s_lp_Force_Field>  (69) 
OPLS3e

>  <r_lp_Energy>  (69) 
29.5864

>  <b_lp_Chiralities_Consistent>  (69) 
1

>  <s_lp_Variant>  (69) 
19:0-1

>  <s_i_glide_gridfile>  (69) 
pfpi4k_grid

>  <i_i_glide_lignum>  (69) 
30

>  <i_i_glide_rotatable_bonds>  (69) 
4

>  <r_i_docking_score>  (69) 
-2.8377

>  <r_i_glide_ligand_efficiency>  (69) 
-0.166923

>  <r_i_glide_ligand_efficiency_sa>  (69) 
-0.429207

>  <r_i_glide_ligand_efficiency_ln>  (69) 
-0.740292

>  <r_i_glide_gscore>  (69) 
-2.8377

>  <r_i_glide_lipo>  (69) 
-0.183752

>  <r_i_glide_hbond>  (69) 
-0.124141

>  <r_i_glide_metal>  (69) 
-0

>  <r_i_glide_rewards>  (69) 
-1.75969

>  <r_i_glide_evdw>  (69) 
-16.3702

>  <r_i_glide_ecoul>  (69) 
-3.39691

>  <r_i_glide_erotb>  (69) 
0.582449

>  <r_i_glide_esite>  (69) 
-0.0245226

>  <r_i_glide_emodel>  (69) 
-18.289

>  <r_i_glide_energy>  (69) 
-19.7671

>  <r_i_glide_einternal>  (69) 
9.73193

>  <r_i_glide_intrahb_reward>  (69) 
-0

>  <i_i_glide_confnum>  (69) 
5

>  <i_i_glide_posenum>  (69) 
11

>  <r_i_glide_eff_state_penalty>  (69) 
0

>  <ligand_id>  (69) 
19

>  <original_smiles>  (69) 
OCC1C(O)C(F)C2CN(C3CCCC3)CC12

>  <smiles>  (69) 
[H]OC([H])([H])C1([H])C([H])(O[H])C([H])(F)C2([H])C1([H])C([H])([H])[N+]([H])(C1([H])C([H])([H])C([H])([H])C([H])([H])C1([H])[H])C2([H])[H]

$$$$
19:0:1
     RDKit          3D

 40 42  0  0  1  0  0  0  0  0999 V2000
    1.9908   -0.8893    1.7874 O   0  0  0  0  0  0  0  0  0  0  0  0
    2.3417   -2.2271    2.0880 C   0  0  0  0  0  0  0  0  0  0  0  0
    2.6755   -2.9881    0.7998 C   0  0  2  0  0  0  0  0  0  0  0  0
    2.9981   -4.4735    1.0192 C   0  0  1  0  0  0  0  0  0  0  0  0
    1.8395   -5.2752    1.1147 O   0  0  0  0  0  0  0  0  0  0  0  0
    3.7771   -4.8195   -0.2444 C   0  0  2  0  0  0  0  0  0  0  0  0
    4.5349   -5.9167   -0.1081 F   0  0  0  0  0  0  0  0  0  0  0  0
    4.6583   -3.6148   -0.5576 C   0  0  1  0  0  0  0  0  0  0  0  0
    4.7524   -3.2444   -2.0620 C   0  0  0  0  0  0  0  0  0  0  0  0
    4.6356   -1.7649   -2.0787 N   0  0  1  0  0  0  0  0  0  0  0  0
    4.4122   -1.1593   -3.4259 C   0  0  0  0  0  0  0  0  0  0  0  0
    4.2247    0.3881   -3.3889 C   0  0  0  0  0  0  0  0  0  0  0  0
    3.5314    0.7624   -4.6660 C   0  0  0  0  0  0  0  0  0  0  0  0
    2.7268   -0.4704   -5.0233 C   0  0  0  0  0  0  0  0  0  0  0  0
    3.1695   -1.6850   -4.1712 C   0  0  0  0  0  0  0  0  0  0  0  0
    3.6618   -1.4371   -1.0060 C   0  0  0  0  0  0  0  0  0  0  0  0
    3.9390   -2.4449    0.1053 C   0  0  1  0  0  0  0  0  0  0  0  0
    1.3976   -0.8671    1.0392 H   0  0  0  0  0  0  0  0  0  0  0  0
    3.1952   -2.2312    2.7708 H   0  0  0  0  0  0  0  0  0  0  0  0
    1.5253   -2.7149    2.6173 H   0  0  0  0  0  0  0  0  0  0  0  0
    1.8522   -2.9263    0.0896 H   0  0  0  0  0  0  0  0  0  0  0  0
    3.6551   -4.5761    1.8846 H   0  0  0  0  0  0  0  0  0  0  0  0
    2.1312   -6.1465    1.3451 H   0  0  0  0  0  0  0  0  0  0  0  0
    3.0501   -4.9326   -1.0382 H   0  0  0  0  0  0  0  0  0  0  0  0
    5.6614   -3.7220   -0.1283 H   0  0  0  0  0  0  0  0  0  0  0  0
    5.6840   -3.5685   -2.5324 H   0  0  0  0  0  0  0  0  0  0  0  0
    3.8980   -3.6459   -2.6110 H   0  0  0  0  0  0  0  0  0  0  0  0
    5.1970   -1.4878   -4.1101 H   0  0  0  0  0  0  0  0  0  0  0  0
    3.4593    0.5622   -2.7056 H   0  0  0  0  0  0  0  0  0  0  0  0
    5.0239    1.0704   -3.1225 H   0  0  0  0  0  0  0  0  0  0  0  0
    2.8432    1.5927   -4.5351 H   0  0  0  0  0  0  0  0  0  0  0  0
    4.2195    1.0350   -5.4767 H   0  0  0  0  0  0  0  0  0  0  0  0
    1.6534   -0.2910   -4.8604 H   0  0  0  0  0  0  0  0  0  0  0  0
    2.9901   -0.5978   -6.0736 H   0  0  0  0  0  0  0  0  0  0  0  0
    3.4489   -2.5349   -4.8171 H   0  0  0  0  0  0  0  0  0  0  0  0
    2.3341   -2.0130   -3.5274 H   0  0  0  0  0  0  0  0  0  0  0  0
    3.8371   -0.4582   -0.5605 H   0  0  0  0  0  0  0  0  0  0  0  0
    2.6439   -1.5549   -1.3906 H   0  0  0  0  0  0  0  0  0  0  0  0
    4.6320   -1.9945    0.8210 H   0  0  0  0  0  0  0  0  0  0  0  0
    5.5052   -1.4403   -1.7039 H   0  0  0  0  0  0  0  0  0  0  0  0
  1  2  1  0
  1 18  1  0
  2  3  1  0
  2 19  1  0
  2 20  1  0
  3 17  1  0
  3  4  1  0
  3 21  1  6
  4  5  1  0
  4  6  1  0
  4 22  1  1
  5 23  1  0
  6  7  1  0
  6  8  1  0
  6 24  1  6
  8 17  1  0
  8  9  1  0
  8 25  1  1
  9 10  1  0
  9 26  1  0
  9 27  1  0
 10 11  1  0
 10 16  1  0
 10 40  1  1
 11 15  1  0
 11 12  1  0
 11 28  1  0
 12 13  1  0
 12 29  1  0
 12 30  1  0
 13 14  1  0
 13 31  1  0
 13 32  1  0
 14 15  1  0
 14 33  1  0
 14 34  1  0
 15 35  1  0
 15 36  1  0
 16 17  1  0
 16 37  1  0
 16 38  1  0
 17 39  1  1
M  CHG  1  10   1
M  END
>  <i_m_ct_stereo_status>  (70) 
1

>  <s_m_source_file>  (70) 
/var/tmp/pbs.5076255.sched01/tmpkni74bsw/0nq93mkxh.sdf

>  <i_m_source_file_index>  (70) 
30

>  <i_lp_mmshare_version>  (70) 
48012

>  <i_f3d_flags>  (70) 
0

>  <s_epik_input>  (70) 
RltDQEhdMVtDQEhdKFtPSF0pW0NAQEhdKFtDSDJdW09IXSlbQ0BASF0oW0NAQEhdMTIpW0NIMl1OKFtDSDJdMilbQ0hdM1tDSDJdW0NIMl1bQ0gyXVtDSDJdMw==

>  <s_epik_cmdline>  (70) 
J2VwaWtfcHl0aG9uJywgJy1waHQnLCAnMi4wJywgJy1waCcsICc3LjAnLCAnLXRuJywgJzgnLCAnLW1hJywgJzIwMCcsICctaW1hZScsICc8aW5maWxlLm1hZT4nLCAnLW9tYWUnLCAnPG91dGZpbGUubWFlPic=

>  <r_epik_Ionization_Penalty>  (70) 
0.00105397

>  <r_epik_Ionization_Penalty_Charging>  (70) 
0.00104859

>  <r_epik_Ionization_Penalty_Neutral>  (70) 
5.38096e-06

>  <r_epik_State_Penalty>  (70) 
0.000685734

>  <r_epik_Charging_Adjusted_Penalty>  (70) 
0.00173433

>  <i_epik_Tot_Q>  (70) 
1

>  <i_epik_Tot_abs_Q>  (70) 
1

>  <s_lp_Force_Field>  (70) 
OPLS3e

>  <r_lp_Energy>  (70) 
29.5864

>  <b_lp_Chiralities_Consistent>  (70) 
1

>  <s_lp_Variant>  (70) 
19:0-1

>  <s_i_glide_gridfile>  (70) 
pfpi4k_grid

>  <i_i_glide_lignum>  (70) 
30

>  <i_i_glide_rotatable_bonds>  (70) 
4

>  <r_i_docking_score>  (70) 
-2.76975

>  <r_i_glide_ligand_efficiency>  (70) 
-0.162927

>  <r_i_glide_ligand_efficiency_sa>  (70) 
-0.41893

>  <r_i_glide_ligand_efficiency_ln>  (70) 
-0.722567

>  <r_i_glide_gscore>  (70) 
-2.76975

>  <r_i_glide_lipo>  (70) 
-0.284963

>  <r_i_glide_hbond>  (70) 
-0.245996

>  <r_i_glide_metal>  (70) 
-0

>  <r_i_glide_rewards>  (70) 
-1.74323

>  <r_i_glide_evdw>  (70) 
-1.12317

>  <r_i_glide_ecoul>  (70) 
-6.65142

>  <r_i_glide_erotb>  (70) 
0.582449

>  <r_i_glide_esite>  (70) 
-0.0241363

>  <r_i_glide_emodel>  (70) 
-5.0022

>  <r_i_glide_energy>  (70) 
-7.77459

>  <r_i_glide_einternal>  (70) 
9.17679

>  <r_i_glide_intrahb_reward>  (70) 
-0

>  <i_i_glide_confnum>  (70) 
5

>  <i_i_glide_posenum>  (70) 
7

>  <r_i_glide_eff_state_penalty>  (70) 
0

>  <ligand_id>  (70) 
19

>  <original_smiles>  (70) 
OCC1C(O)C(F)C2CN(C3CCCC3)CC12

>  <smiles>  (70) 
[H]OC([H])([H])C1([H])C([H])(O[H])C([H])(F)C2([H])C1([H])C([H])([H])[N+]([H])(C1([H])C([H])([H])C([H])([H])C([H])([H])C1([H])[H])C2([H])[H]

$$$$
19:0:2
     RDKit          3D

 40 42  0  0  1  0  0  0  0  0999 V2000
    7.4692   -1.1609    0.5161 O   0  0  0  0  0  0  0  0  0  0  0  0
    6.1701   -0.6587    0.7349 C   0  0  0  0  0  0  0  0  0  0  0  0
    5.1407   -1.4497   -0.0882 C   0  0  2  0  0  0  0  0  0  0  0  0
    4.9773   -2.9074    0.3468 C   0  0  1  0  0  0  0  0  0  0  0  0
    4.1524   -3.0245    1.4883 O   0  0  0  0  0  0  0  0  0  0  0  0
    4.3542   -3.5942   -0.8721 C   0  0  2  0  0  0  0  0  0  0  0  0
    4.6382   -4.8945   -0.8589 F   0  0  0  0  0  0  0  0  0  0  0  0
    5.0260   -2.9412   -2.0872 C   0  0  1  0  0  0  0  0  0  0  0  0
    4.1095   -2.6527   -3.2951 C   0  0  0  0  0  0  0  0  0  0  0  0
    4.5204   -1.2955   -3.7334 N   0  0  1  0  0  0  0  0  0  0  0  0
    3.6459   -0.5704   -4.7115 C   0  0  0  0  0  0  0  0  0  0  0  0
    3.9380    0.9210   -4.8720 C   0  0  0  0  0  0  0  0  0  0  0  0
    2.6539    1.5454   -5.3942 C   0  0  0  0  0  0  0  0  0  0  0  0
    1.5470    0.6738   -4.8175 C   0  0  0  0  0  0  0  0  0  0  0  0
    2.2143   -0.6057   -4.3288 C   0  0  0  0  0  0  0  0  0  0  0  0
    4.7875   -0.5802   -2.4703 C   0  0  0  0  0  0  0  0  0  0  0  0
    5.4896   -1.5788   -1.5829 C   0  0  1  0  0  0  0  0  0  0  0  0
    8.0549   -0.7289    1.1256 H   0  0  0  0  0  0  0  0  0  0  0  0
    5.9235   -0.7024    1.7944 H   0  0  0  0  0  0  0  0  0  0  0  0
    6.1752    0.3977    0.4756 H   0  0  0  0  0  0  0  0  0  0  0  0
    4.1697   -0.9565    0.0111 H   0  0  0  0  0  0  0  0  0  0  0  0
    5.9629   -3.3402    0.5283 H   0  0  0  0  0  0  0  0  0  0  0  0
    3.2846   -2.7206    1.2626 H   0  0  0  0  0  0  0  0  0  0  0  0
    3.2668   -3.4686   -0.8942 H   0  0  0  0  0  0  0  0  0  0  0  0
    5.9183   -3.4915   -2.4155 H   0  0  0  0  0  0  0  0  0  0  0  0
    4.2027   -3.3967   -4.0924 H   0  0  0  0  0  0  0  0  0  0  0  0
    3.0779   -2.6308   -2.9369 H   0  0  0  0  0  0  0  0  0  0  0  0
    3.7432   -1.0279   -5.7011 H   0  0  0  0  0  0  0  0  0  0  0  0
    4.1666    1.4741   -3.9563 H   0  0  0  0  0  0  0  0  0  0  0  0
    4.7762    0.9683   -5.5544 H   0  0  0  0  0  0  0  0  0  0  0  0
    2.6097    2.5806   -5.0654 H   0  0  0  0  0  0  0  0  0  0  0  0
    2.6215    1.5185   -6.4786 H   0  0  0  0  0  0  0  0  0  0  0  0
    1.0150    1.1428   -4.0090 H   0  0  0  0  0  0  0  0  0  0  0  0
    0.7594    0.4396   -5.5156 H   0  0  0  0  0  0  0  0  0  0  0  0
    1.7467   -1.5298   -4.6875 H   0  0  0  0  0  0  0  0  0  0  0  0
    2.2174   -0.5682   -3.2384 H   0  0  0  0  0  0  0  0  0  0  0  0
    5.4047    0.2776   -2.6310 H   0  0  0  0  0  0  0  0  0  0  0  0
    3.8696   -0.2361   -2.0158 H   0  0  0  0  0  0  0  0  0  0  0  0
    6.5572   -1.5422   -1.7793 H   0  0  0  0  0  0  0  0  0  0  0  0
    5.4257   -1.4223   -4.1700 H   0  0  0  0  0  0  0  0  0  0  0  0
  1  2  1  0
  1 18  1  0
  2  3  1  0
  2 19  1  0
  2 20  1  0
  3 17  1  0
  3  4  1  0
  3 21  1  6
  4  5  1  0
  4  6  1  0
  4 22  1  1
  5 23  1  0
  6  7  1  0
  6  8  1  0
  6 24  1  6
  8 17  1  0
  8  9  1  0
  8 25  1  6
  9 10  1  0
  9 26  1  0
  9 27  1  0
 10 11  1  0
 10 16  1  0
 10 40  1  6
 11 15  1  0
 11 12  1  0
 11 28  1  0
 12 13  1  0
 12 29  1  0
 12 30  1  0
 13 14  1  0
 13 31  1  0
 13 32  1  0
 14 15  1  0
 14 33  1  0
 14 34  1  0
 15 35  1  0
 15 36  1  0
 16 17  1  0
 16 37  1  0
 16 38  1  0
 17 39  1  1
M  CHG  1  10   1
M  END
>  <i_m_ct_stereo_status>  (71) 
1

>  <s_m_source_file>  (71) 
/var/tmp/pbs.5076255.sched01/tmpkni74bsw/0nq93mkxh.sdf

>  <i_m_source_file_index>  (71) 
30

>  <i_lp_mmshare_version>  (71) 
48012

>  <i_f3d_flags>  (71) 
0

>  <s_epik_input>  (71) 
RltDQEhdMVtDQEhdKFtPSF0pW0NAQEhdKFtDSDJdW09IXSlbQ0BASF0oW0NAQEhdMTIpW0NIMl1OKFtDSDJdMilbQ0hdM1tDSDJdW0NIMl1bQ0gyXVtDSDJdMw==

>  <s_epik_cmdline>  (71) 
J2VwaWtfcHl0aG9uJywgJy1waHQnLCAnMi4wJywgJy1waCcsICc3LjAnLCAnLXRuJywgJzgnLCAnLW1hJywgJzIwMCcsICctaW1hZScsICc8aW5maWxlLm1hZT4nLCAnLW9tYWUnLCAnPG91dGZpbGUubWFlPic=

>  <r_epik_Ionization_Penalty>  (71) 
0.00105397

>  <r_epik_Ionization_Penalty_Charging>  (71) 
0.00104859

>  <r_epik_Ionization_Penalty_Neutral>  (71) 
5.38096e-06

>  <r_epik_State_Penalty>  (71) 
0.000685734

>  <r_epik_Charging_Adjusted_Penalty>  (71) 
0.00173433

>  <i_epik_Tot_Q>  (71) 
1

>  <i_epik_Tot_abs_Q>  (71) 
1

>  <s_lp_Force_Field>  (71) 
OPLS3e

>  <r_lp_Energy>  (71) 
29.5864

>  <b_lp_Chiralities_Consistent>  (71) 
1

>  <s_lp_Variant>  (71) 
19:0-1

>  <s_i_glide_gridfile>  (71) 
pfpi4k_grid

>  <i_i_glide_lignum>  (71) 
30

>  <i_i_glide_rotatable_bonds>  (71) 
4

>  <r_i_docking_score>  (71) 
-2.6028

>  <r_i_glide_ligand_efficiency>  (71) 
-0.153106

>  <r_i_glide_ligand_efficiency_sa>  (71) 
-0.393679

>  <r_i_glide_ligand_efficiency_ln>  (71) 
-0.679014

>  <r_i_glide_gscore>  (71) 
-2.6028

>  <r_i_glide_lipo>  (71) 
-0.643091

>  <r_i_glide_hbond>  (71) 
-0.167055

>  <r_i_glide_metal>  (71) 
-0

>  <r_i_glide_rewards>  (71) 
-1.74323

>  <r_i_glide_evdw>  (71) 
-5.09306

>  <r_i_glide_ecoul>  (71) 
-2.33031

>  <r_i_glide_erotb>  (71) 
0.582449

>  <r_i_glide_esite>  (71) 
-0.0276725

>  <r_i_glide_emodel>  (71) 
-4.05152

>  <r_i_glide_energy>  (71) 
-7.42337

>  <r_i_glide_einternal>  (71) 
11.4247

>  <r_i_glide_intrahb_reward>  (71) 
-0

>  <i_i_glide_confnum>  (71) 
5

>  <i_i_glide_posenum>  (71) 
30

>  <r_i_glide_eff_state_penalty>  (71) 
0

>  <ligand_id>  (71) 
19

>  <original_smiles>  (71) 
OCC1C(O)C(F)C2CN(C3CCCC3)CC12

>  <smiles>  (71) 
[H]OC([H])([H])C1([H])C([H])(O[H])C([H])(F)C2([H])C1([H])C([H])([H])[N+]([H])(C1([H])C([H])([H])C([H])([H])C([H])([H])C1([H])[H])C2([H])[H]

$$$$
20:0:0
     RDKit          3D

 53 56  0  0  1  0  0  0  0  0999 V2000
    1.4525   -1.8120    2.7839 C   0  0  0  0  0  0  0  0  0  0  0  0
    2.0836   -2.9783    3.5647 C   0  0  0  0  0  0  0  0  0  0  0  0
    1.6107   -3.3276    4.6281 O   0  0  0  0  0  0  0  0  0  0  0  0
    3.2425   -3.5074    3.0713 O   0  0  0  0  0  0  0  0  0  0  0  0
    3.4400   -3.4293    1.7051 C   0  0  2  0  0  0  0  0  0  0  0  0
    2.7566   -4.4849    1.0374 O   0  0  0  0  0  0  0  0  0  0  0  0
    2.8683   -4.6752   -0.4166 C   0  0  1  0  0  0  0  0  0  0  0  0
    1.6393   -4.1304   -1.1312 C   0  0  0  0  0  0  0  0  0  0  0  0
    4.1510   -4.1066   -1.0160 C   0  0  0  0  0  0  0  0  0  0  0  0
    4.8933   -4.1762   -2.1618 C   0  0  0  0  0  0  0  0  0  0  0  0
    6.1701   -3.2395   -2.2598 C   0  0  0  0  0  0  0  0  0  0  0  0
    6.2810   -2.0815   -1.1243 C   0  0  2  0  0  0  0  0  0  0  0  0
    7.1014   -2.2962    0.2685 C   0  0  0  0  0  0  0  0  0  0  0  0
    8.0751   -3.5094    0.1856 C   0  0  0  0  0  0  0  0  0  0  0  0
    8.0118   -1.0711    0.4742 C   0  0  0  0  0  0  0  0  0  0  0  0
    6.0647   -2.4310    1.5638 C   0  0  1  0  0  0  0  0  0  0  0  0
    5.3586   -1.0893    1.7496 C   0  0  0  0  0  0  0  0  0  0  0  0
    4.6864   -0.7242    0.4296 C   0  0  0  0  0  0  0  0  0  0  0  0
    4.8732   -1.8069   -0.6593 C   0  0  1  0  0  0  0  0  0  0  0  0
    3.9485   -1.3261   -1.8288 C   0  0  0  0  0  0  0  0  0  0  0  0
    4.7224   -3.2434   -0.0834 C   0  0  1  0  0  0  0  0  0  0  0  0
    4.9548   -3.5457    1.3456 C   0  0  2  0  0  0  0  0  0  0  0  0
    5.4574   -4.9645    1.8172 C   0  0  0  0  0  0  0  0  0  0  0  0
    1.1105   -2.0901    1.7798 H   0  0  0  0  0  0  0  0  0  0  0  0
    2.1909   -1.0232    2.6740 H   0  0  0  0  0  0  0  0  0  0  0  0
    0.6145   -1.3846    3.3265 H   0  0  0  0  0  0  0  0  0  0  0  0
    3.0369   -2.5118    1.2906 H   0  0  0  0  0  0  0  0  0  0  0  0
    2.8778   -5.7228   -0.5335 H   0  0  0  0  0  0  0  0  0  0  0  0
    1.7263   -4.2169   -2.2119 H   0  0  0  0  0  0  0  0  0  0  0  0
    1.4586   -3.0684   -0.8999 H   0  0  0  0  0  0  0  0  0  0  0  0
    0.7906   -4.7340   -0.8550 H   0  0  0  0  0  0  0  0  0  0  0  0
    4.6298   -4.7840   -3.0171 H   0  0  0  0  0  0  0  0  0  0  0  0
    7.0695   -3.8499   -2.3278 H   0  0  0  0  0  0  0  0  0  0  0  0
    6.0789   -2.7535   -3.2321 H   0  0  0  0  0  0  0  0  0  0  0  0
    6.5332   -1.1508   -1.6489 H   0  0  0  0  0  0  0  0  0  0  0  0
    8.5421   -3.6995    1.1533 H   0  0  0  0  0  0  0  0  0  0  0  0
    8.8736   -3.3280   -0.5376 H   0  0  0  0  0  0  0  0  0  0  0  0
    7.6043   -4.4319   -0.1293 H   0  0  0  0  0  0  0  0  0  0  0  0
    8.4883   -1.0180    1.4255 H   0  0  0  0  0  0  0  0  0  0  0  0
    7.4044   -0.2209    0.2775 H   0  0  0  0  0  0  0  0  0  0  0  0
    8.8261   -1.0810   -0.2519 H   0  0  0  0  0  0  0  0  0  0  0  0
    6.6162   -2.6544    2.4684 H   0  0  0  0  0  0  0  0  0  0  0  0
    4.6258   -1.1380    2.5523 H   0  0  0  0  0  0  0  0  0  0  0  0
    6.0580   -0.3114    2.0483 H   0  0  0  0  0  0  0  0  0  0  0  0
    3.6282   -0.5521    0.6104 H   0  0  0  0  0  0  0  0  0  0  0  0
    5.0711    0.2246    0.0788 H   0  0  0  0  0  0  0  0  0  0  0  0
    2.9111   -1.2737   -1.5117 H   0  0  0  0  0  0  0  0  0  0  0  0
    3.9624   -1.9186   -2.7403 H   0  0  0  0  0  0  0  0  0  0  0  0
    4.2323   -0.3208   -2.1369 H   0  0  0  0  0  0  0  0  0  0  0  0
    5.5592   -3.9338   -0.1414 H   0  0  0  0  0  0  0  0  0  0  0  0
    6.4998   -5.1560    1.5796 H   0  0  0  0  0  0  0  0  0  0  0  0
    4.8744   -5.7820    1.3936 H   0  0  0  0  0  0  0  0  0  0  0  0
    5.3781   -5.0284    2.8996 H   0  0  0  0  0  0  0  0  0  0  0  0
  1  2  1  0
  1 24  1  0
  1 25  1  0
  1 26  1  0
  2  3  2  0
  2  4  1  0
  4  5  1  0
  5 22  1  0
  5  6  1  0
  5 27  1  6
  6  7  1  0
  7  8  1  0
  7  9  1  0
  7 28  1  1
  8 29  1  0
  8 30  1  0
  8 31  1  0
  9 21  1  0
  9 10  2  0
 10 11  1  0
 10 32  1  0
 11 12  1  0
 11 33  1  0
 11 34  1  0
 12 19  1  0
 12 13  1  0
 12 35  1  6
 13 14  1  0
 13 15  1  0
 13 16  1  0
 14 36  1  0
 14 37  1  0
 14 38  1  0
 15 39  1  0
 15 40  1  0
 15 41  1  0
 16 22  1  0
 16 17  1  0
 16 42  1  1
 17 18  1  0
 17 43  1  0
 17 44  1  0
 18 19  1  0
 18 45  1  0
 18 46  1  0
 19 20  1  6
 19 21  1  0
 20 47  1  0
 20 48  1  0
 20 49  1  0
 21 22  1  0
 21 50  1  6
 22 23  1  6
 23 51  1  0
 23 52  1  0
 23 53  1  0
M  END
>  <i_m_ct_stereo_status>  (72) 
1

>  <s_m_source_file>  (72) 
/var/tmp/pbs.5076255.sched01/tmpkni74bsw/0nq93mkxh.sdf

>  <i_m_source_file_index>  (72) 
31

>  <i_lp_mmshare_version>  (72) 
48012

>  <i_f3d_flags>  (72) 
0

>  <s_epik_input>  (72) 
W0NIM11DKD1PKU9bQ0BIXShPW0NASF0xW0NIM10pW0NAXShbQ0gzXSkoW0NAQEhdKEMyKFtDSDNdKVtDSDNdKVtDSDJdW0NIMl0zKVtDQEhdNEMxPVtDSF1bQ0gyXVtDQEhdMltDQF0zNFtDSDNd

>  <s_epik_cmdline>  (72) 
J2VwaWtfcHl0aG9uJywgJy1waHQnLCAnMi4wJywgJy1waCcsICc3LjAnLCAnLXRuJywgJzgnLCAnLW1hJywgJzIwMCcsICctaW1hZScsICc8aW5maWxlLm1hZT4nLCAnLW9tYWUnLCAnPG91dGZpbGUubWFlPic=

>  <r_lp_tautomer_probability>  (72) 
1

>  <r_epik_Ionization_Penalty>  (72) 
3.6468e-13

>  <r_epik_Ionization_Penalty_Charging>  (72) 
0

>  <r_epik_Ionization_Penalty_Neutral>  (72) 
3.6468e-13

>  <r_epik_State_Penalty>  (72) 
-0

>  <r_epik_Charging_Adjusted_Penalty>  (72) 
0

>  <i_epik_Tot_Q>  (72) 
0

>  <i_epik_Tot_abs_Q>  (72) 
0

>  <s_epik_Chemistry_Notes>  (72) 
This compound has an ester and may undergo hydrolysis at high or low pH. This compound contains an acetal/aminal-like group ( X-CH(R)-Y where X, Y are N, S, or O) that may be acid/base labile, releasing an aldehyde.

>  <s_lp_Force_Field>  (72) 
OPLS3e

>  <r_lp_Energy>  (72) 
179.896

>  <b_lp_Chiralities_Consistent>  (72) 
1

>  <s_lp_Variant>  (72) 
20:0-1

>  <s_i_glide_gridfile>  (72) 
pfpi4k_grid

>  <i_i_glide_lignum>  (72) 
31

>  <i_i_glide_rotatable_bonds>  (72) 
2

>  <r_i_docking_score>  (72) 
-2.52293

>  <r_i_glide_ligand_efficiency>  (72) 
-0.109692

>  <r_i_glide_ligand_efficiency_sa>  (72) 
-0.311951

>  <r_i_glide_ligand_efficiency_ln>  (72) 
-0.610066

>  <r_i_glide_gscore>  (72) 
-2.52293

>  <r_i_glide_lipo>  (72) 
-0.954721

>  <r_i_glide_hbond>  (72) 
0

>  <r_i_glide_metal>  (72) 
-0

>  <r_i_glide_rewards>  (72) 
-1.24694

>  <r_i_glide_evdw>  (72) 
-3.85804

>  <r_i_glide_ecoul>  (72) 
-2.08147

>  <r_i_glide_erotb>  (72) 
0.183857

>  <r_i_glide_esite>  (72) 
0

>  <r_i_glide_emodel>  (72) 
-2.00547

>  <r_i_glide_energy>  (72) 
-5.93951

>  <r_i_glide_einternal>  (72) 
8.88382

>  <r_i_glide_intrahb_reward>  (72) 
-0

>  <i_i_glide_confnum>  (72) 
2

>  <i_i_glide_posenum>  (72) 
1

>  <r_i_glide_eff_state_penalty>  (72) 
0

>  <ligand_id>  (72) 
20

>  <original_smiles>  (72) 
CC(=O)OC1OC(C)C2=CCC3C(C)(C)C4CCC3(C)C2C14C

>  <smiles>  (72) 
[H]C1=C2C([H])(C([H])([H])[H])OC([H])(OC(=O)C([H])([H])[H])C3(C([H])([H])[H])C2([H])C2(C([H])([H])[H])C([H])([H])C([H])([H])C3([H])C(C([H])([H])[H])(C([H])([H])[H])C2([H])C1([H])[H]

$$$$
20:0:1
     RDKit          3D

 53 56  0  0  1  0  0  0  0  0999 V2000
    2.7675   -4.6504    5.2319 C   0  0  0  0  0  0  0  0  0  0  0  0
    2.8784   -4.7816    3.7263 C   0  0  0  0  0  0  0  0  0  0  0  0
    2.7844   -5.8876    3.1838 O   0  0  0  0  0  0  0  0  0  0  0  0
    3.1221   -3.5653    3.1454 O   0  0  0  0  0  0  0  0  0  0  0  0
    3.3397   -3.4724    1.7654 C   0  0  2  0  0  0  0  0  0  0  0  0
    2.6244   -4.4596    1.0018 O   0  0  0  0  0  0  0  0  0  0  0  0
    2.8126   -4.6600   -0.4248 C   0  0  1  0  0  0  0  0  0  0  0  0
    1.6084   -4.1201   -1.1705 C   0  0  0  0  0  0  0  0  0  0  0  0
    4.1102   -4.1063   -1.0116 C   0  0  0  0  0  0  0  0  0  0  0  0
    4.8880   -4.1909   -2.1404 C   0  0  0  0  0  0  0  0  0  0  0  0
    6.1617   -3.2551   -2.2292 C   0  0  0  0  0  0  0  0  0  0  0  0
    6.2632   -2.0738   -1.1018 C   0  0  2  0  0  0  0  0  0  0  0  0
    7.0483   -2.3284    0.3057 C   0  0  0  0  0  0  0  0  0  0  0  0
    8.0320   -3.5259    0.2363 C   0  0  0  0  0  0  0  0  0  0  0  0
    7.9838   -1.1386    0.4846 C   0  0  0  0  0  0  0  0  0  0  0  0
    5.9882   -2.4325    1.5904 C   0  0  1  0  0  0  0  0  0  0  0  0
    5.2991   -1.0797    1.7625 C   0  0  0  0  0  0  0  0  0  0  0  0
    4.6462   -0.7113    0.4234 C   0  0  0  0  0  0  0  0  0  0  0  0
    4.8511   -1.7901   -0.6589 C   0  0  1  0  0  0  0  0  0  0  0  0
    3.9277   -1.3335   -1.8324 C   0  0  0  0  0  0  0  0  0  0  0  0
    4.6221   -3.2162   -0.0585 C   0  0  1  0  0  0  0  0  0  0  0  0
    4.8728   -3.5421    1.3846 C   0  0  2  0  0  0  0  0  0  0  0  0
    5.4473   -4.9361    1.8113 C   0  0  0  0  0  0  0  0  0  0  0  0
    1.9396   -3.9931    5.4987 H   0  0  0  0  0  0  0  0  0  0  0  0
    3.6992   -4.2525    5.6212 H   0  0  0  0  0  0  0  0  0  0  0  0
    2.5980   -5.6359    5.6573 H   0  0  0  0  0  0  0  0  0  0  0  0
    2.9082   -2.5108    1.4405 H   0  0  0  0  0  0  0  0  0  0  0  0
    2.8450   -5.7474   -0.5443 H   0  0  0  0  0  0  0  0  0  0  0  0
    1.6965   -4.2139   -2.2601 H   0  0  0  0  0  0  0  0  0  0  0  0
    1.4188   -3.0728   -0.9563 H   0  0  0  0  0  0  0  0  0  0  0  0
    0.7520   -4.7054   -0.8918 H   0  0  0  0  0  0  0  0  0  0  0  0
    4.6528   -4.8161   -2.9883 H   0  0  0  0  0  0  0  0  0  0  0  0
    7.0859   -3.8165   -2.2827 H   0  0  0  0  0  0  0  0  0  0  0  0
    6.0758   -2.7611   -3.2051 H   0  0  0  0  0  0  0  0  0  0  0  0
    6.5746   -1.1725   -1.6233 H   0  0  0  0  0  0  0  0  0  0  0  0
    8.4817   -3.6939    1.2104 H   0  0  0  0  0  0  0  0  0  0  0  0
    8.8357   -3.3460   -0.4715 H   0  0  0  0  0  0  0  0  0  0  0  0
    7.5659   -4.4484   -0.0898 H   0  0  0  0  0  0  0  0  0  0  0  0
    8.4243   -1.0438    1.4599 H   0  0  0  0  0  0  0  0  0  0  0  0
    7.3815   -0.2723    0.2623 H   0  0  0  0  0  0  0  0  0  0  0  0
    8.7897   -1.1516   -0.2391 H   0  0  0  0  0  0  0  0  0  0  0  0
    6.5435   -2.6477    2.4839 H   0  0  0  0  0  0  0  0  0  0  0  0
    4.5552   -1.1225    2.5563 H   0  0  0  0  0  0  0  0  0  0  0  0
    6.0066   -0.3006    2.0620 H   0  0  0  0  0  0  0  0  0  0  0  0
    3.5686   -0.5474    0.6086 H   0  0  0  0  0  0  0  0  0  0  0  0
    5.0368    0.2388    0.0903 H   0  0  0  0  0  0  0  0  0  0  0  0
    2.8806   -1.2822   -1.5211 H   0  0  0  0  0  0  0  0  0  0  0  0
    3.9479   -1.9399   -2.7349 H   0  0  0  0  0  0  0  0  0  0  0  0
    4.2184   -0.3282   -2.1501 H   0  0  0  0  0  0  0  0  0  0  0  0
    5.4716   -3.8991   -0.1163 H   0  0  0  0  0  0  0  0  0  0  0  0
    6.4792   -5.1198    1.5166 H   0  0  0  0  0  0  0  0  0  0  0  0
    4.8612   -5.7683    1.4092 H   0  0  0  0  0  0  0  0  0  0  0  0
    5.4694   -4.9985    2.9011 H   0  0  0  0  0  0  0  0  0  0  0  0
  1  2  1  0
  1 24  1  0
  1 25  1  0
  1 26  1  0
  2  3  2  0
  2  4  1  0
  4  5  1  0
  5 22  1  0
  5  6  1  0
  5 27  1  6
  6  7  1  0
  7  8  1  0
  7  9  1  0
  7 28  1  1
  8 29  1  0
  8 30  1  0
  8 31  1  0
  9 21  1  0
  9 10  2  0
 10 11  1  0
 10 32  1  0
 11 12  1  0
 11 33  1  0
 11 34  1  0
 12 19  1  0
 12 13  1  0
 12 35  1  6
 13 14  1  0
 13 15  1  0
 13 16  1  0
 14 36  1  0
 14 37  1  0
 14 38  1  0
 15 39  1  0
 15 40  1  0
 15 41  1  0
 16 22  1  0
 16 17  1  0
 16 42  1  1
 17 18  1  0
 17 43  1  0
 17 44  1  0
 18 19  1  0
 18 45  1  0
 18 46  1  0
 19 20  1  6
 19 21  1  0
 20 47  1  0
 20 48  1  0
 20 49  1  0
 21 22  1  0
 21 50  1  6
 22 23  1  6
 23 51  1  0
 23 52  1  0
 23 53  1  0
M  END
>  <i_m_ct_stereo_status>  (73) 
1

>  <s_m_source_file>  (73) 
/var/tmp/pbs.5076255.sched01/tmpkni74bsw/0nq93mkxh.sdf

>  <i_m_source_file_index>  (73) 
31

>  <i_lp_mmshare_version>  (73) 
48012

>  <i_f3d_flags>  (73) 
0

>  <s_epik_input>  (73) 
W0NIM11DKD1PKU9bQ0BIXShPW0NASF0xW0NIM10pW0NAXShbQ0gzXSkoW0NAQEhdKEMyKFtDSDNdKVtDSDNdKVtDSDJdW0NIMl0zKVtDQEhdNEMxPVtDSF1bQ0gyXVtDQEhdMltDQF0zNFtDSDNd

>  <s_epik_cmdline>  (73) 
J2VwaWtfcHl0aG9uJywgJy1waHQnLCAnMi4wJywgJy1waCcsICc3LjAnLCAnLXRuJywgJzgnLCAnLW1hJywgJzIwMCcsICctaW1hZScsICc8aW5maWxlLm1hZT4nLCAnLW9tYWUnLCAnPG91dGZpbGUubWFlPic=

>  <r_lp_tautomer_probability>  (73) 
1

>  <r_epik_Ionization_Penalty>  (73) 
3.6468e-13

>  <r_epik_Ionization_Penalty_Charging>  (73) 
0

>  <r_epik_Ionization_Penalty_Neutral>  (73) 
3.6468e-13

>  <r_epik_State_Penalty>  (73) 
-0

>  <r_epik_Charging_Adjusted_Penalty>  (73) 
0

>  <i_epik_Tot_Q>  (73) 
0

>  <i_epik_Tot_abs_Q>  (73) 
0

>  <s_epik_Chemistry_Notes>  (73) 
This compound has an ester and may undergo hydrolysis at high or low pH. This compound contains an acetal/aminal-like group ( X-CH(R)-Y where X, Y are N, S, or O) that may be acid/base labile, releasing an aldehyde.

>  <s_lp_Force_Field>  (73) 
OPLS3e

>  <r_lp_Energy>  (73) 
179.896

>  <b_lp_Chiralities_Consistent>  (73) 
1

>  <s_lp_Variant>  (73) 
20:0-1

>  <s_i_glide_gridfile>  (73) 
pfpi4k_grid

>  <i_i_glide_lignum>  (73) 
31

>  <i_i_glide_rotatable_bonds>  (73) 
2

>  <r_i_docking_score>  (73) 
-2.34679

>  <r_i_glide_ligand_efficiency>  (73) 
-0.102034

>  <r_i_glide_ligand_efficiency_sa>  (73) 
-0.290172

>  <r_i_glide_ligand_efficiency_ln>  (73) 
-0.567476

>  <r_i_glide_gscore>  (73) 
-2.34679

>  <r_i_glide_lipo>  (73) 
-0.959224

>  <r_i_glide_hbond>  (73) 
0

>  <r_i_glide_metal>  (73) 
-0

>  <r_i_glide_rewards>  (73) 
-1.24081

>  <r_i_glide_evdw>  (73) 
-3.13956

>  <r_i_glide_ecoul>  (73) 
-1.15756

>  <r_i_glide_erotb>  (73) 
0.183857

>  <r_i_glide_esite>  (73) 
0

>  <r_i_glide_emodel>  (73) 
-1.56804

>  <r_i_glide_energy>  (73) 
-4.29712

>  <r_i_glide_einternal>  (73) 
5.97805

>  <r_i_glide_intrahb_reward>  (73) 
-0

>  <i_i_glide_confnum>  (73) 
3

>  <i_i_glide_posenum>  (73) 
40

>  <r_i_glide_eff_state_penalty>  (73) 
0

>  <ligand_id>  (73) 
20

>  <original_smiles>  (73) 
CC(=O)OC1OC(C)C2=CCC3C(C)(C)C4CCC3(C)C2C14C

>  <smiles>  (73) 
[H]C1=C2C([H])(C([H])([H])[H])OC([H])(OC(=O)C([H])([H])[H])C3(C([H])([H])[H])C2([H])C2(C([H])([H])[H])C([H])([H])C([H])([H])C3([H])C(C([H])([H])[H])(C([H])([H])[H])C2([H])C1([H])[H]

$$$$
20:0:2
     RDKit          3D

 53 56  0  0  1  0  0  0  0  0999 V2000
    2.3387   -3.1919    5.0600 C   0  0  0  0  0  0  0  0  0  0  0  0
    2.3868   -3.0560    3.5523 C   0  0  0  0  0  0  0  0  0  0  0  0
    1.4206   -2.6202    2.9180 O   0  0  0  0  0  0  0  0  0  0  0  0
    3.5709   -3.4357    3.0537 O   0  0  0  0  0  0  0  0  0  0  0  0
    3.6734   -3.3655    1.6647 C   0  0  2  0  0  0  0  0  0  0  0  0
    2.9077   -4.3876    1.0160 O   0  0  0  0  0  0  0  0  0  0  0  0
    2.9839   -4.5739   -0.4431 C   0  0  1  0  0  0  0  0  0  0  0  0
    1.8443   -3.8539   -1.1358 C   0  0  0  0  0  0  0  0  0  0  0  0
    4.3043   -4.1315   -1.0853 C   0  0  0  0  0  0  0  0  0  0  0  0
    5.0202   -4.2472   -2.2516 C   0  0  0  0  0  0  0  0  0  0  0  0
    6.3404   -3.3666   -2.4094 C   0  0  0  0  0  0  0  0  0  0  0  0
    6.5955   -2.2731   -1.2452 C   0  0  2  0  0  0  0  0  0  0  0  0
    7.4109   -2.5644    0.1357 C   0  0  0  0  0  0  0  0  0  0  0  0
    8.2703   -3.8493    0.0406 C   0  0  0  0  0  0  0  0  0  0  0  0
    8.4647   -1.4694    0.3248 C   0  0  0  0  0  0  0  0  0  0  0  0
    6.3665   -2.5846    1.4101 C   0  0  1  0  0  0  0  0  0  0  0  0
    5.8043   -1.1831    1.6277 C   0  0  0  0  0  0  0  0  0  0  0  0
    5.1764   -0.7473    0.3170 C   0  0  0  0  0  0  0  0  0  0  0  0
    5.2143   -1.8558   -0.7708 C   0  0  1  0  0  0  0  0  0  0  0  0
    4.3255   -1.2947   -1.9198 C   0  0  0  0  0  0  0  0  0  0  0  0
    4.9123   -3.2656   -0.1742 C   0  0  1  0  0  0  0  0  0  0  0  0
    5.1483   -3.5902    1.2354 C   0  0  2  0  0  0  0  0  0  0  0  0
    5.5575   -5.0315    1.7262 C   0  0  0  0  0  0  0  0  0  0  0  0
    3.1505   -2.6162    5.5055 H   0  0  0  0  0  0  0  0  0  0  0  0
    2.4574   -4.2372    5.3459 H   0  0  0  0  0  0  0  0  0  0  0  0
    1.3915   -2.8265    5.4588 H   0  0  0  0  0  0  0  0  0  0  0  0
    3.2889   -2.4049    1.3085 H   0  0  0  0  0  0  0  0  0  0  0  0
    2.8677   -5.6419   -0.6099 H   0  0  0  0  0  0  0  0  0  0  0  0
    1.8709   -3.9701   -2.2189 H   0  0  0  0  0  0  0  0  0  0  0  0
    1.8473   -2.7858   -0.8864 H   0  0  0  0  0  0  0  0  0  0  0  0
    0.9688   -4.3660   -0.7961 H   0  0  0  0  0  0  0  0  0  0  0  0
    4.6796   -4.8432   -3.0888 H   0  0  0  0  0  0  0  0  0  0  0  0
    7.2647   -3.8867   -2.5960 H   0  0  0  0  0  0  0  0  0  0  0  0
    6.1919   -2.8623   -3.3743 H   0  0  0  0  0  0  0  0  0  0  0  0
    7.0199   -1.4684   -1.7988 H   0  0  0  0  0  0  0  0  0  0  0  0
    8.7558   -4.0838    0.9986 H   0  0  0  0  0  0  0  0  0  0  0  0
    9.0737   -3.7583   -0.7027 H   0  0  0  0  0  0  0  0  0  0  0  0
    7.7129   -4.7396   -0.2627 H   0  0  0  0  0  0  0  0  0  0  0  0
    9.0068   -1.4823    1.2735 H   0  0  0  0  0  0  0  0  0  0  0  0
    8.0186   -0.4763    0.2294 H   0  0  0  0  0  0  0  0  0  0  0  0
    9.2404   -1.5912   -0.4214 H   0  0  0  0  0  0  0  0  0  0  0  0
    6.8880   -2.9050    2.2930 H   0  0  0  0  0  0  0  0  0  0  0  0
    5.0910   -1.1754    2.4585 H   0  0  0  0  0  0  0  0  0  0  0  0
    6.5985   -0.5018    1.9132 H   0  0  0  0  0  0  0  0  0  0  0  0
    4.1394   -0.4938    0.5206 H   0  0  0  0  0  0  0  0  0  0  0  0
    5.6862    0.1416   -0.0375 H   0  0  0  0  0  0  0  0  0  0  0  0
    3.3057   -1.1534   -1.5627 H   0  0  0  0  0  0  0  0  0  0  0  0
    4.2639   -1.9029   -2.8202 H   0  0  0  0  0  0  0  0  0  0  0  0
    4.7026   -0.3221   -2.2395 H   0  0  0  0  0  0  0  0  0  0  0  0
    5.6967   -4.0198   -0.2281 H   0  0  0  0  0  0  0  0  0  0  0  0
    6.5784   -5.3022    1.4655 H   0  0  0  0  0  0  0  0  0  0  0  0
    4.9017   -5.8108    1.3354 H   0  0  0  0  0  0  0  0  0  0  0  0
    5.5171   -5.0751    2.8164 H   0  0  0  0  0  0  0  0  0  0  0  0
  1  2  1  0
  1 24  1  0
  1 25  1  0
  1 26  1  0
  2  3  2  0
  2  4  1  0
  4  5  1  0
  5 22  1  0
  5  6  1  0
  5 27  1  6
  6  7  1  0
  7  8  1  0
  7  9  1  0
  7 28  1  1
  8 29  1  0
  8 30  1  0
  8 31  1  0
  9 21  1  0
  9 10  2  0
 10 11  1  0
 10 32  1  0
 11 12  1  0
 11 33  1  0
 11 34  1  0
 12 19  1  0
 12 13  1  0
 12 35  1  6
 13 14  1  0
 13 15  1  0
 13 16  1  0
 14 36  1  0
 14 37  1  0
 14 38  1  0
 15 39  1  0
 15 40  1  0
 15 41  1  0
 16 22  1  0
 16 17  1  0
 16 42  1  1
 17 18  1  0
 17 43  1  0
 17 44  1  0
 18 19  1  0
 18 45  1  0
 18 46  1  0
 19 20  1  6
 19 21  1  0
 20 47  1  0
 20 48  1  0
 20 49  1  0
 21 22  1  0
 21 50  1  6
 22 23  1  6
 23 51  1  0
 23 52  1  0
 23 53  1  0
M  END
>  <i_m_ct_stereo_status>  (74) 
1

>  <s_m_source_file>  (74) 
/var/tmp/pbs.5076255.sched01/tmpkni74bsw/0nq93mkxh.sdf

>  <i_m_source_file_index>  (74) 
31

>  <i_lp_mmshare_version>  (74) 
48012

>  <i_f3d_flags>  (74) 
0

>  <s_epik_input>  (74) 
W0NIM11DKD1PKU9bQ0BIXShPW0NASF0xW0NIM10pW0NAXShbQ0gzXSkoW0NAQEhdKEMyKFtDSDNdKVtDSDNdKVtDSDJdW0NIMl0zKVtDQEhdNEMxPVtDSF1bQ0gyXVtDQEhdMltDQF0zNFtDSDNd

>  <s_epik_cmdline>  (74) 
J2VwaWtfcHl0aG9uJywgJy1waHQnLCAnMi4wJywgJy1waCcsICc3LjAnLCAnLXRuJywgJzgnLCAnLW1hJywgJzIwMCcsICctaW1hZScsICc8aW5maWxlLm1hZT4nLCAnLW9tYWUnLCAnPG91dGZpbGUubWFlPic=

>  <r_lp_tautomer_probability>  (74) 
1

>  <r_epik_Ionization_Penalty>  (74) 
3.6468e-13

>  <r_epik_Ionization_Penalty_Charging>  (74) 
0

>  <r_epik_Ionization_Penalty_Neutral>  (74) 
3.6468e-13

>  <r_epik_State_Penalty>  (74) 
-0

>  <r_epik_Charging_Adjusted_Penalty>  (74) 
0

>  <i_epik_Tot_Q>  (74) 
0

>  <i_epik_Tot_abs_Q>  (74) 
0

>  <s_epik_Chemistry_Notes>  (74) 
This compound has an ester and may undergo hydrolysis at high or low pH. This compound contains an acetal/aminal-like group ( X-CH(R)-Y where X, Y are N, S, or O) that may be acid/base labile, releasing an aldehyde.

>  <s_lp_Force_Field>  (74) 
OPLS3e

>  <r_lp_Energy>  (74) 
179.896

>  <b_lp_Chiralities_Consistent>  (74) 
1

>  <s_lp_Variant>  (74) 
20:0-1

>  <s_i_glide_gridfile>  (74) 
pfpi4k_grid

>  <i_i_glide_lignum>  (74) 
31

>  <i_i_glide_rotatable_bonds>  (74) 
2

>  <r_i_docking_score>  (74) 
-2.05212

>  <r_i_glide_ligand_efficiency>  (74) 
-0.0892227

>  <r_i_glide_ligand_efficiency_sa>  (74) 
-0.253737

>  <r_i_glide_ligand_efficiency_ln>  (74) 
-0.496222

>  <r_i_glide_gscore>  (74) 
-2.05212

>  <r_i_glide_lipo>  (74) 
-0.921028

>  <r_i_glide_hbond>  (74) 
0

>  <r_i_glide_metal>  (74) 
-0

>  <r_i_glide_rewards>  (74) 
-1.24621

>  <r_i_glide_evdw>  (74) 
-3.86109

>  <r_i_glide_ecoul>  (74) 
0.828735

>  <r_i_glide_erotb>  (74) 
0.183857

>  <r_i_glide_esite>  (74) 
0

>  <r_i_glide_emodel>  (74) 
-2.66421

>  <r_i_glide_energy>  (74) 
-3.03236

>  <r_i_glide_einternal>  (74) 
0.237378

>  <r_i_glide_intrahb_reward>  (74) 
-0

>  <i_i_glide_confnum>  (74) 
3

>  <i_i_glide_posenum>  (74) 
7

>  <r_i_glide_eff_state_penalty>  (74) 
0

>  <ligand_id>  (74) 
20

>  <original_smiles>  (74) 
CC(=O)OC1OC(C)C2=CCC3C(C)(C)C4CCC3(C)C2C14C

>  <smiles>  (74) 
[H]C1=C2C([H])(C([H])([H])[H])OC([H])(OC(=O)C([H])([H])[H])C3(C([H])([H])[H])C2([H])C2(C([H])([H])[H])C([H])([H])C([H])([H])C3([H])C(C([H])([H])[H])(C([H])([H])[H])C2([H])C1([H])[H]

$$$$
22:0:0
     RDKit          3D

 87 94  0  0  1  0  0  0  0  0999 V2000
    6.2905   -4.4885    7.1458 C   0  0  0  0  0  0  0  0  0  0  0  0
    5.7033   -3.8560    5.8795 C   0  0  2  0  0  0  0  0  0  0  0  0
    4.7007   -2.7376    6.1664 C   0  0  0  0  0  0  0  0  0  0  0  0
    4.8566   -1.9679    7.1260 O   0  0  0  0  0  0  0  0  0  0  0  0
    3.7610   -2.6660    5.2308 N   0  0  0  0  0  0  0  0  0  0  0  0
    3.1220   -1.3383    4.9042 C   0  0  2  0  0  0  0  0  0  0  0  0
    1.6884   -1.3518    4.3358 C   0  0  2  0  0  0  0  0  0  0  0  0
    1.6815   -1.6454    2.8052 C   0  0  0  0  0  0  0  0  0  0  0  0
    2.5149   -0.6099    2.0533 C   0  0  1  0  0  0  0  0  0  0  0  0
    1.8927    0.7767    2.2551 C   0  0  0  0  0  0  0  0  0  0  0  0
    1.9102    1.1103    3.7631 C   0  0  1  0  0  0  0  0  0  0  0  0
    1.0782    0.0648    4.5495 C   0  0  0  0  0  0  0  0  0  0  0  0
    3.3708    1.1016    4.2792 C   0  0  0  0  0  0  0  0  0  0  0  0
    3.9811   -0.3166    4.0913 C   0  0  1  0  0  0  0  0  0  0  0  0
    5.3363   -0.2558    4.5199 O   0  0  0  0  0  0  0  0  0  0  0  0
    3.9689   -0.6411    2.5772 C   0  0  0  0  0  0  0  0  0  0  0  0
    3.8211   -3.8509    4.3403 C   0  0  1  0  0  0  0  0  0  0  0  0
    4.8478   -4.7889    5.0252 C   0  0  1  0  0  0  0  0  0  0  0  0
    5.6093   -5.7039    4.0634 C   0  0  0  0  0  0  0  0  0  0  0  0
    4.8256   -6.9552    3.6103 C   0  0  0  0  0  0  0  0  0  0  0  0
    3.2815   -6.9353    3.3151 C   0  0  1  0  0  0  0  0  0  0  0  0
    2.3559   -7.5779    4.4088 C   0  0  1  0  0  0  0  0  0  0  0  0
    2.9635   -8.6326    5.1108 O   0  0  0  0  0  0  0  0  0  0  0  0
    2.0470   -6.6597    5.6242 C   0  0  0  0  0  0  0  0  0  0  0  0
    1.8201   -5.1694    5.3155 C   0  0  0  0  0  0  0  0  0  0  0  0
    2.4900   -4.6148    4.0248 C   0  0  2  0  0  0  0  0  0  0  0  0
    2.6021   -5.6379    2.8141 C   0  0  1  0  0  0  0  0  0  0  0  0
    3.3973   -5.0695    1.5928 C   0  0  0  0  0  0  0  0  0  0  0  0
    1.1544   -5.9861    2.2784 C   0  0  1  0  0  0  0  0  0  0  0  0
    1.1495   -6.5031    0.9543 O   0  0  0  0  0  0  0  0  0  0  0  0
    0.2772   -6.9124    3.1625 C   0  0  1  0  0  0  0  0  0  0  0  0
   -0.9607   -7.2210    2.5400 O   0  0  0  0  0  0  0  0  0  0  0  0
    1.0563   -8.1256    3.7307 C   0  0  1  0  0  0  0  0  0  0  0  0
    1.2419   -9.2877    2.6757 C   0  0  0  0  0  0  0  0  0  0  0  0
    0.2116  -10.4035    2.9263 C   0  0  0  0  0  0  0  0  0  0  0  0
    0.9279  -11.3542    3.8946 C   0  0  0  0  0  0  0  0  0  0  0  0
    2.4296  -11.2498    3.5762 C   0  0  0  0  0  0  0  0  0  0  0  0
    2.5951  -10.0550    2.6251 C   0  0  0  0  0  0  0  0  0  0  0  0
    6.8611   -3.7547    7.7157 H   0  0  0  0  0  0  0  0  0  0  0  0
    6.9659   -5.3039    6.8943 H   0  0  0  0  0  0  0  0  0  0  0  0
    5.5109   -4.8808    7.7973 H   0  0  0  0  0  0  0  0  0  0  0  0
    6.5113   -3.4164    5.2943 H   0  0  0  0  0  0  0  0  0  0  0  0
    2.9961   -0.8856    5.8884 H   0  0  0  0  0  0  0  0  0  0  0  0
    1.0829   -2.0727    4.8843 H   0  0  0  0  0  0  0  0  0  0  0  0
    2.1336   -2.5778    2.5076 H   0  0  0  0  0  0  0  0  0  0  0  0
    0.6498   -1.6576    2.4454 H   0  0  0  0  0  0  0  0  0  0  0  0
    2.5009   -0.8625    0.9958 H   0  0  0  0  0  0  0  0  0  0  0  0
    2.4431    1.5261    1.6835 H   0  0  0  0  0  0  0  0  0  0  0  0
    0.8664    0.7766    1.8804 H   0  0  0  0  0  0  0  0  0  0  0  0
    1.4855    2.1081    3.9030 H   0  0  0  0  0  0  0  0  0  0  0  0
    0.0426    0.0841    4.2098 H   0  0  0  0  0  0  0  0  0  0  0  0
    1.0508    0.3292    5.6095 H   0  0  0  0  0  0  0  0  0  0  0  0
    3.9458    1.8522    3.7354 H   0  0  0  0  0  0  0  0  0  0  0  0
    3.3981    1.3969    5.3300 H   0  0  0  0  0  0  0  0  0  0  0  0
    5.7753    0.4130    4.0456 H   0  0  0  0  0  0  0  0  0  0  0  0
    4.3995   -1.6235    2.3962 H   0  0  0  0  0  0  0  0  0  0  0  0
    4.5948    0.0558    2.0157 H   0  0  0  0  0  0  0  0  0  0  0  0
    4.2709   -3.4704    3.4349 H   0  0  0  0  0  0  0  0  0  0  0  0
    4.3592   -5.4272    5.7513 H   0  0  0  0  0  0  0  0  0  0  0  0
    5.9870   -5.1377    3.2132 H   0  0  0  0  0  0  0  0  0  0  0  0
    6.5116   -6.0560    4.5692 H   0  0  0  0  0  0  0  0  0  0  0  0
    5.3180   -7.2934    2.7027 H   0  0  0  0  0  0  0  0  0  0  0  0
    5.0628   -7.7505    4.3146 H   0  0  0  0  0  0  0  0  0  0  0  0
    3.2270   -7.5919    2.4490 H   0  0  0  0  0  0  0  0  0  0  0  0
    2.9977   -9.3908    4.5296 H   0  0  0  0  0  0  0  0  0  0  0  0
    1.1700   -7.0429    6.1535 H   0  0  0  0  0  0  0  0  0  0  0  0
    2.8381   -6.7376    6.3740 H   0  0  0  0  0  0  0  0  0  0  0  0
    0.7534   -4.9639    5.2789 H   0  0  0  0  0  0  0  0  0  0  0  0
    2.1529   -4.6004    6.1857 H   0  0  0  0  0  0  0  0  0  0  0  0
    1.7483   -3.9031    3.7332 H   0  0  0  0  0  0  0  0  0  0  0  0
    2.8858   -4.2199    1.1446 H   0  0  0  0  0  0  0  0  0  0  0  0
    3.5143   -5.8147    0.8061 H   0  0  0  0  0  0  0  0  0  0  0  0
    4.4176   -4.7675    1.8035 H   0  0  0  0  0  0  0  0  0  0  0  0
    0.6262   -5.0555    2.1827 H   0  0  0  0  0  0  0  0  0  0  0  0
    1.5484   -7.3554    0.9543 H   0  0  0  0  0  0  0  0  0  0  0  0
   -0.0770   -6.3251    4.0013 H   0  0  0  0  0  0  0  0  0  0  0  0
   -0.8234   -7.9335    1.9318 H   0  0  0  0  0  0  0  0  0  0  0  0
    0.4344   -8.5107    4.5414 H   0  0  0  0  0  0  0  0  0  0  0  0
    1.0431   -8.8968    1.6834 H   0  0  0  0  0  0  0  0  0  0  0  0
   -0.7607  -10.0583    3.2934 H   0  0  0  0  0  0  0  0  0  0  0  0
    0.0231  -10.9314    1.9919 H   0  0  0  0  0  0  0  0  0  0  0  0
    0.7275  -11.0191    4.9172 H   0  0  0  0  0  0  0  0  0  0  0  0
    0.5662  -12.3810    3.8147 H   0  0  0  0  0  0  0  0  0  0  0  0
    2.9650  -11.1014    4.5115 H   0  0  0  0  0  0  0  0  0  0  0  0
    2.8239  -12.1633    3.1238 H   0  0  0  0  0  0  0  0  0  0  0  0
    2.7235  -10.4346    1.6084 H   0  0  0  0  0  0  0  0  0  0  0  0
    3.4959   -9.4737    2.8406 H   0  0  0  0  0  0  0  0  0  0  0  0
  1  2  1  0
  1 39  1  0
  1 40  1  0
  1 41  1  0
  2 18  1  0
  2  3  1  0
  2 42  1  6
  3  4  2  0
  3  5  1  0
  5  6  1  0
  5 17  1  0
  6 14  1  0
  6  7  1  0
  6 43  1  1
  7 12  1  0
  7  8  1  0
  7 44  1  1
  8  9  1  0
  8 45  1  0
  8 46  1  0
  9 16  1  0
  9 10  1  0
  9 47  1  6
 10 11  1  0
 10 48  1  0
 10 49  1  0
 11 12  1  0
 11 13  1  0
 11 50  1  6
 12 51  1  0
 12 52  1  0
 13 14  1  0
 13 53  1  0
 13 54  1  0
 14 15  1  1
 14 16  1  0
 15 55  1  0
 16 56  1  0
 16 57  1  0
 17 26  1  0
 17 18  1  0
 17 58  1  6
 18 19  1  0
 18 59  1  1
 19 20  1  0
 19 60  1  0
 19 61  1  0
 20 21  1  0
 20 62  1  0
 20 63  1  0
 21 27  1  0
 21 22  1  0
 21 64  1  6
 22 33  1  0
 22 23  1  1
 22 24  1  0
 23 65  1  0
 24 25  1  0
 24 66  1  0
 24 67  1  0
 25 26  1  0
 25 68  1  0
 25 69  1  0
 26 27  1  0
 26 70  1  6
 27 28  1  6
 27 29  1  0
 28 71  1  0
 28 72  1  0
 28 73  1  0
 29 30  1  0
 29 31  1  0
 29 74  1  6
 30 75  1  0
 31 32  1  0
 31 33  1  0
 31 76  1  1
 32 77  1  0
 33 34  1  0
 33 78  1  1
 34 38  1  0
 34 35  1  0
 34 79  1  0
 35 36  1  0
 35 80  1  0
 35 81  1  0
 36 37  1  0
 36 82  1  0
 36 83  1  0
 37 38  1  0
 37 84  1  0
 37 85  1  0
 38 86  1  0
 38 87  1  0
M  END
>  <i_m_ct_stereo_status>  (75) 
1

>  <s_m_source_file>  (75) 
/var/tmp/pbs.5076255.sched01/tmpkni74bsw/0nq93mkxh.sdf

>  <i_m_source_file_index>  (75) 
33

>  <i_lp_mmshare_version>  (75) 
48012

>  <i_f3d_flags>  (75) 
0

>  <s_epik_input>  (75) 
W0NIMl0xW0NAQEhdKFtDSDJdMilbQ0gyXVtDQEBIXShbQ0gyXTMpW0NIMl1bQ0BIXTFbQ0BIXShbQ0BdMjNbT0hdKU40Qyg9TylbQ0BASF0oW0NIM10pW0NASF0oW0NIMl1bQ0gyXTUpW0NASF00W0NASF0oW0NIMl1bQ0gyXTYpW0NAQF0oW0NIM10pKFtDSF01W0NAQF02N1tPSF0pW0NAQEhdKFtPSF0pW0NAQEhdKFtPSF0pW0NASF03W0NIXThbQ0gyXVtDSDJdW0NIMl1bQ0gyXTg=

>  <s_epik_cmdline>  (75) 
J2VwaWtfcHl0aG9uJywgJy1waHQnLCAnMi4wJywgJy1waCcsICc3LjAnLCAnLXRuJywgJzgnLCAnLW1hJywgJzIwMCcsICctaW1hZScsICc8aW5maWxlLm1hZT4nLCAnLW9tYWUnLCAnPG91dGZpbGUubWFlPic=

>  <r_lp_tautomer_probability>  (75) 
1

>  <r_epik_Ionization_Penalty>  (75) 
4.38789e-06

>  <r_epik_Ionization_Penalty_Charging>  (75) 
0

>  <r_epik_Ionization_Penalty_Neutral>  (75) 
4.38789e-06

>  <r_epik_State_Penalty>  (75) 
-0

>  <r_epik_Charging_Adjusted_Penalty>  (75) 
0

>  <i_epik_Tot_Q>  (75) 
0

>  <i_epik_Tot_abs_Q>  (75) 
0

>  <s_lp_Force_Field>  (75) 
OPLS3e

>  <r_lp_Energy>  (75) 
69.8447

>  <b_lp_Chiralities_Consistent>  (75) 
1

>  <s_lp_Variant>  (75) 
22:0-1

>  <s_i_glide_gridfile>  (75) 
pfpi4k_grid

>  <i_i_glide_lignum>  (75) 
33

>  <i_i_glide_rotatable_bonds>  (75) 
6

>  <r_i_docking_score>  (75) 
-2.77683

>  <r_i_glide_ligand_efficiency>  (75) 
-0.0730745

>  <r_i_glide_ligand_efficiency_sa>  (75) 
-0.245675

>  <r_i_glide_ligand_efficiency_ln>  (75) 
-0.598767

>  <r_i_glide_gscore>  (75) 
-2.77683

>  <r_i_glide_lipo>  (75) 
-0.324888

>  <r_i_glide_hbond>  (75) 
0

>  <r_i_glide_metal>  (75) 
-0

>  <r_i_glide_rewards>  (75) 
-0.00430478

>  <r_i_glide_evdw>  (75) 
-32.5912

>  <r_i_glide_ecoul>  (75) 
-6.43995

>  <r_i_glide_erotb>  (75) 
0.147912

>  <r_i_glide_esite>  (75) 
0

>  <r_i_glide_emodel>  (75) 
-43.4019

>  <r_i_glide_energy>  (75) 
-39.0311

>  <r_i_glide_einternal>  (75) 
0.462158

>  <r_i_glide_intrahb_reward>  (75) 
-0

>  <i_i_glide_confnum>  (75) 
1

>  <i_i_glide_posenum>  (75) 
28

>  <r_i_glide_eff_state_penalty>  (75) 
0

>  <ligand_id>  (75) 
22

>  <original_smiles>  (75) 
CC1C(=O)N(C2C3CC4CC(C3)CC2(O)C4)C2C1CCC1C3(O)CCC2C1(C)C(O)C(O)C3C1CCCC1

>  <smiles>  (75) 
[H]OC1([H])C([H])(O[H])C2(C([H])([H])[H])C3([H])C([H])([H])C([H])([H])C(O[H])(C1([H])C1([H])C([H])([H])C([H])([H])C([H])([H])C1([H])[H])C2([H])C([H])([H])C([H])([H])C1([H])C([H])(C([H])([H])[H])C(=O)N(C2([H])C4([H])C([H])([H])C5([H])C([H])([H])C([H])(C4([H])[H])C([H])([H])C2(O[H])C5([H])[H])C13[H]

$$$$
22:0:1
     RDKit          3D

 87 94  0  0  1  0  0  0  0  0999 V2000
    6.3114   -4.4704    7.2189 C   0  0  0  0  0  0  0  0  0  0  0  0
    5.7506   -3.8435    5.9276 C   0  0  2  0  0  0  0  0  0  0  0  0
    4.7521   -2.7288    6.1962 C   0  0  0  0  0  0  0  0  0  0  0  0
    4.8882   -1.9453    7.1551 O   0  0  0  0  0  0  0  0  0  0  0  0
    3.8157   -2.6527    5.2472 N   0  0  0  0  0  0  0  0  0  0  0  0
    3.1883   -1.3368    4.8923 C   0  0  2  0  0  0  0  0  0  0  0  0
    1.7623   -1.3493    4.3009 C   0  0  2  0  0  0  0  0  0  0  0  0
    1.7737   -1.6608    2.7749 C   0  0  0  0  0  0  0  0  0  0  0  0
    2.6176   -0.6277    2.0165 C   0  0  1  0  0  0  0  0  0  0  0  0
    1.9959    0.7697    2.2026 C   0  0  0  0  0  0  0  0  0  0  0  0
    2.0038    1.1097    3.7089 C   0  0  1  0  0  0  0  0  0  0  0  0
    1.1583    0.0793    4.5016 C   0  0  0  0  0  0  0  0  0  0  0  0
    3.4579    1.0980    4.2386 C   0  0  0  0  0  0  0  0  0  0  0  0
    4.0628   -0.3195    4.0685 C   0  0  1  0  0  0  0  0  0  0  0  0
    5.4048   -0.2720    4.5077 O   0  0  0  0  0  0  0  0  0  0  0  0
    4.0628   -0.6470    2.5504 C   0  0  0  0  0  0  0  0  0  0  0  0
    3.8894   -3.8482    4.3685 C   0  0  1  0  0  0  0  0  0  0  0  0
    4.9094   -4.7879    5.0788 C   0  0  1  0  0  0  0  0  0  0  0  0
    5.6871   -5.6987    4.1366 C   0  0  0  0  0  0  0  0  0  0  0  0
    4.8993   -6.9550    3.6781 C   0  0  0  0  0  0  0  0  0  0  0  0
    3.3698   -6.9443    3.3632 C   0  0  1  0  0  0  0  0  0  0  0  0
    2.4318   -7.5697    4.4363 C   0  0  1  0  0  0  0  0  0  0  0  0
    3.0341   -8.6689    5.0821 O   0  0  0  0  0  0  0  0  0  0  0  0
    2.0841   -6.6378    5.6410 C   0  0  0  0  0  0  0  0  0  0  0  0
    1.8564   -5.1391    5.3067 C   0  0  0  0  0  0  0  0  0  0  0  0
    2.5642   -4.5925    4.0187 C   0  0  2  0  0  0  0  0  0  0  0  0
    2.7050   -5.6385    2.8252 C   0  0  1  0  0  0  0  0  0  0  0  0
    3.5333   -5.0827    1.6150 C   0  0  0  0  0  0  0  0  0  0  0  0
    1.2791   -5.9852    2.2572 C   0  0  1  0  0  0  0  0  0  0  0  0
    1.3141   -6.5195    0.9390 O   0  0  0  0  0  0  0  0  0  0  0  0
    0.3774   -6.9021    3.1309 C   0  0  1  0  0  0  0  0  0  0  0  0
   -0.8397   -7.2179    2.4710 O   0  0  0  0  0  0  0  0  0  0  0  0
    1.1410   -8.1166    3.7255 C   0  0  1  0  0  0  0  0  0  0  0  0
    1.3435   -9.2889    2.6825 C   0  0  0  0  0  0  0  0  0  0  0  0
    0.3139  -10.3972    2.9237 C   0  0  0  0  0  0  0  0  0  0  0  0
    1.0082  -11.3501    3.9021 C   0  0  0  0  0  0  0  0  0  0  0  0
    2.5151  -11.2474    3.6027 C   0  0  0  0  0  0  0  0  0  0  0  0
    2.6960  -10.0474    2.6615 C   0  0  0  0  0  0  0  0  0  0  0  0
    6.8710   -3.7373    7.8064 H   0  0  0  0  0  0  0  0  0  0  0  0
    6.9879   -5.2936    6.9973 H   0  0  0  0  0  0  0  0  0  0  0  0
    5.5152   -4.8538    7.8571 H   0  0  0  0  0  0  0  0  0  0  0  0
    6.5689   -3.4191    5.3385 H   0  0  0  0  0  0  0  0  0  0  0  0
    3.0457   -0.8582    5.8622 H   0  0  0  0  0  0  0  0  0  0  0  0
    1.1530   -2.0578    4.8535 H   0  0  0  0  0  0  0  0  0  0  0  0
    2.2192   -2.5752    2.4640 H   0  0  0  0  0  0  0  0  0  0  0  0
    0.7495   -1.6486    2.4039 H   0  0  0  0  0  0  0  0  0  0  0  0
    2.6017   -0.8745    0.9623 H   0  0  0  0  0  0  0  0  0  0  0  0
    2.5599    1.5117    1.6387 H   0  0  0  0  0  0  0  0  0  0  0  0
    0.9748    0.7723    1.8225 H   0  0  0  0  0  0  0  0  0  0  0  0
    1.5898    2.1229    3.8297 H   0  0  0  0  0  0  0  0  0  0  0  0
    0.1288    0.0976    4.1577 H   0  0  0  0  0  0  0  0  0  0  0  0
    1.1265    0.3543    5.5599 H   0  0  0  0  0  0  0  0  0  0  0  0
    4.0395    1.8380    3.6855 H   0  0  0  0  0  0  0  0  0  0  0  0
    3.4840    1.4104    5.2853 H   0  0  0  0  0  0  0  0  0  0  0  0
    5.8537    0.3974    4.0138 H   0  0  0  0  0  0  0  0  0  0  0  0
    4.4849   -1.6350    2.3676 H   0  0  0  0  0  0  0  0  0  0  0  0
    4.6995    0.0484    2.0033 H   0  0  0  0  0  0  0  0  0  0  0  0
    4.3672   -3.4705    3.4766 H   0  0  0  0  0  0  0  0  0  0  0  0
    4.4085   -5.4138    5.8033 H   0  0  0  0  0  0  0  0  0  0  0  0
    6.0851   -5.1398    3.2895 H   0  0  0  0  0  0  0  0  0  0  0  0
    6.5797   -6.0508    4.6602 H   0  0  0  0  0  0  0  0  0  0  0  0
    5.4123   -7.2942    2.7831 H   0  0  0  0  0  0  0  0  0  0  0  0
    5.1299   -7.7460    4.3913 H   0  0  0  0  0  0  0  0  0  0  0  0
    3.3258   -7.6315    2.5336 H   0  0  0  0  0  0  0  0  0  0  0  0
    2.3357   -9.1241    5.5289 H   0  0  0  0  0  0  0  0  0  0  0  0
    1.1990   -7.0099    6.1674 H   0  0  0  0  0  0  0  0  0  0  0  0
    2.8593   -6.6863    6.4024 H   0  0  0  0  0  0  0  0  0  0  0  0
    0.7902   -4.9327    5.2477 H   0  0  0  0  0  0  0  0  0  0  0  0
    2.1948   -4.5815    6.1828 H   0  0  0  0  0  0  0  0  0  0  0  0
    1.8573   -3.8759    3.7295 H   0  0  0  0  0  0  0  0  0  0  0  0
    3.0324   -4.2286    1.1516 H   0  0  0  0  0  0  0  0  0  0  0  0
    3.6736   -5.8292    0.8393 H   0  0  0  0  0  0  0  0  0  0  0  0
    4.5485   -4.7793    1.8454 H   0  0  0  0  0  0  0  0  0  0  0  0
    0.7603   -5.0400    2.1407 H   0  0  0  0  0  0  0  0  0  0  0  0
    2.0805   -6.1897    0.4896 H   0  0  0  0  0  0  0  0  0  0  0  0
   -0.0012   -6.2999    3.9462 H   0  0  0  0  0  0  0  0  0  0  0  0
   -0.6633   -7.9121    1.8496 H   0  0  0  0  0  0  0  0  0  0  0  0
    0.4791   -8.4727    4.5223 H   0  0  0  0  0  0  0  0  0  0  0  0
    1.1823   -8.9134    1.6767 H   0  0  0  0  0  0  0  0  0  0  0  0
   -0.6832  -10.0637    3.2538 H   0  0  0  0  0  0  0  0  0  0  0  0
    0.1533  -10.9304    1.9879 H   0  0  0  0  0  0  0  0  0  0  0  0
    0.7913  -11.0143    4.9218 H   0  0  0  0  0  0  0  0  0  0  0  0
    0.6245  -12.3743    3.8191 H   0  0  0  0  0  0  0  0  0  0  0  0
    3.0302  -11.0699    4.5384 H   0  0  0  0  0  0  0  0  0  0  0  0
    2.9108  -12.1785    3.1700 H   0  0  0  0  0  0  0  0  0  0  0  0
    2.8382  -10.4531    1.6499 H   0  0  0  0  0  0  0  0  0  0  0  0
    3.5813   -9.4609    2.9026 H   0  0  0  0  0  0  0  0  0  0  0  0
  1  2  1  0
  1 39  1  0
  1 40  1  0
  1 41  1  0
  2 18  1  0
  2  3  1  0
  2 42  1  6
  3  4  2  0
  3  5  1  0
  5  6  1  0
  5 17  1  0
  6 14  1  0
  6  7  1  0
  6 43  1  1
  7 12  1  0
  7  8  1  0
  7 44  1  1
  8  9  1  0
  8 45  1  0
  8 46  1  0
  9 16  1  0
  9 10  1  0
  9 47  1  6
 10 11  1  0
 10 48  1  0
 10 49  1  0
 11 12  1  0
 11 13  1  0
 11 50  1  6
 12 51  1  0
 12 52  1  0
 13 14  1  0
 13 53  1  0
 13 54  1  0
 14 15  1  1
 14 16  1  0
 15 55  1  0
 16 56  1  0
 16 57  1  0
 17 26  1  0
 17 18  1  0
 17 58  1  6
 18 19  1  0
 18 59  1  1
 19 20  1  0
 19 60  1  0
 19 61  1  0
 20 21  1  0
 20 62  1  0
 20 63  1  0
 21 27  1  0
 21 22  1  0
 21 64  1  6
 22 33  1  0
 22 23  1  1
 22 24  1  0
 23 65  1  0
 24 25  1  0
 24 66  1  0
 24 67  1  0
 25 26  1  0
 25 68  1  0
 25 69  1  0
 26 27  1  0
 26 70  1  6
 27 28  1  6
 27 29  1  0
 28 71  1  0
 28 72  1  0
 28 73  1  0
 29 30  1  0
 29 31  1  0
 29 74  1  6
 30 75  1  0
 31 32  1  0
 31 33  1  0
 31 76  1  1
 32 77  1  0
 33 34  1  0
 33 78  1  1
 34 38  1  0
 34 35  1  0
 34 79  1  0
 35 36  1  0
 35 80  1  0
 35 81  1  0
 36 37  1  0
 36 82  1  0
 36 83  1  0
 37 38  1  0
 37 84  1  0
 37 85  1  0
 38 86  1  0
 38 87  1  0
M  END
>  <i_m_ct_stereo_status>  (76) 
1

>  <s_m_source_file>  (76) 
/var/tmp/pbs.5076255.sched01/tmpkni74bsw/0nq93mkxh.sdf

>  <i_m_source_file_index>  (76) 
33

>  <i_lp_mmshare_version>  (76) 
48012

>  <i_f3d_flags>  (76) 
0

>  <s_epik_input>  (76) 
W0NIMl0xW0NAQEhdKFtDSDJdMilbQ0gyXVtDQEBIXShbQ0gyXTMpW0NIMl1bQ0BIXTFbQ0BIXShbQ0BdMjNbT0hdKU40Qyg9TylbQ0BASF0oW0NIM10pW0NASF0oW0NIMl1bQ0gyXTUpW0NASF00W0NASF0oW0NIMl1bQ0gyXTYpW0NAQF0oW0NIM10pKFtDSF01W0NAQF02N1tPSF0pW0NAQEhdKFtPSF0pW0NAQEhdKFtPSF0pW0NASF03W0NIXThbQ0gyXVtDSDJdW0NIMl1bQ0gyXTg=

>  <s_epik_cmdline>  (76) 
J2VwaWtfcHl0aG9uJywgJy1waHQnLCAnMi4wJywgJy1waCcsICc3LjAnLCAnLXRuJywgJzgnLCAnLW1hJywgJzIwMCcsICctaW1hZScsICc8aW5maWxlLm1hZT4nLCAnLW9tYWUnLCAnPG91dGZpbGUubWFlPic=

>  <r_lp_tautomer_probability>  (76) 
1

>  <r_epik_Ionization_Penalty>  (76) 
4.38789e-06

>  <r_epik_Ionization_Penalty_Charging>  (76) 
0

>  <r_epik_Ionization_Penalty_Neutral>  (76) 
4.38789e-06

>  <r_epik_State_Penalty>  (76) 
-0

>  <r_epik_Charging_Adjusted_Penalty>  (76) 
0

>  <i_epik_Tot_Q>  (76) 
0

>  <i_epik_Tot_abs_Q>  (76) 
0

>  <s_lp_Force_Field>  (76) 
OPLS3e

>  <r_lp_Energy>  (76) 
69.8447

>  <b_lp_Chiralities_Consistent>  (76) 
1

>  <s_lp_Variant>  (76) 
22:0-1

>  <s_i_glide_gridfile>  (76) 
pfpi4k_grid

>  <i_i_glide_lignum>  (76) 
33

>  <i_i_glide_rotatable_bonds>  (76) 
6

>  <r_i_docking_score>  (76) 
-2.73297

>  <r_i_glide_ligand_efficiency>  (76) 
-0.0719202

>  <r_i_glide_ligand_efficiency_sa>  (76) 
-0.241794

>  <r_i_glide_ligand_efficiency_ln>  (76) 
-0.589309

>  <r_i_glide_gscore>  (76) 
-2.73297

>  <r_i_glide_lipo>  (76) 
-0.358764

>  <r_i_glide_hbond>  (76) 
0

>  <r_i_glide_metal>  (76) 
-0

>  <r_i_glide_rewards>  (76) 
-0.00405086

>  <r_i_glide_evdw>  (76) 
-32.741

>  <r_i_glide_ecoul>  (76) 
-5.87344

>  <r_i_glide_erotb>  (76) 
0.147912

>  <r_i_glide_esite>  (76) 
0

>  <r_i_glide_emodel>  (76) 
-42.2434

>  <r_i_glide_energy>  (76) 
-38.6145

>  <r_i_glide_einternal>  (76) 
1.35586

>  <r_i_glide_intrahb_reward>  (76) 
-0

>  <i_i_glide_confnum>  (76) 
1

>  <i_i_glide_posenum>  (76) 
24

>  <r_i_glide_eff_state_penalty>  (76) 
0

>  <ligand_id>  (76) 
22

>  <original_smiles>  (76) 
CC1C(=O)N(C2C3CC4CC(C3)CC2(O)C4)C2C1CCC1C3(O)CCC2C1(C)C(O)C(O)C3C1CCCC1

>  <smiles>  (76) 
[H]OC1([H])C([H])(O[H])C2(C([H])([H])[H])C3([H])C([H])([H])C([H])([H])C(O[H])(C1([H])C1([H])C([H])([H])C([H])([H])C([H])([H])C1([H])[H])C2([H])C([H])([H])C([H])([H])C1([H])C([H])(C([H])([H])[H])C(=O)N(C2([H])C4([H])C([H])([H])C5([H])C([H])([H])C([H])(C4([H])[H])C([H])([H])C2(O[H])C5([H])[H])C13[H]

$$$$
22:0:2
     RDKit          3D

 87 94  0  0  1  0  0  0  0  0999 V2000
    6.5473   -4.5053    7.0981 C   0  0  0  0  0  0  0  0  0  0  0  0
    5.8599   -3.8134    5.9107 C   0  0  2  0  0  0  0  0  0  0  0  0
    4.8832   -2.7277    6.3260 C   0  0  0  0  0  0  0  0  0  0  0  0
    5.1064   -1.9924    7.3078 O   0  0  0  0  0  0  0  0  0  0  0  0
    3.8643   -2.6134    5.4657 N   0  0  0  0  0  0  0  0  0  0  0  0
    3.2023   -1.2810    5.2540 C   0  0  2  0  0  0  0  0  0  0  0  0
    1.6994   -1.2747    4.8870 C   0  0  2  0  0  0  0  0  0  0  0  0
    1.4894   -1.5316    3.3580 C   0  0  0  0  0  0  0  0  0  0  0  0
    2.2167   -0.4774    2.5375 C   0  0  1  0  0  0  0  0  0  0  0  0
    1.6378    0.9020    2.8488 C   0  0  0  0  0  0  0  0  0  0  0  0
    1.8604    1.1995    4.3507 C   0  0  1  0  0  0  0  0  0  0  0  0
    1.1371    0.1337    5.2163 C   0  0  0  0  0  0  0  0  0  0  0  0
    3.3737    1.1821    4.6645 C   0  0  0  0  0  0  0  0  0  0  0  0
    3.9503   -0.2331    4.3649 C   0  0  1  0  0  0  0  0  0  0  0  0
    5.3490   -0.1939    4.6242 O   0  0  0  0  0  0  0  0  0  0  0  0
    3.7325   -0.5249    2.8603 C   0  0  0  0  0  0  0  0  0  0  0  0
    3.8814   -3.7606    4.5169 C   0  0  1  0  0  0  0  0  0  0  0  0
    4.9501   -4.7137    5.0716 C   0  0  1  0  0  0  0  0  0  0  0  0
    5.6535   -5.5695    4.0146 C   0  0  0  0  0  0  0  0  0  0  0  0
    4.8477   -6.8051    3.5546 C   0  0  0  0  0  0  0  0  0  0  0  0
    3.2905   -6.7827    3.3709 C   0  0  1  0  0  0  0  0  0  0  0  0
    2.4418   -7.4978    4.4895 C   0  0  1  0  0  0  0  0  0  0  0  0
    3.1049   -8.5790    5.0987 O   0  0  0  0  0  0  0  0  0  0  0  0
    2.2224   -6.6528    5.7792 C   0  0  0  0  0  0  0  0  0  0  0  0
    1.9690   -5.1526    5.5697 C   0  0  0  0  0  0  0  0  0  0  0  0
    2.5330   -4.5293    4.2702 C   0  0  2  0  0  0  0  0  0  0  0  0
    2.5664   -5.4718    2.9979 C   0  0  1  0  0  0  0  0  0  0  0  0
    3.2640   -4.8325    1.7519 C   0  0  0  0  0  0  0  0  0  0  0  0
    1.0915   -5.8052    2.5439 C   0  0  1  0  0  0  0  0  0  0  0  0
    1.0022   -6.2479    1.1895 O   0  0  0  0  0  0  0  0  0  0  0  0
    0.2776   -6.7826    3.4393 C   0  0  1  0  0  0  0  0  0  0  0  0
   -0.9816   -7.0984    2.8721 O   0  0  0  0  0  0  0  0  0  0  0  0
    1.1035   -8.0227    3.8859 C   0  0  1  0  0  0  0  0  0  0  0  0
    1.2071   -9.1171    2.7477 C   0  0  0  0  0  0  0  0  0  0  0  0
    0.2149  -10.2578    3.0273 C   0  0  0  0  0  0  0  0  0  0  0  0
    1.0007  -11.2457    3.8930 C   0  0  0  0  0  0  0  0  0  0  0  0
    2.4754  -11.1075    3.4777 C   0  0  0  0  0  0  0  0  0  0  0  0
    2.5614   -9.8691    2.5676 C   0  0  0  0  0  0  0  0  0  0  0  0
    7.1545   -3.7901    7.6603 H   0  0  0  0  0  0  0  0  0  0  0  0
    7.2080   -5.2968    6.7494 H   0  0  0  0  0  0  0  0  0  0  0  0
    5.8190   -4.9393    7.7829 H   0  0  0  0  0  0  0  0  0  0  0  0
    6.6132   -3.3358    5.2958 H   0  0  0  0  0  0  0  0  0  0  0  0
    3.2091   -0.8357    6.2602 H   0  0  0  0  0  0  0  0  0  0  0  0
    1.1812   -2.0136    5.4960 H   0  0  0  0  0  0  0  0  0  0  0  0
    1.9187   -2.4259    2.9564 H   0  0  0  0  0  0  0  0  0  0  0  0
    0.4143   -1.5404    3.1482 H   0  0  0  0  0  0  0  0  0  0  0  0
    2.0687   -0.7156    1.4841 H   0  0  0  0  0  0  0  0  0  0  0  0
    2.1065    1.6606    2.2142 H   0  0  0  0  0  0  0  0  0  0  0  0
    0.5671    0.9031    2.6156 H   0  0  0  0  0  0  0  0  0  0  0  0
    1.4558    2.1896    4.5690 H   0  0  0  0  0  0  0  0  0  0  0  0
    0.0635    0.1633    5.0183 H   0  0  0  0  0  0  0  0  0  0  0  0
    1.2484    0.3776    6.2787 H   0  0  0  0  0  0  0  0  0  0  0  0
    3.8804    1.9402    4.0720 H   0  0  0  0  0  0  0  0  0  0  0  0
    3.5395    1.4479    5.7085 H   0  0  0  0  0  0  0  0  0  0  0  0
    5.7348    0.4705    4.0995 H   0  0  0  0  0  0  0  0  0  0  0  0
    4.1322   -1.5026    2.6012 H   0  0  0  0  0  0  0  0  0  0  0  0
    4.2853    0.1804    2.2313 H   0  0  0  0  0  0  0  0  0  0  0  0
    4.2621   -3.3344    3.6058 H   0  0  0  0  0  0  0  0  0  0  0  0
    4.5263   -5.3920    5.8007 H   0  0  0  0  0  0  0  0  0  0  0  0
    5.9615   -4.9590    3.1685 H   0  0  0  0  0  0  0  0  0  0  0  0
    6.5895   -5.9389    4.4332 H   0  0  0  0  0  0  0  0  0  0  0  0
    5.2741   -7.0933    2.5951 H   0  0  0  0  0  0  0  0  0  0  0  0
    5.1401   -7.6383    4.1963 H   0  0  0  0  0  0  0  0  0  0  0  0
    3.1703   -7.3776    2.4634 H   0  0  0  0  0  0  0  0  0  0  0  0
    3.1115   -9.2977    4.4741 H   0  0  0  0  0  0  0  0  0  0  0  0
    1.3770   -7.0648    6.3443 H   0  0  0  0  0  0  0  0  0  0  0  0
    3.0667   -6.7656    6.4681 H   0  0  0  0  0  0  0  0  0  0  0  0
    0.8976   -4.9581    5.6191 H   0  0  0  0  0  0  0  0  0  0  0  0
    2.3562   -4.6180    6.4364 H   0  0  0  0  0  0  0  0  0  0  0  0
    1.7418   -3.8401    4.0874 H   0  0  0  0  0  0  0  0  0  0  0  0
    2.7121   -3.9660    1.3905 H   0  0  0  0  0  0  0  0  0  0  0  0
    3.3339   -5.5298    0.9139 H   0  0  0  0  0  0  0  0  0  0  0  0
    4.2911   -4.5286    1.8976 H   0  0  0  0  0  0  0  0  0  0  0  0
    0.5672   -4.8585    2.5215 H   0  0  0  0  0  0  0  0  0  0  0  0
    1.3847   -7.1112    1.1231 H   0  0  0  0  0  0  0  0  0  0  0  0
   -0.0238   -6.2550    4.3386 H   0  0  0  0  0  0  0  0  0  0  0  0
   -1.3509   -7.8184    3.3592 H   0  0  0  0  0  0  0  0  0  0  0  0
    0.5460   -8.4610    4.7192 H   0  0  0  0  0  0  0  0  0  0  0  0
    0.9303   -8.6794    1.7913 H   0  0  0  0  0  0  0  0  0  0  0  0
   -0.7230   -9.9448    3.4906 H   0  0  0  0  0  0  0  0  0  0  0  0
   -0.0471  -10.7384    2.0858 H   0  0  0  0  0  0  0  0  0  0  0  0
    0.8752  -10.9658    4.9454 H   0  0  0  0  0  0  0  0  0  0  0  0
    0.6556  -12.2743    3.7854 H   0  0  0  0  0  0  0  0  0  0  0  0
    3.0834  -11.0003    4.3798 H   0  0  0  0  0  0  0  0  0  0  0  0
    2.8584  -11.9842    2.9490 H   0  0  0  0  0  0  0  0  0  0  0  0
    2.6398  -10.1858    1.5215 H   0  0  0  0  0  0  0  0  0  0  0  0
    3.4750   -9.3018    2.7632 H   0  0  0  0  0  0  0  0  0  0  0  0
  1  2  1  0
  1 39  1  0
  1 40  1  0
  1 41  1  0
  2 18  1  0
  2  3  1  0
  2 42  1  6
  3  4  2  0
  3  5  1  0
  5  6  1  0
  5 17  1  0
  6 14  1  0
  6  7  1  0
  6 43  1  1
  7 12  1  0
  7  8  1  0
  7 44  1  1
  8  9  1  0
  8 45  1  0
  8 46  1  0
  9 16  1  0
  9 10  1  0
  9 47  1  6
 10 11  1  0
 10 48  1  0
 10 49  1  0
 11 12  1  0
 11 13  1  0
 11 50  1  1
 12 51  1  0
 12 52  1  0
 13 14  1  0
 13 53  1  0
 13 54  1  0
 14 15  1  6
 14 16  1  0
 15 55  1  0
 16 56  1  0
 16 57  1  0
 17 26  1  0
 17 18  1  0
 17 58  1  6
 18 19  1  0
 18 59  1  1
 19 20  1  0
 19 60  1  0
 19 61  1  0
 20 21  1  0
 20 62  1  0
 20 63  1  0
 21 27  1  0
 21 22  1  0
 21 64  1  6
 22 33  1  0
 22 23  1  1
 22 24  1  0
 23 65  1  0
 24 25  1  0
 24 66  1  0
 24 67  1  0
 25 26  1  0
 25 68  1  0
 25 69  1  0
 26 27  1  0
 26 70  1  6
 27 28  1  6
 27 29  1  0
 28 71  1  0
 28 72  1  0
 28 73  1  0
 29 30  1  0
 29 31  1  0
 29 74  1  6
 30 75  1  0
 31 32  1  0
 31 33  1  0
 31 76  1  1
 32 77  1  0
 33 34  1  0
 33 78  1  1
 34 38  1  0
 34 35  1  0
 34 79  1  0
 35 36  1  0
 35 80  1  0
 35 81  1  0
 36 37  1  0
 36 82  1  0
 36 83  1  0
 37 38  1  0
 37 84  1  0
 37 85  1  0
 38 86  1  0
 38 87  1  0
M  END
>  <i_m_ct_stereo_status>  (77) 
1

>  <s_m_source_file>  (77) 
/var/tmp/pbs.5076255.sched01/tmpkni74bsw/0nq93mkxh.sdf

>  <i_m_source_file_index>  (77) 
33

>  <i_lp_mmshare_version>  (77) 
48012

>  <i_f3d_flags>  (77) 
0

>  <s_epik_input>  (77) 
W0NIMl0xW0NAQEhdKFtDSDJdMilbQ0gyXVtDQEBIXShbQ0gyXTMpW0NIMl1bQ0BIXTFbQ0BIXShbQ0BdMjNbT0hdKU40Qyg9TylbQ0BASF0oW0NIM10pW0NASF0oW0NIMl1bQ0gyXTUpW0NASF00W0NASF0oW0NIMl1bQ0gyXTYpW0NAQF0oW0NIM10pKFtDSF01W0NAQF02N1tPSF0pW0NAQEhdKFtPSF0pW0NAQEhdKFtPSF0pW0NASF03W0NIXThbQ0gyXVtDSDJdW0NIMl1bQ0gyXTg=

>  <s_epik_cmdline>  (77) 
J2VwaWtfcHl0aG9uJywgJy1waHQnLCAnMi4wJywgJy1waCcsICc3LjAnLCAnLXRuJywgJzgnLCAnLW1hJywgJzIwMCcsICctaW1hZScsICc8aW5maWxlLm1hZT4nLCAnLW9tYWUnLCAnPG91dGZpbGUubWFlPic=

>  <r_lp_tautomer_probability>  (77) 
1

>  <r_epik_Ionization_Penalty>  (77) 
4.38789e-06

>  <r_epik_Ionization_Penalty_Charging>  (77) 
0

>  <r_epik_Ionization_Penalty_Neutral>  (77) 
4.38789e-06

>  <r_epik_State_Penalty>  (77) 
-0

>  <r_epik_Charging_Adjusted_Penalty>  (77) 
0

>  <i_epik_Tot_Q>  (77) 
0

>  <i_epik_Tot_abs_Q>  (77) 
0

>  <s_lp_Force_Field>  (77) 
OPLS3e

>  <r_lp_Energy>  (77) 
69.8447

>  <b_lp_Chiralities_Consistent>  (77) 
1

>  <s_lp_Variant>  (77) 
22:0-1

>  <s_i_glide_gridfile>  (77) 
pfpi4k_grid

>  <i_i_glide_lignum>  (77) 
33

>  <i_i_glide_rotatable_bonds>  (77) 
6

>  <r_i_docking_score>  (77) 
-2.73017

>  <r_i_glide_ligand_efficiency>  (77) 
-0.0718466

>  <r_i_glide_ligand_efficiency_sa>  (77) 
-0.241546

>  <r_i_glide_ligand_efficiency_ln>  (77) 
-0.588705

>  <r_i_glide_gscore>  (77) 
-2.73017

>  <r_i_glide_lipo>  (77) 
-0.244657

>  <r_i_glide_hbond>  (77) 
0

>  <r_i_glide_metal>  (77) 
-0

>  <r_i_glide_rewards>  (77) 
-0.00143032

>  <r_i_glide_evdw>  (77) 
-31.1045

>  <r_i_glide_ecoul>  (77) 
-7.17847

>  <r_i_glide_erotb>  (77) 
0.147912

>  <r_i_glide_esite>  (77) 
0

>  <r_i_glide_emodel>  (77) 
-42.3935

>  <r_i_glide_energy>  (77) 
-38.283

>  <r_i_glide_einternal>  (77) 
0.827743

>  <r_i_glide_intrahb_reward>  (77) 
-0

>  <i_i_glide_confnum>  (77) 
1

>  <i_i_glide_posenum>  (77) 
7

>  <r_i_glide_eff_state_penalty>  (77) 
0

>  <ligand_id>  (77) 
22

>  <original_smiles>  (77) 
CC1C(=O)N(C2C3CC4CC(C3)CC2(O)C4)C2C1CCC1C3(O)CCC2C1(C)C(O)C(O)C3C1CCCC1

>  <smiles>  (77) 
[H]OC1([H])C([H])(O[H])C2(C([H])([H])[H])C3([H])C([H])([H])C([H])([H])C(O[H])(C1([H])C1([H])C([H])([H])C([H])([H])C([H])([H])C1([H])[H])C2([H])C([H])([H])C([H])([H])C1([H])C([H])(C([H])([H])[H])C(=O)N(C2([H])C4([H])C([H])([H])C5([H])C([H])([H])C([H])(C4([H])[H])C([H])([H])C2(O[H])C5([H])[H])C13[H]

$$$$
22:1:0
     RDKit          3D

 87 94  0  0  1  0  0  0  0  0999 V2000
    7.1449   -7.6831    2.1571 C   0  0  0  0  0  0  0  0  0  0  0  0
    5.8041   -7.1137    1.6529 C   0  0  2  0  0  0  0  0  0  0  0  0
    5.8384   -5.5863    1.4786 C   0  0  0  0  0  0  0  0  0  0  0  0
    6.8744   -5.0084    1.1980 O   0  0  0  0  0  0  0  0  0  0  0  0
    4.6055   -5.0660    1.6336 N   0  0  0  0  0  0  0  0  0  0  0  0
    4.1209   -3.8700    0.8805 C   0  0  2  0  0  0  0  0  0  0  0  0
    4.2829   -3.9386   -0.6789 C   0  0  2  0  0  0  0  0  0  0  0  0
    5.7351   -3.6965   -1.1665 C   0  0  0  0  0  0  0  0  0  0  0  0
    6.2585   -2.3466   -0.6258 C   0  0  1  0  0  0  0  0  0  0  0  0
    5.4111   -1.2554   -1.2837 C   0  0  0  0  0  0  0  0  0  0  0  0
    3.9379   -1.4773   -0.8595 C   0  0  1  0  0  0  0  0  0  0  0  0
    3.4185   -2.8402   -1.3399 C   0  0  0  0  0  0  0  0  0  0  0  0
    3.8022   -1.3580    0.6808 C   0  0  0  0  0  0  0  0  0  0  0  0
    4.6664   -2.4812    1.3370 C   0  0  1  0  0  0  0  0  0  0  0  0
    4.5148   -2.3442    2.7256 O   0  0  0  0  0  0  0  0  0  0  0  0
    6.1408   -2.2075    0.9187 C   0  0  0  0  0  0  0  0  0  0  0  0
    3.7062   -6.0570    2.2741 C   0  0  1  0  0  0  0  0  0  0  0  0
    4.6816   -7.2264    2.6728 C   0  0  1  0  0  0  0  0  0  0  0  0
    4.0428   -8.6436    2.8665 C   0  0  0  0  0  0  0  0  0  0  0  0
    3.1383   -8.8699    4.1326 C   0  0  0  0  0  0  0  0  0  0  0  0
    2.5525   -7.5761    4.7582 C   0  0  2  0  0  0  0  0  0  0  0  0
    2.8304   -6.9602    6.1645 C   0  0  1  0  0  0  0  0  0  0  0  0
    3.7216   -7.7272    6.9681 O   0  0  0  0  0  0  0  0  0  0  0  0
    3.6482   -5.6146    5.9962 C   0  0  0  0  0  0  0  0  0  0  0  0
    3.4362   -4.8070    4.6543 C   0  0  0  0  0  0  0  0  0  0  0  0
    2.7254   -5.5164    3.4173 C   0  0  2  0  0  0  0  0  0  0  0  0
    1.6874   -6.6162    3.8781 C   0  0  1  0  0  0  0  0  0  0  0  0
    1.0388   -7.3761    2.6729 C   0  0  0  0  0  0  0  0  0  0  0  0
    0.4672   -5.9873    4.6893 C   0  0  1  0  0  0  0  0  0  0  0  0
   -0.7205   -6.7708    4.6127 O   0  0  0  0  0  0  0  0  0  0  0  0
    0.7115   -5.6581    6.1914 C   0  0  1  0  0  0  0  0  0  0  0  0
   -0.4629   -5.2345    6.8702 O   0  0  0  0  0  0  0  0  0  0  0  0
    1.5070   -6.7710    6.9460 C   0  0  1  0  0  0  0  0  0  0  0  0
    0.6695   -8.0968    7.2206 C   0  0  0  0  0  0  0  0  0  0  0  0
    0.0339   -8.0957    8.6286 C   0  0  0  0  0  0  0  0  0  0  0  0
    0.9895   -8.8736    9.5519 C   0  0  0  0  0  0  0  0  0  0  0  0
    2.0350   -9.5340    8.6367 C   0  0  0  0  0  0  0  0  0  0  0  0
    1.4315   -9.4411    7.2288 C   0  0  0  0  0  0  0  0  0  0  0  0
    7.9037   -7.4757    1.4089 H   0  0  0  0  0  0  0  0  0  0  0  0
    7.1573   -8.7652    2.3517 H   0  0  0  0  0  0  0  0  0  0  0  0
    7.4731   -7.1572    3.0576 H   0  0  0  0  0  0  0  0  0  0  0  0
    5.4564   -7.6108    0.7346 H   0  0  0  0  0  0  0  0  0  0  0  0
    3.0516   -3.8660    1.0714 H   0  0  0  0  0  0  0  0  0  0  0  0
    3.9210   -4.8918   -1.0495 H   0  0  0  0  0  0  0  0  0  0  0  0
    6.3605   -4.5049   -0.8271 H   0  0  0  0  0  0  0  0  0  0  0  0
    5.7278   -3.6609   -2.2749 H   0  0  0  0  0  0  0  0  0  0  0  0
    7.2914   -2.2317   -0.9335 H   0  0  0  0  0  0  0  0  0  0  0  0
    5.7447   -0.2603   -0.9668 H   0  0  0  0  0  0  0  0  0  0  0  0
    5.4799   -1.2758   -2.3752 H   0  0  0  0  0  0  0  0  0  0  0  0
    3.2869   -0.7684   -1.3673 H   0  0  0  0  0  0  0  0  0  0  0  0
    3.4926   -2.8764   -2.4308 H   0  0  0  0  0  0  0  0  0  0  0  0
    2.3504   -2.9312   -1.1134 H   0  0  0  0  0  0  0  0  0  0  0  0
    4.1277   -0.3567    0.9957 H   0  0  0  0  0  0  0  0  0  0  0  0
    2.7422   -1.4279    0.9548 H   0  0  0  0  0  0  0  0  0  0  0  0
    4.7940   -1.4737    2.9689 H   0  0  0  0  0  0  0  0  0  0  0  0
    6.8334   -2.8758    1.4155 H   0  0  0  0  0  0  0  0  0  0  0  0
    6.4102   -1.1736    1.2076 H   0  0  0  0  0  0  0  0  0  0  0  0
    3.1049   -6.3347    1.4109 H   0  0  0  0  0  0  0  0  0  0  0  0
    5.1780   -6.9245    3.6006 H   0  0  0  0  0  0  0  0  0  0  0  0
    3.5264   -8.9430    1.9563 H   0  0  0  0  0  0  0  0  0  0  0  0
    4.8690   -9.3366    2.9493 H   0  0  0  0  0  0  0  0  0  0  0  0
    2.3421   -9.5636    3.8804 H   0  0  0  0  0  0  0  0  0  0  0  0
    3.7583   -9.3924    4.8651 H   0  0  0  0  0  0  0  0  0  0  0  0
    3.5473   -7.2818    4.6408 H   0  0  0  0  0  0  0  0  0  0  0  0
    3.3252   -8.5661    7.1619 H   0  0  0  0  0  0  0  0  0  0  0  0
    3.4746   -4.9662    6.8571 H   0  0  0  0  0  0  0  0  0  0  0  0
    4.7243   -5.8087    6.0733 H   0  0  0  0  0  0  0  0  0  0  0  0
    2.8963   -3.8805    4.8894 H   0  0  0  0  0  0  0  0  0  0  0  0
    4.4422   -4.5106    4.3431 H   0  0  0  0  0  0  0  0  0  0  0  0
    2.1476   -4.7227    2.9242 H   0  0  0  0  0  0  0  0  0  0  0  0
    0.4109   -6.6979    2.0955 H   0  0  0  0  0  0  0  0  0  0  0  0
    0.4111   -8.2082    3.0027 H   0  0  0  0  0  0  0  0  0  0  0  0
    1.7330   -7.8349    1.9794 H   0  0  0  0  0  0  0  0  0  0  0  0
    0.1762   -5.0634    4.1807 H   0  0  0  0  0  0  0  0  0  0  0  0
   -0.5379   -7.6483    4.9229 H   0  0  0  0  0  0  0  0  0  0  0  0
    1.2890   -4.7348    6.1921 H   0  0  0  0  0  0  0  0  0  0  0  0
   -1.0977   -5.9318    6.8537 H   0  0  0  0  0  0  0  0  0  0  0  0
    1.7890   -6.3231    7.9034 H   0  0  0  0  0  0  0  0  0  0  0  0
   -0.1453   -8.1914    6.5024 H   0  0  0  0  0  0  0  0  0  0  0  0
   -0.2021   -7.0889    9.0037 H   0  0  0  0  0  0  0  0  0  0  0  0
   -0.9124   -8.6453    8.5629 H   0  0  0  0  0  0  0  0  0  0  0  0
    1.4839   -8.1783   10.2332 H   0  0  0  0  0  0  0  0  0  0  0  0
    0.4471   -9.6179   10.1466 H   0  0  0  0  0  0  0  0  0  0  0  0
    2.9700   -8.9540    8.6868 H   0  0  0  0  0  0  0  0  0  0  0  0
    2.1872  -10.5920    8.9060 H   0  0  0  0  0  0  0  0  0  0  0  0
    0.6629  -10.2149    7.0838 H   0  0  0  0  0  0  0  0  0  0  0  0
    2.1891   -9.5403    6.4506 H   0  0  0  0  0  0  0  0  0  0  0  0
  1  2  1  0
  1 39  1  0
  1 40  1  0
  1 41  1  0
  2 18  1  0
  2  3  1  0
  2 42  1  6
  3  4  2  0
  3  5  1  0
  5  6  1  0
  5 17  1  0
  6 14  1  0
  6  7  1  0
  6 43  1  6
  7 12  1  0
  7  8  1  0
  7 44  1  6
  8  9  1  0
  8 45  1  0
  8 46  1  0
  9 16  1  0
  9 10  1  0
  9 47  1  1
 10 11  1  0
 10 48  1  0
 10 49  1  0
 11 12  1  0
 11 13  1  0
 11 50  1  6
 12 51  1  0
 12 52  1  0
 13 14  1  0
 13 53  1  0
 13 54  1  0
 14 15  1  1
 14 16  1  0
 15 55  1  0
 16 56  1  0
 16 57  1  0
 17 26  1  0
 17 18  1  0
 17 58  1  6
 18 19  1  0
 18 59  1  1
 19 20  1  0
 19 60  1  0
 19 61  1  0
 20 21  1  0
 20 62  1  0
 20 63  1  0
 21 27  1  0
 21 22  1  0
 21 64  1  1
 22 33  1  0
 22 23  1  1
 22 24  1  0
 23 65  1  0
 24 25  1  0
 24 66  1  0
 24 67  1  0
 25 26  1  0
 25 68  1  0
 25 69  1  0
 26 27  1  0
 26 70  1  6
 27 28  1  6
 27 29  1  0
 28 71  1  0
 28 72  1  0
 28 73  1  0
 29 30  1  0
 29 31  1  0
 29 74  1  6
 30 75  1  0
 31 32  1  0
 31 33  1  0
 31 76  1  6
 32 77  1  0
 33 34  1  0
 33 78  1  1
 34 38  1  0
 34 35  1  0
 34 79  1  0
 35 36  1  0
 35 80  1  0
 35 81  1  0
 36 37  1  0
 36 82  1  0
 36 83  1  0
 37 38  1  0
 37 84  1  0
 37 85  1  0
 38 86  1  0
 38 87  1  0
M  END
>  <i_m_ct_stereo_status>  (78) 
1

>  <s_m_source_file>  (78) 
/var/tmp/pbs.5076255.sched01/tmpkni74bsw/0nq93mkxh.sdf

>  <i_m_source_file_index>  (78) 
34

>  <i_lp_mmshare_version>  (78) 
48012

>  <i_f3d_flags>  (78) 
0

>  <s_epik_input>  (78) 
W0NIMl0xW0NAQEhdKFtDSDJdMilbQ0gyXVtDQEBIXShbQ0gyXTMpW0NIMl1bQ0BIXTFbQ0BIXShbQ0BdMjNbT0hdKU40Qyg9TylbQ0BASF0oW0NIM10pW0NASF0oW0NIMl1bQ0gyXTUpW0NASF00W0NASF0oW0NIMl1bQ0gyXTYpW0NAQF0oW0NIM10pKFtDSF01W0NAQF02N1tPSF0pW0NAQEhdKFtPSF0pW0NAQEhdKFtPSF0pW0NASF03W0NIXThbQ0gyXVtDSDJdW0NIMl1bQ0gyXTg=

>  <s_epik_cmdline>  (78) 
J2VwaWtfcHl0aG9uJywgJy1waHQnLCAnMi4wJywgJy1waCcsICc3LjAnLCAnLXRuJywgJzgnLCAnLW1hJywgJzIwMCcsICctaW1hZScsICc8aW5maWxlLm1hZT4nLCAnLW9tYWUnLCAnPG91dGZpbGUubWFlPic=

>  <r_lp_tautomer_probability>  (78) 
1

>  <r_epik_Ionization_Penalty>  (78) 
4.38789e-06

>  <r_epik_Ionization_Penalty_Charging>  (78) 
0

>  <r_epik_Ionization_Penalty_Neutral>  (78) 
4.38789e-06

>  <r_epik_State_Penalty>  (78) 
-0

>  <r_epik_Charging_Adjusted_Penalty>  (78) 
0

>  <i_epik_Tot_Q>  (78) 
0

>  <i_epik_Tot_abs_Q>  (78) 
0

>  <s_lp_Force_Field>  (78) 
OPLS3e

>  <r_lp_Energy>  (78) 
114.782

>  <b_lp_Chiralities_Consistent>  (78) 
1

>  <s_lp_Variant>  (78) 
22:0-2

>  <s_i_glide_gridfile>  (78) 
pfpi4k_grid

>  <i_i_glide_lignum>  (78) 
34

>  <i_i_glide_rotatable_bonds>  (78) 
6

>  <r_i_docking_score>  (78) 
-2.28625

>  <r_i_glide_ligand_efficiency>  (78) 
-0.0601645

>  <r_i_glide_ligand_efficiency_sa>  (78) 
-0.202271

>  <r_i_glide_ligand_efficiency_ln>  (78) 
-0.492983

>  <r_i_glide_gscore>  (78) 
-2.28625

>  <r_i_glide_lipo>  (78) 
-0.352112

>  <r_i_glide_hbond>  (78) 
0

>  <r_i_glide_metal>  (78) 
-0

>  <r_i_glide_rewards>  (78) 
-0.131228

>  <r_i_glide_evdw>  (78) 
-33.2339

>  <r_i_glide_ecoul>  (78) 
-1.92751

>  <r_i_glide_erotb>  (78) 
0.147912

>  <r_i_glide_esite>  (78) 
0

>  <r_i_glide_emodel>  (78) 
-38.1293

>  <r_i_glide_energy>  (78) 
-35.1614

>  <r_i_glide_einternal>  (78) 
1.4583

>  <r_i_glide_intrahb_reward>  (78) 
-0

>  <i_i_glide_confnum>  (78) 
1

>  <i_i_glide_posenum>  (78) 
3

>  <r_i_glide_eff_state_penalty>  (78) 
0

>  <ligand_id>  (78) 
22

>  <original_smiles>  (78) 
CC1C(=O)N(C2C3CC4CC(C3)CC2(O)C4)C2C1CCC1C3(O)CCC2C1(C)C(O)C(O)C3C1CCCC1

>  <smiles>  (78) 
[H]OC1([H])C([H])(O[H])C2(C([H])([H])[H])C3([H])C([H])([H])C([H])([H])C(O[H])(C1([H])C1([H])C([H])([H])C([H])([H])C([H])([H])C1([H])[H])C2([H])C([H])([H])C([H])([H])C1([H])C([H])(C([H])([H])[H])C(=O)N(C2([H])C4([H])C([H])([H])C5([H])C([H])([H])C([H])(C4([H])[H])C([H])([H])C2(O[H])C5([H])[H])C13[H]

$$$$
22:1:1
     RDKit          3D

 87 94  0  0  1  0  0  0  0  0999 V2000
    5.5393   -2.6292    6.1087 C   0  0  0  0  0  0  0  0  0  0  0  0
    4.5999   -2.4856    4.8892 C   0  0  2  0  0  0  0  0  0  0  0  0
    3.3595   -1.6922    5.2115 C   0  0  0  0  0  0  0  0  0  0  0  0
    3.4102   -0.7983    6.0463 O   0  0  0  0  0  0  0  0  0  0  0  0
    2.3038   -2.0474    4.4383 N   0  0  0  0  0  0  0  0  0  0  0  0
    1.2438   -1.1189    3.9864 C   0  0  2  0  0  0  0  0  0  0  0  0
    1.7422    0.1740    3.2210 C   0  0  2  0  0  0  0  0  0  0  0  0
    2.3766    1.2459    4.1627 C   0  0  0  0  0  0  0  0  0  0  0  0
    1.3378    1.6398    5.2483 C   0  0  1  0  0  0  0  0  0  0  0  0
    0.1496    2.3231    4.5366 C   0  0  0  0  0  0  0  0  0  0  0  0
   -0.5026    1.3074    3.5657 C   0  0  1  0  0  0  0  0  0  0  0  0
    0.5306    0.8586    2.5093 C   0  0  0  0  0  0  0  0  0  0  0  0
   -0.9857    0.0638    4.3554 C   0  0  0  0  0  0  0  0  0  0  0  0
    0.2101   -0.6148    5.0746 C   0  0  1  0  0  0  0  0  0  0  0  0
   -0.2921   -1.7235    5.7837 O   0  0  0  0  0  0  0  0  0  0  0  0
    0.8041    0.4264    6.0717 C   0  0  0  0  0  0  0  0  0  0  0  0
    2.6308   -3.3435    3.7753 C   0  0  1  0  0  0  0  0  0  0  0  0
    3.9626   -3.7972    4.4612 C   0  0  1  0  0  0  0  0  0  0  0  0
    4.8703   -4.7936    3.6634 C   0  0  0  0  0  0  0  0  0  0  0  0
    4.3712   -6.2766    3.5082 C   0  0  0  0  0  0  0  0  0  0  0  0
    2.8384   -6.4708    3.7067 C   0  0  2  0  0  0  0  0  0  0  0  0
    2.0921   -7.2742    4.8055 C   0  0  1  0  0  0  0  0  0  0  0  0
    2.9694   -7.9518    5.6728 O   0  0  0  0  0  0  0  0  0  0  0  0
    1.2962   -6.2625    5.7365 C   0  0  0  0  0  0  0  0  0  0  0  0
    0.8493   -4.8898    5.0940 C   0  0  0  0  0  0  0  0  0  0  0  0
    1.4605   -4.4303    3.7009 C   0  0  2  0  0  0  0  0  0  0  0  0
    1.8656   -5.6653    2.7991 C   0  0  1  0  0  0  0  0  0  0  0  0
    2.5313   -5.2259    1.4488 C   0  0  0  0  0  0  0  0  0  0  0  0
    0.6060   -6.5297    2.3700 C   0  0  1  0  0  0  0  0  0  0  0  0
    0.7788   -7.1943    1.1301 O   0  0  0  0  0  0  0  0  0  0  0  0
    0.0312   -7.5316    3.4096 C   0  0  1  0  0  0  0  0  0  0  0  0
   -0.9855   -8.3702    2.8747 O   0  0  0  0  0  0  0  0  0  0  0  0
    1.1420   -8.3222    4.1570 C   0  0  1  0  0  0  0  0  0  0  0  0
    1.8628   -9.4011    3.2540 C   0  0  0  0  0  0  0  0  0  0  0  0
    1.2417  -10.8012    3.4944 C   0  0  0  0  0  0  0  0  0  0  0  0
    2.1404  -11.5266    4.5017 C   0  0  0  0  0  0  0  0  0  0  0  0
    3.3869  -10.6680    4.6869 C   0  0  0  0  0  0  0  0  0  0  0  0
    3.3582   -9.6829    3.5153 C   0  0  0  0  0  0  0  0  0  0  0  0
    5.8658   -1.6353    6.3979 H   0  0  0  0  0  0  0  0  0  0  0  0
    6.4317   -3.2350    5.9172 H   0  0  0  0  0  0  0  0  0  0  0  0
    5.0014   -3.0348    6.9731 H   0  0  0  0  0  0  0  0  0  0  0  0
    5.1216   -2.0510    4.0182 H   0  0  0  0  0  0  0  0  0  0  0  0
    0.6706   -1.6917    3.2433 H   0  0  0  0  0  0  0  0  0  0  0  0
    2.4669   -0.1095    2.4477 H   0  0  0  0  0  0  0  0  0  0  0  0
    3.3128    0.9124    4.6035 H   0  0  0  0  0  0  0  0  0  0  0  0
    2.6399    2.1385    3.5627 H   0  0  0  0  0  0  0  0  0  0  0  0
    1.7962    2.3571    5.9228 H   0  0  0  0  0  0  0  0  0  0  0  0
   -0.5871    2.6751    5.2697 H   0  0  0  0  0  0  0  0  0  0  0  0
    0.4803    3.2124    3.9824 H   0  0  0  0  0  0  0  0  0  0  0  0
   -1.3553    1.7851    3.0787 H   0  0  0  0  0  0  0  0  0  0  0  0
    0.8698    1.7313    1.9396 H   0  0  0  0  0  0  0  0  0  0  0  0
    0.0733    0.1906    1.7718 H   0  0  0  0  0  0  0  0  0  0  0  0
   -1.7467    0.3732    5.0863 H   0  0  0  0  0  0  0  0  0  0  0  0
   -1.4994   -0.6300    3.6829 H   0  0  0  0  0  0  0  0  0  0  0  0
    0.4646   -2.1884    6.1064 H   0  0  0  0  0  0  0  0  0  0  0  0
    1.5531    0.0220    6.7077 H   0  0  0  0  0  0  0  0  0  0  0  0
   -0.0128    0.7792    6.7345 H   0  0  0  0  0  0  0  0  0  0  0  0
    2.8115   -2.9740    2.7671 H   0  0  0  0  0  0  0  0  0  0  0  0
    3.6857   -4.2496    5.4201 H   0  0  0  0  0  0  0  0  0  0  0  0
    5.1292   -4.3525    2.7034 H   0  0  0  0  0  0  0  0  0  0  0  0
    5.8097   -4.8299    4.1968 H   0  0  0  0  0  0  0  0  0  0  0  0
    4.6910   -6.6480    2.5406 H   0  0  0  0  0  0  0  0  0  0  0  0
    4.9194   -6.8663    4.2409 H   0  0  0  0  0  0  0  0  0  0  0  0
    3.0550   -5.8877    4.5506 H   0  0  0  0  0  0  0  0  0  0  0  0
    2.4475   -8.5953    6.1419 H   0  0  0  0  0  0  0  0  0  0  0  0
    0.4444   -6.7595    6.1923 H   0  0  0  0  0  0  0  0  0  0  0  0
    1.9103   -5.9943    6.6042 H   0  0  0  0  0  0  0  0  0  0  0  0
   -0.2510   -4.8998    5.0137 H   0  0  0  0  0  0  0  0  0  0  0  0
    1.1011   -4.1330    5.8415 H   0  0  0  0  0  0  0  0  0  0  0  0
    0.6437   -3.9229    3.1871 H   0  0  0  0  0  0  0  0  0  0  0  0
    1.8194   -4.6947    0.8142 H   0  0  0  0  0  0  0  0  0  0  0  0
    2.9004   -6.0732    0.8612 H   0  0  0  0  0  0  0  0  0  0  0  0
    3.3919   -4.5796    1.5305 H   0  0  0  0  0  0  0  0  0  0  0  0
   -0.1895   -5.8466    2.1053 H   0  0  0  0  0  0  0  0  0  0  0  0
    1.1714   -8.0394    1.2923 H   0  0  0  0  0  0  0  0  0  0  0  0
   -0.5272   -6.9386    4.1315 H   0  0  0  0  0  0  0  0  0  0  0  0
   -1.2808   -8.9591    3.5584 H   0  0  0  0  0  0  0  0  0  0  0  0
    0.6358   -8.8526    4.9749 H   0  0  0  0  0  0  0  0  0  0  0  0
    1.7663   -9.1772    2.1812 H   0  0  0  0  0  0  0  0  0  0  0  0
    0.1577  -10.8035    3.7166 H   0  0  0  0  0  0  0  0  0  0  0  0
    1.3331  -11.4131    2.6127 H   0  0  0  0  0  0  0  0  0  0  0  0
    1.5779  -11.6244    5.4250 H   0  0  0  0  0  0  0  0  0  0  0  0
    2.4084  -12.5195    4.1320 H   0  0  0  0  0  0  0  0  0  0  0  0
    3.2818  -10.1383    5.6327 H   0  0  0  0  0  0  0  0  0  0  0  0
    4.3112  -11.2515    4.6719 H   0  0  0  0  0  0  0  0  0  0  0  0
    3.7842  -10.1279    2.6111 H   0  0  0  0  0  0  0  0  0  0  0  0
    3.9438   -8.8050    3.7602 H   0  0  0  0  0  0  0  0  0  0  0  0
  1  2  1  0
  1 39  1  0
  1 40  1  0
  1 41  1  0
  2 18  1  0
  2  3  1  0
  2 42  1  6
  3  4  2  0
  3  5  1  0
  5  6  1  0
  5 17  1  0
  6 14  1  0
  6  7  1  0
  6 43  1  6
  7 12  1  0
  7  8  1  0
  7 44  1  6
  8  9  1  0
  8 45  1  0
  8 46  1  0
  9 16  1  0
  9 10  1  0
  9 47  1  1
 10 11  1  0
 10 48  1  0
 10 49  1  0
 11 12  1  0
 11 13  1  0
 11 50  1  6
 12 51  1  0
 12 52  1  0
 13 14  1  0
 13 53  1  0
 13 54  1  0
 14 15  1  1
 14 16  1  0
 15 55  1  0
 16 56  1  0
 16 57  1  0
 17 26  1  0
 17 18  1  0
 17 58  1  6
 18 19  1  0
 18 59  1  1
 19 20  1  0
 19 60  1  0
 19 61  1  0
 20 21  1  0
 20 62  1  0
 20 63  1  0
 21 27  1  0
 21 22  1  0
 21 64  1  6
 22 33  1  0
 22 23  1  1
 22 24  1  0
 23 65  1  0
 24 25  1  0
 24 66  1  0
 24 67  1  0
 25 26  1  0
 25 68  1  0
 25 69  1  0
 26 27  1  0
 26 70  1  6
 27 28  1  6
 27 29  1  0
 28 71  1  0
 28 72  1  0
 28 73  1  0
 29 30  1  0
 29 31  1  0
 29 74  1  6
 30 75  1  0
 31 32  1  0
 31 33  1  0
 31 76  1  1
 32 77  1  0
 33 34  1  0
 33 78  1  1
 34 38  1  0
 34 35  1  0
 34 79  1  0
 35 36  1  0
 35 80  1  0
 35 81  1  0
 36 37  1  0
 36 82  1  0
 36 83  1  0
 37 38  1  0
 37 84  1  0
 37 85  1  0
 38 86  1  0
 38 87  1  0
M  END
>  <i_m_ct_stereo_status>  (79) 
1

>  <s_m_source_file>  (79) 
/var/tmp/pbs.5076255.sched01/tmpkni74bsw/0nq93mkxh.sdf

>  <i_m_source_file_index>  (79) 
34

>  <i_lp_mmshare_version>  (79) 
48012

>  <i_f3d_flags>  (79) 
0

>  <s_epik_input>  (79) 
W0NIMl0xW0NAQEhdKFtDSDJdMilbQ0gyXVtDQEBIXShbQ0gyXTMpW0NIMl1bQ0BIXTFbQ0BIXShbQ0BdMjNbT0hdKU40Qyg9TylbQ0BASF0oW0NIM10pW0NASF0oW0NIMl1bQ0gyXTUpW0NASF00W0NASF0oW0NIMl1bQ0gyXTYpW0NAQF0oW0NIM10pKFtDSF01W0NAQF02N1tPSF0pW0NAQEhdKFtPSF0pW0NAQEhdKFtPSF0pW0NASF03W0NIXThbQ0gyXVtDSDJdW0NIMl1bQ0gyXTg=

>  <s_epik_cmdline>  (79) 
J2VwaWtfcHl0aG9uJywgJy1waHQnLCAnMi4wJywgJy1waCcsICc3LjAnLCAnLXRuJywgJzgnLCAnLW1hJywgJzIwMCcsICctaW1hZScsICc8aW5maWxlLm1hZT4nLCAnLW9tYWUnLCAnPG91dGZpbGUubWFlPic=

>  <r_lp_tautomer_probability>  (79) 
1

>  <r_epik_Ionization_Penalty>  (79) 
4.38789e-06

>  <r_epik_Ionization_Penalty_Charging>  (79) 
0

>  <r_epik_Ionization_Penalty_Neutral>  (79) 
4.38789e-06

>  <r_epik_State_Penalty>  (79) 
-0

>  <r_epik_Charging_Adjusted_Penalty>  (79) 
0

>  <i_epik_Tot_Q>  (79) 
0

>  <i_epik_Tot_abs_Q>  (79) 
0

>  <s_lp_Force_Field>  (79) 
OPLS3e

>  <r_lp_Energy>  (79) 
114.782

>  <b_lp_Chiralities_Consistent>  (79) 
1

>  <s_lp_Variant>  (79) 
22:0-2

>  <s_i_glide_gridfile>  (79) 
pfpi4k_grid

>  <i_i_glide_lignum>  (79) 
34

>  <i_i_glide_rotatable_bonds>  (79) 
6

>  <r_i_docking_score>  (79) 
-2.22761

>  <r_i_glide_ligand_efficiency>  (79) 
-0.0586213

>  <r_i_glide_ligand_efficiency_sa>  (79) 
-0.197083

>  <r_i_glide_ligand_efficiency_ln>  (79) 
-0.480338

>  <r_i_glide_gscore>  (79) 
-2.22761

>  <r_i_glide_lipo>  (79) 
-0.20532

>  <r_i_glide_hbond>  (79) 
0

>  <r_i_glide_metal>  (79) 
-0

>  <r_i_glide_rewards>  (79) 
0

>  <r_i_glide_evdw>  (79) 
-33.3384

>  <r_i_glide_ecoul>  (79) 
-3.35521

>  <r_i_glide_erotb>  (79) 
0.147912

>  <r_i_glide_esite>  (79) 
0

>  <r_i_glide_emodel>  (79) 
-38.3302

>  <r_i_glide_energy>  (79) 
-36.6936

>  <r_i_glide_einternal>  (79) 
2.58776

>  <r_i_glide_intrahb_reward>  (79) 
-0

>  <i_i_glide_confnum>  (79) 
1

>  <i_i_glide_posenum>  (79) 
13

>  <r_i_glide_eff_state_penalty>  (79) 
0

>  <ligand_id>  (79) 
22

>  <original_smiles>  (79) 
CC1C(=O)N(C2C3CC4CC(C3)CC2(O)C4)C2C1CCC1C3(O)CCC2C1(C)C(O)C(O)C3C1CCCC1

>  <smiles>  (79) 
[H]OC1([H])C([H])(O[H])C2(C([H])([H])[H])C3([H])C([H])([H])C([H])([H])C(O[H])(C1([H])C1([H])C([H])([H])C([H])([H])C([H])([H])C1([H])[H])C2([H])C([H])([H])C([H])([H])C1([H])C([H])(C([H])([H])[H])C(=O)N(C2([H])C4([H])C([H])([H])C5([H])C([H])([H])C([H])(C4([H])[H])C([H])([H])C2(O[H])C5([H])[H])C13[H]

$$$$
22:1:2
     RDKit          3D

 87 94  0  0  1  0  0  0  0  0999 V2000
    5.4136   -1.7009    6.2254 C   0  0  0  0  0  0  0  0  0  0  0  0
    4.5321   -1.7351    4.9612 C   0  0  2  0  0  0  0  0  0  0  0  0
    3.2257   -0.9615    5.1373 C   0  0  0  0  0  0  0  0  0  0  0  0
    3.2106    0.0305    5.8970 O   0  0  0  0  0  0  0  0  0  0  0  0
    2.2580   -1.4262    4.3917 N   0  0  0  0  0  0  0  0  0  0  0  0
    1.1647   -0.5962    3.7739 C   0  0  2  0  0  0  0  0  0  0  0  0
    1.6548    0.6396    2.9168 C   0  0  2  0  0  0  0  0  0  0  0  0
    2.1938    1.8273    3.7755 C   0  0  0  0  0  0  0  0  0  0  0  0
    1.0781    2.2748    4.7666 C   0  0  1  0  0  0  0  0  0  0  0  0
   -0.0963    2.8322    3.9331 C   0  0  0  0  0  0  0  0  0  0  0  0
   -0.6508    1.6989    3.0389 C   0  0  1  0  0  0  0  0  0  0  0  0
    0.4553    1.1957    2.0864 C   0  0  0  0  0  0  0  0  0  0  0  0
   -1.1226    0.5161    3.9170 C   0  0  0  0  0  0  0  0  0  0  0  0
    0.0522   -0.0349    4.7610 C   0  0  1  0  0  0  0  0  0  0  0  0
   -0.4368   -1.0971    5.5424 O   0  0  0  0  0  0  0  0  0  0  0  0
    0.5573    1.1177    5.6848 C   0  0  0  0  0  0  0  0  0  0  0  0
    2.6400   -2.7729    3.8690 C   0  0  1  0  0  0  0  0  0  0  0  0
    3.9503   -3.1077    4.6510 C   0  0  1  0  0  0  0  0  0  0  0  0
    4.9286   -4.1521    4.0045 C   0  0  0  0  0  0  0  0  0  0  0  0
    4.5048   -5.6717    3.9821 C   0  0  0  0  0  0  0  0  0  0  0  0
    2.9694   -5.8970    4.1154 C   0  0  2  0  0  0  0  0  0  0  0  0
    2.1976   -6.6455    5.2351 C   0  0  1  0  0  0  0  0  0  0  0  0
    3.0783   -7.2382    6.1744 O   0  0  0  0  0  0  0  0  0  0  0  0
    1.3748   -5.5668    6.0625 C   0  0  0  0  0  0  0  0  0  0  0  0
    0.8865   -4.2740    5.2752 C   0  0  0  0  0  0  0  0  0  0  0  0
    1.5245   -3.9011    3.8685 C   0  0  2  0  0  0  0  0  0  0  0  0
    2.0200   -5.1925    3.0978 C   0  0  1  0  0  0  0  0  0  0  0  0
    2.7502   -4.8449    1.7556 C   0  0  0  0  0  0  0  0  0  0  0  0
    0.7863   -6.1267    2.7135 C   0  0  1  0  0  0  0  0  0  0  0  0
    0.9633   -6.8849    1.5468 O   0  0  0  0  0  0  0  0  0  0  0  0
    0.1938   -7.0086    3.8349 C   0  0  1  0  0  0  0  0  0  0  0  0
   -0.9186   -7.7875    3.4352 O   0  0  0  0  0  0  0  0  0  0  0  0
    1.2678   -7.7719    4.6497 C   0  0  1  0  0  0  0  0  0  0  0  0
    2.0638   -8.8992    3.8840 C   0  0  0  0  0  0  0  0  0  0  0  0
    1.3789   -9.5162    2.6198 C   0  0  0  0  0  0  0  0  0  0  0  0
    0.5955  -10.7096    3.1757 C   0  0  0  0  0  0  0  0  0  0  0  0
    1.0386  -10.9851    4.6205 C   0  0  0  0  0  0  0  0  0  0  0  0
    2.2996  -10.1290    4.8023 C   0  0  0  0  0  0  0  0  0  0  0  0
    5.6873   -0.6666    6.4217 H   0  0  0  0  0  0  0  0  0  0  0  0
    6.3357   -2.2860    6.1391 H   0  0  0  0  0  0  0  0  0  0  0  0
    4.8485   -2.0326    7.1068 H   0  0  0  0  0  0  0  0  0  0  0  0
    5.0665   -1.3625    4.0678 H   0  0  0  0  0  0  0  0  0  0  0  0
    0.6550   -1.2675    3.0619 H   0  0  0  0  0  0  0  0  0  0  0  0
    2.4283    0.3164    2.2108 H   0  0  0  0  0  0  0  0  0  0  0  0
    3.1205    1.5832    4.2972 H   0  0  0  0  0  0  0  0  0  0  0  0
    2.4411    2.6738    3.0977 H   0  0  0  0  0  0  0  0  0  0  0  0
    1.4723    3.0723    5.3900 H   0  0  0  0  0  0  0  0  0  0  0  0
   -0.8847    3.2161    4.5920 H   0  0  0  0  0  0  0  0  0  0  0  0
    0.2283    3.6784    3.3094 H   0  0  0  0  0  0  0  0  0  0  0  0
   -1.4924    2.0895    2.4671 H   0  0  0  0  0  0  0  0  0  0  0  0
    0.7898    2.0269    1.4533 H   0  0  0  0  0  0  0  0  0  0  0  0
    0.0657    0.4447    1.3928 H   0  0  0  0  0  0  0  0  0  0  0  0
   -1.9376    0.8597    4.5773 H   0  0  0  0  0  0  0  0  0  0  0  0
   -1.5672   -0.2549    3.2888 H   0  0  0  0  0  0  0  0  0  0  0  0
    0.3212   -1.5023    5.9349 H   0  0  0  0  0  0  0  0  0  0  0  0
    1.2947    0.8132    6.3767 H   0  0  0  0  0  0  0  0  0  0  0  0
   -0.3195    1.4959    6.2658 H   0  0  0  0  0  0  0  0  0  0  0  0
    2.8459   -2.4886    2.8392 H   0  0  0  0  0  0  0  0  0  0  0  0
    3.6421   -3.4704    5.6381 H   0  0  0  0  0  0  0  0  0  0  0  0
    5.2193   -3.7973    3.0206 H   0  0  0  0  0  0  0  0  0  0  0  0
    5.8368   -4.0835    4.5801 H   0  0  0  0  0  0  0  0  0  0  0  0
    4.8837   -6.1176    3.0708 H   0  0  0  0  0  0  0  0  0  0  0  0
    5.0360   -6.1744    4.7920 H   0  0  0  0  0  0  0  0  0  0  0  0
    3.1425   -5.2344    4.9181 H   0  0  0  0  0  0  0  0  0  0  0  0
    3.4760   -8.0034    5.7916 H   0  0  0  0  0  0  0  0  0  0  0  0
    0.5262   -6.0363    6.5425 H   0  0  0  0  0  0  0  0  0  0  0  0
    1.9798   -5.2438    6.9247 H   0  0  0  0  0  0  0  0  0  0  0  0
   -0.2104   -4.3240    5.1524 H   0  0  0  0  0  0  0  0  0  0  0  0
    1.0622   -3.4398    5.9431 H   0  0  0  0  0  0  0  0  0  0  0  0
    0.7140   -3.4933    3.2745 H   0  0  0  0  0  0  0  0  0  0  0  0
    2.0379   -4.4316    1.0479 H   0  0  0  0  0  0  0  0  0  0  0  0
    3.2058   -5.7179    1.2819 H   0  0  0  0  0  0  0  0  0  0  0  0
    3.5848   -4.1523    1.8005 H   0  0  0  0  0  0  0  0  0  0  0  0
    0.0017   -5.4587    2.3576 H   0  0  0  0  0  0  0  0  0  0  0  0
    1.6094   -7.6415    1.7625 H   0  0  0  0  0  0  0  0  0  0  0  0
   -0.3299   -6.3491    4.4999 H   0  0  0  0  0  0  0  0  0  0  0  0
   -0.9841   -8.5193    4.0236 H   0  0  0  0  0  0  0  0  0  0  0  0
    0.7273   -8.2156    5.4994 H   0  0  0  0  0  0  0  0  0  0  0  0
    3.0548   -8.5049    3.6071 H   0  0  0  0  0  0  0  0  0  0  0  0
    0.6694   -8.9558    2.0558 H   0  0  0  0  0  0  0  0  0  0  0  0
    2.1815   -9.8934    1.9690 H   0  0  0  0  0  0  0  0  0  0  0  0
   -0.4616  -10.4376    3.1809 H   0  0  0  0  0  0  0  0  0  0  0  0
    0.6919  -11.6131    2.5793 H   0  0  0  0  0  0  0  0  0  0  0  0
    0.2520  -10.6522    5.3170 H   0  0  0  0  0  0  0  0  0  0  0  0
    1.2008  -12.0623    4.7757 H   0  0  0  0  0  0  0  0  0  0  0  0
    3.1561  -10.6980    4.4186 H   0  0  0  0  0  0  0  0  0  0  0  0
    2.5022   -9.9272    5.8631 H   0  0  0  0  0  0  0  0  0  0  0  0
  1  2  1  0
  1 39  1  0
  1 40  1  0
  1 41  1  0
  2 18  1  0
  2  3  1  0
  2 42  1  6
  3  4  2  0
  3  5  1  0
  5  6  1  0
  5 17  1  0
  6 14  1  0
  6  7  1  0
  6 43  1  6
  7 12  1  0
  7  8  1  0
  7 44  1  6
  8  9  1  0
  8 45  1  0
  8 46  1  0
  9 16  1  0
  9 10  1  0
  9 47  1  1
 10 11  1  0
 10 48  1  0
 10 49  1  0
 11 12  1  0
 11 13  1  0
 11 50  1  6
 12 51  1  0
 12 52  1  0
 13 14  1  0
 13 53  1  0
 13 54  1  0
 14 15  1  1
 14 16  1  0
 15 55  1  0
 16 56  1  0
 16 57  1  0
 17 26  1  0
 17 18  1  0
 17 58  1  6
 18 19  1  0
 18 59  1  1
 19 20  1  0
 19 60  1  0
 19 61  1  0
 20 21  1  0
 20 62  1  0
 20 63  1  0
 21 27  1  0
 21 22  1  0
 21 64  1  6
 22 33  1  0
 22 23  1  1
 22 24  1  0
 23 65  1  0
 24 25  1  0
 24 66  1  0
 24 67  1  0
 25 26  1  0
 25 68  1  0
 25 69  1  0
 26 27  1  0
 26 70  1  6
 27 28  1  6
 27 29  1  0
 28 71  1  0
 28 72  1  0
 28 73  1  0
 29 30  1  0
 29 31  1  0
 29 74  1  6
 30 75  1  0
 31 32  1  0
 31 33  1  0
 31 76  1  1
 32 77  1  0
 33 34  1  0
 33 78  1  1
 34 38  1  0
 34 35  1  0
 34 79  1  0
 35 36  1  0
 35 80  1  0
 35 81  1  0
 36 37  1  0
 36 82  1  0
 36 83  1  0
 37 38  1  0
 37 84  1  0
 37 85  1  0
 38 86  1  0
 38 87  1  0
M  END
>  <i_m_ct_stereo_status>  (80) 
1

>  <s_m_source_file>  (80) 
/var/tmp/pbs.5076255.sched01/tmpkni74bsw/0nq93mkxh.sdf

>  <i_m_source_file_index>  (80) 
34

>  <i_lp_mmshare_version>  (80) 
48012

>  <i_f3d_flags>  (80) 
0

>  <s_epik_input>  (80) 
W0NIMl0xW0NAQEhdKFtDSDJdMilbQ0gyXVtDQEBIXShbQ0gyXTMpW0NIMl1bQ0BIXTFbQ0BIXShbQ0BdMjNbT0hdKU40Qyg9TylbQ0BASF0oW0NIM10pW0NASF0oW0NIMl1bQ0gyXTUpW0NASF00W0NASF0oW0NIMl1bQ0gyXTYpW0NAQF0oW0NIM10pKFtDSF01W0NAQF02N1tPSF0pW0NAQEhdKFtPSF0pW0NAQEhdKFtPSF0pW0NASF03W0NIXThbQ0gyXVtDSDJdW0NIMl1bQ0gyXTg=

>  <s_epik_cmdline>  (80) 
J2VwaWtfcHl0aG9uJywgJy1waHQnLCAnMi4wJywgJy1waCcsICc3LjAnLCAnLXRuJywgJzgnLCAnLW1hJywgJzIwMCcsICctaW1hZScsICc8aW5maWxlLm1hZT4nLCAnLW9tYWUnLCAnPG91dGZpbGUubWFlPic=

>  <r_lp_tautomer_probability>  (80) 
1

>  <r_epik_Ionization_Penalty>  (80) 
4.38789e-06

>  <r_epik_Ionization_Penalty_Charging>  (80) 
0

>  <r_epik_Ionization_Penalty_Neutral>  (80) 
4.38789e-06

>  <r_epik_State_Penalty>  (80) 
-0

>  <r_epik_Charging_Adjusted_Penalty>  (80) 
0

>  <i_epik_Tot_Q>  (80) 
0

>  <i_epik_Tot_abs_Q>  (80) 
0

>  <s_lp_Force_Field>  (80) 
OPLS3e

>  <r_lp_Energy>  (80) 
114.782

>  <b_lp_Chiralities_Consistent>  (80) 
1

>  <s_lp_Variant>  (80) 
22:0-2

>  <s_i_glide_gridfile>  (80) 
pfpi4k_grid

>  <i_i_glide_lignum>  (80) 
34

>  <i_i_glide_rotatable_bonds>  (80) 
6

>  <r_i_docking_score>  (80) 
-2.10103

>  <r_i_glide_ligand_efficiency>  (80) 
-0.0552903

>  <r_i_glide_ligand_efficiency_sa>  (80) 
-0.185885

>  <r_i_glide_ligand_efficiency_ln>  (80) 
-0.453044

>  <r_i_glide_gscore>  (80) 
-2.10103

>  <r_i_glide_lipo>  (80) 
-0.179983

>  <r_i_glide_hbond>  (80) 
0

>  <r_i_glide_metal>  (80) 
-0

>  <r_i_glide_rewards>  (80) 
0

>  <r_i_glide_evdw>  (80) 
-34.2983

>  <r_i_glide_ecoul>  (80) 
-3.8898

>  <r_i_glide_erotb>  (80) 
0.147912

>  <r_i_glide_esite>  (80) 
0

>  <r_i_glide_emodel>  (80) 
-38.9431

>  <r_i_glide_energy>  (80) 
-38.1881

>  <r_i_glide_einternal>  (80) 
1.17729

>  <r_i_glide_intrahb_reward>  (80) 
-0

>  <i_i_glide_confnum>  (80) 
1

>  <i_i_glide_posenum>  (80) 
2

>  <r_i_glide_eff_state_penalty>  (80) 
0

>  <ligand_id>  (80) 
22

>  <original_smiles>  (80) 
CC1C(=O)N(C2C3CC4CC(C3)CC2(O)C4)C2C1CCC1C3(O)CCC2C1(C)C(O)C(O)C3C1CCCC1

>  <smiles>  (80) 
[H]OC1([H])C([H])(O[H])C2(C([H])([H])[H])C3([H])C([H])([H])C([H])([H])C(O[H])(C1([H])C1([H])C([H])([H])C([H])([H])C([H])([H])C1([H])[H])C2([H])C([H])([H])C([H])([H])C1([H])C([H])(C([H])([H])[H])C(=O)N(C2([H])C4([H])C([H])([H])C5([H])C([H])([H])C([H])(C4([H])[H])C([H])([H])C2(O[H])C5([H])[H])C13[H]

$$$$
24:0:0
     RDKit          3D

 60 64  0  0  1  0  0  0  0  0999 V2000
    0.8667   -2.4250    5.6101 C   0  0  0  0  0  0  0  0  0  0  0  0
    0.7598   -1.8048    6.9962 C   0  0  0  0  0  0  0  0  0  0  0  0
   -0.0187   -2.2520    7.8411 O   0  0  0  0  0  0  0  0  0  0  0  0
    1.5874   -0.7485    7.1476 O   0  0  0  0  0  0  0  0  0  0  0  0
    1.6610   -0.0035    8.3700 C   0  0  2  0  0  0  0  0  0  0  0  0
    0.4729    0.9897    8.4539 C   0  0  0  0  0  0  0  0  0  0  0  0
   -0.6869    0.5953    8.3522 O   0  0  0  0  0  0  0  0  0  0  0  0
    0.8067    2.4859    8.6267 C   0  0  1  0  0  0  0  0  0  0  0  0
    1.9235    2.8352    7.5551 C   0  0  2  0  0  0  0  0  0  0  0  0
    1.5423    2.5710    6.0506 C   0  0  0  0  0  0  0  0  0  0  0  0
    0.0688    2.7321    5.7396 C   0  0  1  0  0  0  0  0  0  0  0  0
   -0.5013    4.0112    6.2984 C   0  0  2  0  0  0  0  0  0  0  0  0
   -1.2361    3.6636    7.5386 C   0  0  0  0  0  0  0  0  0  0  0  0
   -2.5119    3.3219    7.7108 C   0  0  0  0  0  0  0  0  0  0  0  0
   -2.7992    2.8305    9.1037 C   0  0  0  0  0  0  0  0  0  0  0  0
   -1.5018    3.1665    9.8701 C   0  0  1  0  0  0  0  0  0  0  0  0
   -1.1588    2.2265   10.8767 O   0  0  0  0  0  0  0  0  0  0  0  0
   -0.3940    3.5208    8.8018 C   0  0  1  0  0  0  0  0  0  0  0  0
    0.1881    4.8955    9.2306 C   0  0  0  0  0  0  0  0  0  0  0  0
   -0.6800    3.6795    4.8268 C   0  0  0  0  0  0  0  0  0  0  0  0
    0.0981    4.4515    3.7704 C   0  0  0  0  0  0  0  0  0  0  0  0
   -2.0390    3.2801    4.2840 C   0  0  0  0  0  0  0  0  0  0  0  0
    3.2479    2.1189    7.9329 C   0  0  1  0  0  0  0  0  0  0  0  0
    4.3172    2.3514    6.8509 C   0  0  0  0  0  0  0  0  0  0  0  0
    3.7558    2.3806    9.3560 C   0  0  0  0  0  0  0  0  0  0  0  0
    3.2745    1.1026    9.8271 O   0  0  0  0  0  0  0  0  0  0  0  0
    3.0629    0.6693    8.4592 C   0  0  1  0  0  0  0  0  0  0  0  0
    4.1804   -0.3551    8.2043 C   0  0  0  0  0  0  0  0  0  0  0  0
    1.8997   -2.7067    5.4114 H   0  0  0  0  0  0  0  0  0  0  0  0
    0.5455   -1.7189    4.8450 H   0  0  0  0  0  0  0  0  0  0  0  0
    0.2445   -3.3167    5.5414 H   0  0  0  0  0  0  0  0  0  0  0  0
    1.5625   -0.7025    9.2009 H   0  0  0  0  0  0  0  0  0  0  0  0
    1.2649    2.5148    9.6130 H   0  0  0  0  0  0  0  0  0  0  0  0
    2.1290    3.8999    7.6223 H   0  0  0  0  0  0  0  0  0  0  0  0
    2.1355    3.2151    5.4044 H   0  0  0  0  0  0  0  0  0  0  0  0
    1.8019    1.5498    5.7671 H   0  0  0  0  0  0  0  0  0  0  0  0
   -0.4788    1.8075    5.9126 H   0  0  0  0  0  0  0  0  0  0  0  0
    0.1544    4.8630    6.4628 H   0  0  0  0  0  0  0  0  0  0  0  0
   -3.2630    3.2957    6.9373 H   0  0  0  0  0  0  0  0  0  0  0  0
   -3.6801    3.3158    9.5296 H   0  0  0  0  0  0  0  0  0  0  0  0
   -2.9734    1.7581    9.0629 H   0  0  0  0  0  0  0  0  0  0  0  0
   -1.7447    4.0701   10.4317 H   0  0  0  0  0  0  0  0  0  0  0  0
   -1.8635    2.1590   11.5158 H   0  0  0  0  0  0  0  0  0  0  0  0
    0.7283    4.8035   10.1738 H   0  0  0  0  0  0  0  0  0  0  0  0
   -0.5988    5.6360    9.3777 H   0  0  0  0  0  0  0  0  0  0  0  0
    0.8722    5.3367    8.5105 H   0  0  0  0  0  0  0  0  0  0  0  0
   -0.4410    5.3442    3.4485 H   0  0  0  0  0  0  0  0  0  0  0  0
    0.2761    3.8215    2.8953 H   0  0  0  0  0  0  0  0  0  0  0  0
    1.0668    4.7687    4.1572 H   0  0  0  0  0  0  0  0  0  0  0  0
   -2.6627    4.1613    4.1667 H   0  0  0  0  0  0  0  0  0  0  0  0
   -2.5362    2.5873    4.9613 H   0  0  0  0  0  0  0  0  0  0  0  0
   -1.9484    2.7929    3.3123 H   0  0  0  0  0  0  0  0  0  0  0  0
    5.3017    2.0251    7.1868 H   0  0  0  0  0  0  0  0  0  0  0  0
    4.4138    3.4042    6.5898 H   0  0  0  0  0  0  0  0  0  0  0  0
    4.1087    1.7918    5.9396 H   0  0  0  0  0  0  0  0  0  0  0  0
    4.8406    2.4635    9.4339 H   0  0  0  0  0  0  0  0  0  0  0  0
    3.2757    3.2261    9.8479 H   0  0  0  0  0  0  0  0  0  0  0  0
    4.2015   -0.6554    7.1566 H   0  0  0  0  0  0  0  0  0  0  0  0
    4.0465   -1.2492    8.8127 H   0  0  0  0  0  0  0  0  0  0  0  0
    5.1615    0.0568    8.4430 H   0  0  0  0  0  0  0  0  0  0  0  0
  1  2  1  0
  1 29  1  0
  1 30  1  0
  1 31  1  0
  2  3  2  0
  2  4  1  0
  4  5  1  0
  5 27  1  0
  5  6  1  0
  5 32  1  1
  6  7  2  0
  6  8  1  0
  8 18  1  0
  8  9  1  0
  8 33  1  1
  9 10  1  0
  9 23  1  0
  9 34  1  6
 10 11  1  0
 10 35  1  0
 10 36  1  0
 11 20  1  0
 11 12  1  0
 11 37  1  1
 12 13  1  0
 12 20  1  0
 12 38  1  6
 13 18  1  0
 13 14  2  0
 14 15  1  0
 14 39  1  0
 15 16  1  0
 15 40  1  0
 15 41  1  0
 16 17  1  0
 16 18  1  0
 16 42  1  1
 17 43  1  0
 18 19  1  1
 19 44  1  0
 19 45  1  0
 19 46  1  0
 20 21  1  0
 20 22  1  0
 21 47  1  0
 21 48  1  0
 21 49  1  0
 22 50  1  0
 22 51  1  0
 22 52  1  0
 23 27  1  0
 23 24  1  6
 23 25  1  0
 24 53  1  0
 24 54  1  0
 24 55  1  0
 25 26  1  0
 25 56  1  0
 25 57  1  0
 26 27  1  0
 27 28  1  6
 28 58  1  0
 28 59  1  0
 28 60  1  0
M  END
>  <i_m_ct_stereo_status>  (81) 
1

>  <s_m_source_file>  (81) 
/var/tmp/pbs.5076255.sched01/tmpkni74bsw/0nq93mkxh.sdf

>  <i_m_source_file_index>  (81) 
36

>  <i_lp_mmshare_version>  (81) 
48012

>  <i_f3d_flags>  (81) 
0

>  <s_epik_input>  (81) 
W0NIM11DKD1PKU9bQ0BIXShDMT1PKVtDQF0oW0NIM10pKE9bQ0gyXTIpW0NAQF0yKFtDSDNdKVtDQEhdKFtDQEhdMVtDQEBdMzRbQ0gzXSlbQ0gyXVtDQEhdNVtDQEBIXShDNShbQ0gzXSlbQ0gzXSlDMz1bQ0hdW0NIMl1bQ0BIXTRbT0hd

>  <s_epik_cmdline>  (81) 
J2VwaWtfcHl0aG9uJywgJy1waHQnLCAnMi4wJywgJy1waCcsICc3LjAnLCAnLXRuJywgJzgnLCAnLW1hJywgJzIwMCcsICctaW1hZScsICc8aW5maWxlLm1hZT4nLCAnLW9tYWUnLCAnPG91dGZpbGUubWFlPic=

>  <r_lp_tautomer_probability>  (81) 
1

>  <r_epik_Ionization_Penalty>  (81) 
1.02222e-07

>  <r_epik_Ionization_Penalty_Charging>  (81) 
0

>  <r_epik_Ionization_Penalty_Neutral>  (81) 
1.02222e-07

>  <r_epik_State_Penalty>  (81) 
-0

>  <r_epik_Charging_Adjusted_Penalty>  (81) 
0

>  <i_epik_Tot_Q>  (81) 
0

>  <i_epik_Tot_abs_Q>  (81) 
0

>  <s_epik_Chemistry_Notes>  (81) 
This compound has an ester and may undergo hydrolysis at high or low pH.

>  <s_lp_Force_Field>  (81) 
OPLS3e

>  <r_lp_Energy>  (81) 
57.2671

>  <b_lp_Chiralities_Consistent>  (81) 
1

>  <s_lp_Variant>  (81) 
24:0-1

>  <s_i_glide_gridfile>  (81) 
pfpi4k_grid

>  <i_i_glide_lignum>  (81) 
36

>  <i_i_glide_rotatable_bonds>  (81) 
3

>  <r_i_docking_score>  (81) 
-2.45334

>  <r_i_glide_ligand_efficiency>  (81) 
-0.0876193

>  <r_i_glide_ligand_efficiency_sa>  (81) 
-0.266064

>  <r_i_glide_ligand_efficiency_ln>  (81) 
-0.566303

>  <r_i_glide_gscore>  (81) 
-2.45334

>  <r_i_glide_lipo>  (81) 
-0.117085

>  <r_i_glide_hbond>  (81) 
-0.0875771

>  <r_i_glide_metal>  (81) 
-0

>  <r_i_glide_rewards>  (81) 
-0.760246

>  <r_i_glide_evdw>  (81) 
-12.9887

>  <r_i_glide_ecoul>  (81) 
-6.26471

>  <r_i_glide_erotb>  (81) 
0.129097

>  <r_i_glide_esite>  (81) 
-0.0283898

>  <r_i_glide_emodel>  (81) 
-22.2019

>  <r_i_glide_energy>  (81) 
-19.2534

>  <r_i_glide_einternal>  (81) 
0.953924

>  <r_i_glide_intrahb_reward>  (81) 
-0

>  <i_i_glide_confnum>  (81) 
3

>  <i_i_glide_posenum>  (81) 
9

>  <r_i_glide_eff_state_penalty>  (81) 
0

>  <ligand_id>  (81) 
24

>  <original_smiles>  (81) 
CC(=O)OC1C(=O)C2C(CC3C(C4=CCC(O)C42C)C3(C)C)C2(C)COC12C

>  <smiles>  (81) 
[H]OC1([H])C([H])([H])C([H])=C2C3([H])C([H])(C([H])([H])C4([H])C([H])(C(=O)C([H])(OC(=O)C([H])([H])[H])C5(C([H])([H])[H])OC([H])([H])C45C([H])([H])[H])C21C([H])([H])[H])C3(C([H])([H])[H])C([H])([H])[H]

$$$$
24:0:1
     RDKit          3D

 60 64  0  0  1  0  0  0  0  0999 V2000
    0.1937   -3.2378    6.9687 C   0  0  0  0  0  0  0  0  0  0  0  0
    0.6044   -2.3576    5.7818 C   0  0  0  0  0  0  0  0  0  0  0  0
    0.2769   -2.6576    4.6452 O   0  0  0  0  0  0  0  0  0  0  0  0
    1.3437   -1.2477    6.0522 O   0  0  0  0  0  0  0  0  0  0  0  0
    1.6721   -0.7873    7.3817 C   0  0  2  0  0  0  0  0  0  0  0  0
    0.6845    0.3500    7.7322 C   0  0  0  0  0  0  0  0  0  0  0  0
   -0.5334    0.1655    7.6507 O   0  0  0  0  0  0  0  0  0  0  0  0
    1.3064    1.6903    8.1727 C   0  0  1  0  0  0  0  0  0  0  0  0
    2.4319    2.0381    7.1119 C   0  0  2  0  0  0  0  0  0  0  0  0
    1.9456    2.1639    5.6257 C   0  0  0  0  0  0  0  0  0  0  0  0
    0.5347    2.6602    5.4733 C   0  0  1  0  0  0  0  0  0  0  0  0
    0.2371    3.8614    6.3165 C   0  0  2  0  0  0  0  0  0  0  0  0
   -0.5074    3.4281    7.5077 C   0  0  0  0  0  0  0  0  0  0  0  0
   -1.8149    3.3048    7.7104 C   0  0  0  0  0  0  0  0  0  0  0  0
   -2.1487    2.5857    8.9860 C   0  0  0  0  0  0  0  0  0  0  0  0
   -0.7733    2.5028    9.6976 C   0  0  1  0  0  0  0  0  0  0  0  0
   -0.5836    1.3336   10.4784 O   0  0  0  0  0  0  0  0  0  0  0  0
    0.3427    2.8639    8.6320 C   0  0  1  0  0  0  0  0  0  0  0  0
    1.1979    3.9710    9.3021 C   0  0  0  0  0  0  0  0  0  0  0  0
   -0.0488    3.8966    4.8183 C   0  0  0  0  0  0  0  0  0  0  0  0
    0.8230    4.7219    3.8904 C   0  0  0  0  0  0  0  0  0  0  0  0
   -1.4745    3.9068    4.3115 C   0  0  0  0  0  0  0  0  0  0  0  0
    3.6046    1.0291    7.2482 C   0  0  1  0  0  0  0  0  0  0  0  0
    4.6481    1.2656    6.1530 C   0  0  0  0  0  0  0  0  0  0  0  0
    4.1887    0.8469    8.6589 C   0  0  0  0  0  0  0  0  0  0  0  0
    3.4781   -0.3560    8.8555 O   0  0  0  0  0  0  0  0  0  0  0  0
    3.1629   -0.4236    7.4716 C   0  0  1  0  0  0  0  0  0  0  0  0
    4.0137   -1.5857    6.9423 C   0  0  0  0  0  0  0  0  0  0  0  0
   -0.3827   -2.6452    7.6817 H   0  0  0  0  0  0  0  0  0  0  0  0
    1.0941   -3.6066    7.4568 H   0  0  0  0  0  0  0  0  0  0  0  0
   -0.4049   -4.0878    6.6597 H   0  0  0  0  0  0  0  0  0  0  0  0
    1.5202   -1.5122    8.1714 H   0  0  0  0  0  0  0  0  0  0  0  0
    1.7861    1.4114    9.1139 H   0  0  0  0  0  0  0  0  0  0  0  0
    2.8431    3.0053    7.3832 H   0  0  0  0  0  0  0  0  0  0  0  0
    2.6315    2.8040    5.0792 H   0  0  0  0  0  0  0  0  0  0  0  0
    1.9853    1.1996    5.1247 H   0  0  0  0  0  0  0  0  0  0  0  0
   -0.1853    1.8528    5.5047 H   0  0  0  0  0  0  0  0  0  0  0  0
    1.0587    4.5321    6.5993 H   0  0  0  0  0  0  0  0  0  0  0  0
   -2.5806    3.5804    7.0073 H   0  0  0  0  0  0  0  0  0  0  0  0
   -2.8934    3.1331    9.5725 H   0  0  0  0  0  0  0  0  0  0  0  0
   -2.5377    1.6092    8.7363 H   0  0  0  0  0  0  0  0  0  0  0  0
   -0.8110    3.2957   10.4536 H   0  0  0  0  0  0  0  0  0  0  0  0
   -1.2246    1.3294   11.1721 H   0  0  0  0  0  0  0  0  0  0  0  0
    1.7384    3.5810   10.1639 H   0  0  0  0  0  0  0  0  0  0  0  0
    0.5797    4.8029    9.6546 H   0  0  0  0  0  0  0  0  0  0  0  0
    1.9312    4.4209    8.6376 H   0  0  0  0  0  0  0  0  0  0  0  0
    0.4643    5.7510    3.8003 H   0  0  0  0  0  0  0  0  0  0  0  0
    0.8465    4.2769    2.8915 H   0  0  0  0  0  0  0  0  0  0  0  0
    1.8538    4.7616    4.2586 H   0  0  0  0  0  0  0  0  0  0  0  0
   -1.9072    4.8929    4.4409 H   0  0  0  0  0  0  0  0  0  0  0  0
   -2.0766    3.1824    4.8748 H   0  0  0  0  0  0  0  0  0  0  0  0
   -1.5170    3.6284    3.2653 H   0  0  0  0  0  0  0  0  0  0  0  0
    5.5553    0.6900    6.3406 H   0  0  0  0  0  0  0  0  0  0  0  0
    4.9494    2.3129    6.0959 H   0  0  0  0  0  0  0  0  0  0  0  0
    4.2942    0.9540    5.1714 H   0  0  0  0  0  0  0  0  0  0  0  0
    5.2720    0.7108    8.6639 H   0  0  0  0  0  0  0  0  0  0  0  0
    3.9098    1.6513    9.3380 H   0  0  0  0  0  0  0  0  0  0  0  0
    3.9406   -1.6774    5.8536 H   0  0  0  0  0  0  0  0  0  0  0  0
    3.7158   -2.5432    7.3693 H   0  0  0  0  0  0  0  0  0  0  0  0
    5.0702   -1.4510    7.1798 H   0  0  0  0  0  0  0  0  0  0  0  0
  1  2  1  0
  1 29  1  0
  1 30  1  0
  1 31  1  0
  2  3  2  0
  2  4  1  0
  4  5  1  0
  5 27  1  0
  5  6  1  0
  5 32  1  1
  6  7  2  0
  6  8  1  0
  8 18  1  0
  8  9  1  0
  8 33  1  1
  9 10  1  0
  9 23  1  0
  9 34  1  1
 10 11  1  0
 10 35  1  0
 10 36  1  0
 11 20  1  0
 11 12  1  0
 11 37  1  1
 12 13  1  0
 12 20  1  0
 12 38  1  1
 13 18  1  0
 13 14  2  0
 14 15  1  0
 14 39  1  0
 15 16  1  0
 15 40  1  0
 15 41  1  0
 16 17  1  0
 16 18  1  0
 16 42  1  1
 17 43  1  0
 18 19  1  1
 19 44  1  0
 19 45  1  0
 19 46  1  0
 20 21  1  0
 20 22  1  0
 21 47  1  0
 21 48  1  0
 21 49  1  0
 22 50  1  0
 22 51  1  0
 22 52  1  0
 23 27  1  0
 23 24  1  6
 23 25  1  0
 24 53  1  0
 24 54  1  0
 24 55  1  0
 25 26  1  0
 25 56  1  0
 25 57  1  0
 26 27  1  0
 27 28  1  6
 28 58  1  0
 28 59  1  0
 28 60  1  0
M  END
>  <i_m_ct_stereo_status>  (82) 
1

>  <s_m_source_file>  (82) 
/var/tmp/pbs.5076255.sched01/tmpkni74bsw/0nq93mkxh.sdf

>  <i_m_source_file_index>  (82) 
36

>  <i_lp_mmshare_version>  (82) 
48012

>  <i_f3d_flags>  (82) 
0

>  <s_epik_input>  (82) 
W0NIM11DKD1PKU9bQ0BIXShDMT1PKVtDQF0oW0NIM10pKE9bQ0gyXTIpW0NAQF0yKFtDSDNdKVtDQEhdKFtDQEhdMVtDQEBdMzRbQ0gzXSlbQ0gyXVtDQEhdNVtDQEBIXShDNShbQ0gzXSlbQ0gzXSlDMz1bQ0hdW0NIMl1bQ0BIXTRbT0hd

>  <s_epik_cmdline>  (82) 
J2VwaWtfcHl0aG9uJywgJy1waHQnLCAnMi4wJywgJy1waCcsICc3LjAnLCAnLXRuJywgJzgnLCAnLW1hJywgJzIwMCcsICctaW1hZScsICc8aW5maWxlLm1hZT4nLCAnLW9tYWUnLCAnPG91dGZpbGUubWFlPic=

>  <r_lp_tautomer_probability>  (82) 
1

>  <r_epik_Ionization_Penalty>  (82) 
1.02222e-07

>  <r_epik_Ionization_Penalty_Charging>  (82) 
0

>  <r_epik_Ionization_Penalty_Neutral>  (82) 
1.02222e-07

>  <r_epik_State_Penalty>  (82) 
-0

>  <r_epik_Charging_Adjusted_Penalty>  (82) 
0

>  <i_epik_Tot_Q>  (82) 
0

>  <i_epik_Tot_abs_Q>  (82) 
0

>  <s_epik_Chemistry_Notes>  (82) 
This compound has an ester and may undergo hydrolysis at high or low pH.

>  <s_lp_Force_Field>  (82) 
OPLS3e

>  <r_lp_Energy>  (82) 
57.2671

>  <b_lp_Chiralities_Consistent>  (82) 
1

>  <s_lp_Variant>  (82) 
24:0-1

>  <s_i_glide_gridfile>  (82) 
pfpi4k_grid

>  <i_i_glide_lignum>  (82) 
36

>  <i_i_glide_rotatable_bonds>  (82) 
3

>  <r_i_docking_score>  (82) 
-1.56504

>  <r_i_glide_ligand_efficiency>  (82) 
-0.0558944

>  <r_i_glide_ligand_efficiency_sa>  (82) 
-0.169728

>  <r_i_glide_ligand_efficiency_ln>  (82) 
-0.361258

>  <r_i_glide_gscore>  (82) 
-1.56504

>  <r_i_glide_lipo>  (82) 
-0.025426

>  <r_i_glide_hbond>  (82) 
-0.0411008

>  <r_i_glide_metal>  (82) 
-0

>  <r_i_glide_rewards>  (82) 
-0.760246

>  <r_i_glide_evdw>  (82) 
-13.153

>  <r_i_glide_ecoul>  (82) 
-1.2598

>  <r_i_glide_erotb>  (82) 
0.129097

>  <r_i_glide_esite>  (82) 
-0.0207455

>  <r_i_glide_emodel>  (82) 
-13.6948

>  <r_i_glide_energy>  (82) 
-14.4128

>  <r_i_glide_einternal>  (82) 
5.603

>  <r_i_glide_intrahb_reward>  (82) 
-0

>  <i_i_glide_confnum>  (82) 
3

>  <i_i_glide_posenum>  (82) 
30

>  <r_i_glide_eff_state_penalty>  (82) 
0

>  <ligand_id>  (82) 
24

>  <original_smiles>  (82) 
CC(=O)OC1C(=O)C2C(CC3C(C4=CCC(O)C42C)C3(C)C)C2(C)COC12C

>  <smiles>  (82) 
[H]OC1([H])C([H])([H])C([H])=C2C3([H])C([H])(C([H])([H])C4([H])C([H])(C(=O)C([H])(OC(=O)C([H])([H])[H])C5(C([H])([H])[H])OC([H])([H])C45C([H])([H])[H])C21C([H])([H])[H])C3(C([H])([H])[H])C([H])([H])[H]

$$$$
24:0:2
     RDKit          3D

 60 64  0  0  1  0  0  0  0  0999 V2000
    1.5291   -4.1740    7.1136 C   0  0  0  0  0  0  0  0  0  0  0  0
    0.7740   -3.3581    6.0636 C   0  0  0  0  0  0  0  0  0  0  0  0
   -0.0008   -3.8998    5.2757 O   0  0  0  0  0  0  0  0  0  0  0  0
    1.0367   -2.0418    6.0482 O   0  0  0  0  0  0  0  0  0  0  0  0
    1.8864   -1.3736    6.9717 C   0  0  2  0  0  0  0  0  0  0  0  0
    1.1056   -0.1591    7.5103 C   0  0  0  0  0  0  0  0  0  0  0  0
   -0.0196   -0.3114    7.9947 O   0  0  0  0  0  0  0  0  0  0  0  0
    1.7814    1.2210    7.3975 C   0  0  1  0  0  0  0  0  0  0  0  0
    2.3128    1.3548    5.9090 C   0  0  2  0  0  0  0  0  0  0  0  0
    1.2188    1.2219    4.7836 C   0  0  0  0  0  0  0  0  0  0  0  0
   -0.1640    1.7169    5.1836 C   0  0  1  0  0  0  0  0  0  0  0  0
   -0.1029    3.0833    5.8345 C   0  0  2  0  0  0  0  0  0  0  0  0
   -0.2211    2.8622    7.3038 C   0  0  0  0  0  0  0  0  0  0  0  0
   -1.3036    2.8086    8.0781 C   0  0  0  0  0  0  0  0  0  0  0  0
   -0.9888    2.3485    9.4767 C   0  0  0  0  0  0  0  0  0  0  0  0
    0.5475    2.3652    9.5099 C   0  0  1  0  0  0  0  0  0  0  0  0
    1.1176    1.3321   10.2946 O   0  0  0  0  0  0  0  0  0  0  0  0
    1.0671    2.4953    8.0369 C   0  0  1  0  0  0  0  0  0  0  0  0
    2.0608    3.6890    8.0340 C   0  0  0  0  0  0  0  0  0  0  0  0
   -1.0213    2.8478    4.6591 C   0  0  0  0  0  0  0  0  0  0  0  0
   -0.6882    3.4477    3.2981 C   0  0  0  0  0  0  0  0  0  0  0  0
   -2.5255    2.7809    4.8579 C   0  0  0  0  0  0  0  0  0  0  0  0
    3.4800    0.3543    5.6715 C   0  0  1  0  0  0  0  0  0  0  0  0
    3.9308    0.3685    4.1996 C   0  0  0  0  0  0  0  0  0  0  0  0
    4.6455    0.4666    6.6622 C   0  0  0  0  0  0  0  0  0  0  0  0
    4.1783   -0.7059    7.4179 O   0  0  0  0  0  0  0  0  0  0  0  0
    3.2655   -1.0380    6.3168 C   0  0  1  0  0  0  0  0  0  0  0  0
    3.9354   -2.2678    5.6584 C   0  0  0  0  0  0  0  0  0  0  0  0
    1.2934   -3.8066    8.1220 H   0  0  0  0  0  0  0  0  0  0  0  0
    2.5786   -4.1365    6.9431 H   0  0  0  0  0  0  0  0  0  0  0  0
    1.2056   -5.2369    7.0832 H   0  0  0  0  0  0  0  0  0  0  0  0
    2.0574   -1.9854    7.8515 H   0  0  0  0  0  0  0  0  0  0  0  0
    2.6409    1.1074    8.0523 H   0  0  0  0  0  0  0  0  0  0  0  0
    2.7400    2.3448    5.7924 H   0  0  0  0  0  0  0  0  0  0  0  0
    1.5557    1.7333    3.8839 H   0  0  0  0  0  0  0  0  0  0  0  0
    1.0900    0.1758    4.4992 H   0  0  0  0  0  0  0  0  0  0  0  0
   -0.7437    0.9348    5.6613 H   0  0  0  0  0  0  0  0  0  0  0  0
    0.7160    3.7522    5.6084 H   0  0  0  0  0  0  0  0  0  0  0  0
   -2.3192    2.9797    7.7561 H   0  0  0  0  0  0  0  0  0  0  0  0
   -1.4349    3.0042   10.2283 H   0  0  0  0  0  0  0  0  0  0  0  0
   -1.3851    1.3442    9.6200 H   0  0  0  0  0  0  0  0  0  0  0  0
    0.7942    3.2768   10.0573 H   0  0  0  0  0  0  0  0  0  0  0  0
    2.0256    1.5502   10.4685 H   0  0  0  0  0  0  0  0  0  0  0  0
    2.9497    3.4475    8.6191 H   0  0  0  0  0  0  0  0  0  0  0  0
    1.6154    4.5814    8.4731 H   0  0  0  0  0  0  0  0  0  0  0  0
    2.4001    3.9877    7.0457 H   0  0  0  0  0  0  0  0  0  0  0  0
   -1.1051    4.4527    3.2021 H   0  0  0  0  0  0  0  0  0  0  0  0
   -1.0867    2.8282    2.4922 H   0  0  0  0  0  0  0  0  0  0  0  0
    0.3867    3.5217    3.1635 H   0  0  0  0  0  0  0  0  0  0  0  0
   -2.9358    3.7812    4.9915 H   0  0  0  0  0  0  0  0  0  0  0  0
   -2.7626    2.1967    5.7400 H   0  0  0  0  0  0  0  0  0  0  0  0
   -3.0082    2.3152    3.9961 H   0  0  0  0  0  0  0  0  0  0  0  0
    4.8560   -0.1841    4.0636 H   0  0  0  0  0  0  0  0  0  0  0  0
    4.1108    1.3778    3.8389 H   0  0  0  0  0  0  0  0  0  0  0  0
    3.1960   -0.1102    3.5535 H   0  0  0  0  0  0  0  0  0  0  0  0
    5.6261    0.2722    6.2383 H   0  0  0  0  0  0  0  0  0  0  0  0
    4.6453    1.3606    7.2740 H   0  0  0  0  0  0  0  0  0  0  0  0
    3.3728   -2.5698    4.7780 H   0  0  0  0  0  0  0  0  0  0  0  0
    4.0143   -3.0895    6.3369 H   0  0  0  0  0  0  0  0  0  0  0  0
    4.9470   -2.0140    5.2978 H   0  0  0  0  0  0  0  0  0  0  0  0
  1  2  1  0
  1 29  1  0
  1 30  1  0
  1 31  1  0
  2  3  2  0
  2  4  1  0
  4  5  1  0
  5 27  1  0
  5  6  1  0
  5 32  1  1
  6  7  2  0
  6  8  1  0
  8 18  1  0
  8  9  1  0
  8 33  1  1
  9 10  1  0
  9 23  1  0
  9 34  1  1
 10 11  1  0
 10 35  1  0
 10 36  1  0
 11 20  1  0
 11 12  1  0
 11 37  1  1
 12 13  1  0
 12 20  1  0
 12 38  1  1
 13 18  1  0
 13 14  2  0
 14 15  1  0
 14 39  1  0
 15 16  1  0
 15 40  1  0
 15 41  1  0
 16 17  1  0
 16 18  1  0
 16 42  1  1
 17 43  1  0
 18 19  1  1
 19 44  1  0
 19 45  1  0
 19 46  1  0
 20 21  1  0
 20 22  1  0
 21 47  1  0
 21 48  1  0
 21 49  1  0
 22 50  1  0
 22 51  1  0
 22 52  1  0
 23 27  1  0
 23 24  1  6
 23 25  1  0
 24 53  1  0
 24 54  1  0
 24 55  1  0
 25 26  1  0
 25 56  1  0
 25 57  1  0
 26 27  1  0
 27 28  1  6
 28 58  1  0
 28 59  1  0
 28 60  1  0
M  END
>  <i_m_ct_stereo_status>  (83) 
1

>  <s_m_source_file>  (83) 
/var/tmp/pbs.5076255.sched01/tmpkni74bsw/0nq93mkxh.sdf

>  <i_m_source_file_index>  (83) 
36

>  <i_lp_mmshare_version>  (83) 
48012

>  <i_f3d_flags>  (83) 
0

>  <s_epik_input>  (83) 
W0NIM11DKD1PKU9bQ0BIXShDMT1PKVtDQF0oW0NIM10pKE9bQ0gyXTIpW0NAQF0yKFtDSDNdKVtDQEhdKFtDQEhdMVtDQEBdMzRbQ0gzXSlbQ0gyXVtDQEhdNVtDQEBIXShDNShbQ0gzXSlbQ0gzXSlDMz1bQ0hdW0NIMl1bQ0BIXTRbT0hd

>  <s_epik_cmdline>  (83) 
J2VwaWtfcHl0aG9uJywgJy1waHQnLCAnMi4wJywgJy1waCcsICc3LjAnLCAnLXRuJywgJzgnLCAnLW1hJywgJzIwMCcsICctaW1hZScsICc8aW5maWxlLm1hZT4nLCAnLW9tYWUnLCAnPG91dGZpbGUubWFlPic=

>  <r_lp_tautomer_probability>  (83) 
1

>  <r_epik_Ionization_Penalty>  (83) 
1.02222e-07

>  <r_epik_Ionization_Penalty_Charging>  (83) 
0

>  <r_epik_Ionization_Penalty_Neutral>  (83) 
1.02222e-07

>  <r_epik_State_Penalty>  (83) 
-0

>  <r_epik_Charging_Adjusted_Penalty>  (83) 
0

>  <i_epik_Tot_Q>  (83) 
0

>  <i_epik_Tot_abs_Q>  (83) 
0

>  <s_epik_Chemistry_Notes>  (83) 
This compound has an ester and may undergo hydrolysis at high or low pH.

>  <s_lp_Force_Field>  (83) 
OPLS3e

>  <r_lp_Energy>  (83) 
57.2671

>  <b_lp_Chiralities_Consistent>  (83) 
1

>  <s_lp_Variant>  (83) 
24:0-1

>  <s_i_glide_gridfile>  (83) 
pfpi4k_grid

>  <i_i_glide_lignum>  (83) 
36

>  <i_i_glide_rotatable_bonds>  (83) 
3

>  <r_i_docking_score>  (83) 
-1.43174

>  <r_i_glide_ligand_efficiency>  (83) 
-0.0511336

>  <r_i_glide_ligand_efficiency_sa>  (83) 
-0.155272

>  <r_i_glide_ligand_efficiency_ln>  (83) 
-0.330488

>  <r_i_glide_gscore>  (83) 
-1.43174

>  <r_i_glide_lipo>  (83) 
-0.00113213

>  <r_i_glide_hbond>  (83) 
0

>  <r_i_glide_metal>  (83) 
-0

>  <r_i_glide_rewards>  (83) 
-0.760246

>  <r_i_glide_evdw>  (83) 
-12.5023

>  <r_i_glide_ecoul>  (83) 
-1.11461

>  <r_i_glide_erotb>  (83) 
0.129097

>  <r_i_glide_esite>  (83) 
-0.00715083

>  <r_i_glide_emodel>  (83) 
-12.6286

>  <r_i_glide_energy>  (83) 
-13.617

>  <r_i_glide_einternal>  (83) 
5.45933

>  <r_i_glide_intrahb_reward>  (83) 
-0

>  <i_i_glide_confnum>  (83) 
1

>  <i_i_glide_posenum>  (83) 
34

>  <r_i_glide_eff_state_penalty>  (83) 
0

>  <ligand_id>  (83) 
24

>  <original_smiles>  (83) 
CC(=O)OC1C(=O)C2C(CC3C(C4=CCC(O)C42C)C3(C)C)C2(C)COC12C

>  <smiles>  (83) 
[H]OC1([H])C([H])([H])C([H])=C2C3([H])C([H])(C([H])([H])C4([H])C([H])(C(=O)C([H])(OC(=O)C([H])([H])[H])C5(C([H])([H])[H])OC([H])([H])C45C([H])([H])[H])C21C([H])([H])[H])C3(C([H])([H])[H])C([H])([H])[H]

$$$$
25:0:0
     RDKit          3D

 70 73  0  0  1  0  0  0  0  0999 V2000
    5.8624   -4.7027    0.2669 C   0  0  0  0  0  0  0  0  0  0  0  0
    6.5382   -5.9336    0.8498 C   0  0  0  0  0  0  0  0  0  0  0  0
    8.0154   -5.7481    1.1414 C   0  0  0  0  0  0  0  0  0  0  0  0
    5.9060   -7.1000    1.1200 C   0  0  0  0  0  0  0  0  0  0  0  0
    4.4226   -7.4400    0.9186 C   0  0  0  0  0  0  0  0  0  0  0  0
    3.4898   -7.3289    2.1974 C   0  0  1  0  0  0  0  0  0  0  0  0
    2.0030   -7.5586    1.6794 C   0  0  0  0  0  0  0  0  0  0  0  0
    0.6876   -7.1296    2.4613 C   0  0  1  0  0  0  0  0  0  0  0  0
   -0.1849   -6.6767    1.4263 O   0  0  0  0  0  0  0  0  0  0  0  0
   -0.1780   -8.1128    3.3935 C   0  0  1  0  0  0  0  0  0  0  0  0
   -1.5920   -7.4898    3.5940 C   0  0  0  0  0  0  0  0  0  0  0  0
   -0.4754   -9.4874    2.7427 C   0  0  0  0  0  0  0  0  0  0  0  0
    0.6701  -10.4952    2.7919 C   0  0  0  0  0  0  0  0  0  0  0  0
    1.4573  -10.5333    4.1195 C   0  0  0  0  0  0  0  0  0  0  0  0
    1.7128   -9.1879    4.8886 C   0  0  2  0  0  0  0  0  0  0  0  0
    1.9570   -9.6923    6.3441 C   0  0  0  0  0  0  0  0  0  0  0  0
    0.3642   -8.4228    4.8489 C   0  0  1  0  0  0  0  0  0  0  0  0
    0.3669   -7.2463    5.8411 C   0  0  0  0  0  0  0  0  0  0  0  0
    1.4925   -6.3257    5.5268 C   0  0  0  0  0  0  0  0  0  0  0  0
    2.6200   -6.7044    4.8829 C   0  0  0  0  0  0  0  0  0  0  0  0
    2.9409   -8.2079    4.5687 C   0  0  2  0  0  0  0  0  0  0  0  0
    3.8524   -8.3877    3.2911 C   0  0  1  0  0  0  0  0  0  0  0  0
    4.1185   -9.8193    2.7647 C   0  0  0  0  0  0  0  0  0  0  0  0
    5.1848   -8.1475    3.7109 O   0  0  0  0  0  0  0  0  0  0  0  0
    3.5460   -5.6263    4.2960 C   0  0  0  0  0  0  0  0  0  0  0  0
    3.0057   -4.1740    4.4138 C   0  0  0  0  0  0  0  0  0  0  0  0
    4.9068   -5.6115    5.0425 C   0  0  0  0  0  0  0  0  0  0  0  0
    3.6660   -5.8742    2.7645 C   0  0  0  0  0  0  0  0  0  0  0  0
    6.2398   -4.4857   -0.7284 H   0  0  0  0  0  0  0  0  0  0  0  0
    6.0683   -3.8348    0.8969 H   0  0  0  0  0  0  0  0  0  0  0  0
    4.7816   -4.8030    0.1982 H   0  0  0  0  0  0  0  0  0  0  0  0
    8.5626   -5.4950    0.2337 H   0  0  0  0  0  0  0  0  0  0  0  0
    8.4628   -6.6456    1.5697 H   0  0  0  0  0  0  0  0  0  0  0  0
    8.1581   -4.9386    1.8606 H   0  0  0  0  0  0  0  0  0  0  0  0
    6.5022   -7.8970    1.5348 H   0  0  0  0  0  0  0  0  0  0  0  0
    4.0415   -6.8113    0.1143 H   0  0  0  0  0  0  0  0  0  0  0  0
    4.3692   -8.4433    0.4900 H   0  0  0  0  0  0  0  0  0  0  0  0
    1.9726   -6.9711    0.7620 H   0  0  0  0  0  0  0  0  0  0  0  0
    1.9055   -8.5598    1.2806 H   0  0  0  0  0  0  0  0  0  0  0  0
    0.8886   -6.2113    3.0061 H   0  0  0  0  0  0  0  0  0  0  0  0
   -0.4160   -7.4353    0.9072 H   0  0  0  0  0  0  0  0  0  0  0  0
   -2.1501   -8.0158    4.3709 H   0  0  0  0  0  0  0  0  0  0  0  0
   -2.2049   -7.5522    2.6935 H   0  0  0  0  0  0  0  0  0  0  0  0
   -1.5401   -6.4404    3.8800 H   0  0  0  0  0  0  0  0  0  0  0  0
   -1.3085   -9.9450    3.2765 H   0  0  0  0  0  0  0  0  0  0  0  0
   -0.8314   -9.3678    1.7196 H   0  0  0  0  0  0  0  0  0  0  0  0
    0.2492  -11.4878    2.6299 H   0  0  0  0  0  0  0  0  0  0  0  0
    1.2995  -10.3618    1.9317 H   0  0  0  0  0  0  0  0  0  0  0  0
    0.8295  -11.1590    4.7613 H   0  0  0  0  0  0  0  0  0  0  0  0
    2.3486  -11.1433    4.0249 H   0  0  0  0  0  0  0  0  0  0  0  0
    2.2150   -8.8873    7.0353 H   0  0  0  0  0  0  0  0  0  0  0  0
    2.7831  -10.4065    6.3796 H   0  0  0  0  0  0  0  0  0  0  0  0
    1.0789  -10.1987    6.7555 H   0  0  0  0  0  0  0  0  0  0  0  0
   -0.3709   -9.1083    5.2799 H   0  0  0  0  0  0  0  0  0  0  0  0
   -0.5595   -6.6789    5.8071 H   0  0  0  0  0  0  0  0  0  0  0  0
    0.4630   -7.5808    6.8726 H   0  0  0  0  0  0  0  0  0  0  0  0
    1.2729   -5.2973    5.7542 H   0  0  0  0  0  0  0  0  0  0  0  0
    3.6373   -8.4306    5.3722 H   0  0  0  0  0  0  0  0  0  0  0  0
    3.3175  -10.2284    2.1668 H   0  0  0  0  0  0  0  0  0  0  0  0
    4.3415  -10.5159    3.5740 H   0  0  0  0  0  0  0  0  0  0  0  0
    4.9861   -9.8633    2.1044 H   0  0  0  0  0  0  0  0  0  0  0  0
    5.4384   -8.8440    4.2971 H   0  0  0  0  0  0  0  0  0  0  0  0
    3.6800   -3.4794    3.9103 H   0  0  0  0  0  0  0  0  0  0  0  0
    2.9327   -3.8469    5.4512 H   0  0  0  0  0  0  0  0  0  0  0  0
    2.0239   -4.0572    3.9514 H   0  0  0  0  0  0  0  0  0  0  0  0
    5.7379   -5.4045    4.3653 H   0  0  0  0  0  0  0  0  0  0  0  0
    5.1143   -6.5542    5.5487 H   0  0  0  0  0  0  0  0  0  0  0  0
    4.9336   -4.8554    5.8287 H   0  0  0  0  0  0  0  0  0  0  0  0
    4.6196   -5.4366    2.4966 H   0  0  0  0  0  0  0  0  0  0  0  0
    2.9543   -5.2525    2.2223 H   0  0  0  0  0  0  0  0  0  0  0  0
  1  2  1  0
  1 29  1  0
  1 30  1  0
  1 31  1  0
  2  3  1  0
  2  4  2  3
  3 32  1  0
  3 33  1  0
  3 34  1  0
  4  5  1  0
  4 35  1  0
  6  5  1  6
  5 36  1  0
  5 37  1  0
  6 22  1  0
  6 28  1  0
  6  7  1  0
  7  8  1  0
  7 38  1  0
  7 39  1  0
  8  9  1  0
  8 10  1  0
  8 40  1  1
  9 41  1  0
 10 17  1  0
 10 11  1  1
 10 12  1  0
 11 42  1  0
 11 43  1  0
 11 44  1  0
 12 13  1  0
 12 45  1  0
 12 46  1  0
 13 14  1  0
 13 47  1  0
 13 48  1  0
 14 15  1  0
 14 49  1  0
 14 50  1  0
 15 21  1  0
 15 16  1  1
 15 17  1  0
 16 51  1  0
 16 52  1  0
 16 53  1  0
 17 18  1  0
 17 54  1  1
 18 19  1  0
 18 55  1  0
 18 56  1  0
 19 20  2  0
 19 57  1  0
 20 21  1  0
 20 25  1  0
 21 22  1  0
 21 58  1  1
 22 23  1  0
 22 24  1  1
 23 59  1  0
 23 60  1  0
 23 61  1  0
 24 62  1  0
 25 26  1  0
 25 27  1  0
 25 28  1  0
 26 63  1  0
 26 64  1  0
 26 65  1  0
 27 66  1  0
 27 67  1  0
 27 68  1  0
 28 69  1  0
 28 70  1  0
M  END
>  <i_m_ct_stereo_status>  (84) 
1

>  <s_m_source_file>  (84) 
/var/tmp/pbs.5076255.sched01/tmpkni74bsw/0nq93mkxh.sdf

>  <i_m_source_file_index>  (84) 
37

>  <i_lp_mmshare_version>  (84) 
48012

>  <i_f3d_flags>  (84) 
0

>  <s_epik_input>  (84) 
W0NIM11DKFtDSDNdKT1bQ0hdW0NIMl1bQ0BAXTEyW0NIMl1bQ0BASF0oW09IXSlbQ0BdMyhbQ0gzXSlbQ0hdNFtDQEBdKFtDSDNdKShbQ0gyXVtDSDJdW0NIMl0zKVtDQEBIXShbQ0BdMShbQ0gzXSlbT0hdKUMoPVtDSF1bQ0gyXTQpQyhbQ0gzXSkoW0NIM10pW0NIMl0y

>  <s_epik_cmdline>  (84) 
J2VwaWtfcHl0aG9uJywgJy1waHQnLCAnMi4wJywgJy1waCcsICc3LjAnLCAnLXRuJywgJzgnLCAnLW1hJywgJzIwMCcsICctaW1hZScsICc8aW5maWxlLm1hZT4nLCAnLW9tYWUnLCAnPG91dGZpbGUubWFlPic=

>  <r_lp_tautomer_probability>  (84) 
1

>  <r_epik_Ionization_Penalty>  (84) 
2.18976e-06

>  <r_epik_Ionization_Penalty_Charging>  (84) 
0

>  <r_epik_Ionization_Penalty_Neutral>  (84) 
2.18976e-06

>  <r_epik_State_Penalty>  (84) 
-0

>  <r_epik_Charging_Adjusted_Penalty>  (84) 
0

>  <i_epik_Tot_Q>  (84) 
0

>  <i_epik_Tot_abs_Q>  (84) 
0

>  <s_lp_Force_Field>  (84) 
OPLS3e

>  <r_lp_Energy>  (84) 
108.662

>  <b_lp_Chiralities_Consistent>  (84) 
1

>  <s_lp_Variant>  (84) 
25:0-1

>  <s_i_glide_gridfile>  (84) 
pfpi4k_grid

>  <i_i_glide_lignum>  (84) 
37

>  <i_i_glide_rotatable_bonds>  (84) 
4

>  <r_i_docking_score>  (84) 
-3.10122

>  <r_i_glide_ligand_efficiency>  (84) 
-0.110758

>  <r_i_glide_ligand_efficiency_sa>  (84) 
-0.336326

>  <r_i_glide_ligand_efficiency_ln>  (84) 
-0.715853

>  <r_i_glide_gscore>  (84) 
-3.10122

>  <r_i_glide_lipo>  (84) 
-0.523879

>  <r_i_glide_hbond>  (84) 
-0.218126

>  <r_i_glide_metal>  (84) 
-0

>  <r_i_glide_rewards>  (84) 
-0.77311

>  <r_i_glide_evdw>  (84) 
-22.2483

>  <r_i_glide_ecoul>  (84) 
-4.89434

>  <r_i_glide_erotb>  (84) 
0.26046

>  <r_i_glide_esite>  (84) 
0

>  <r_i_glide_emodel>  (84) 
-30.9292

>  <r_i_glide_energy>  (84) 
-27.1427

>  <r_i_glide_einternal>  (84) 
3.58841

>  <r_i_glide_intrahb_reward>  (84) 
-0

>  <i_i_glide_confnum>  (84) 
4

>  <i_i_glide_posenum>  (84) 
6

>  <r_i_glide_eff_state_penalty>  (84) 
0

>  <ligand_id>  (84) 
25

>  <original_smiles>  (84) 
CC(C)=CCC12CC(O)C3(C)CCCC4(C)C3CC=C(C4C1(C)O)C(C)(C)C2

>  <smiles>  (84) 
[H]OC1([H])C([H])([H])C2(C([H])([H])C([H])=C(C([H])([H])[H])C([H])([H])[H])C([H])([H])C(C([H])([H])[H])(C([H])([H])[H])C3=C([H])C([H])([H])C4([H])C1(C([H])([H])[H])C([H])([H])C([H])([H])C([H])([H])C4(C([H])([H])[H])C3([H])C2(O[H])C([H])([H])[H]

$$$$
25:0:1
     RDKit          3D

 70 73  0  0  1  0  0  0  0  0999 V2000
    2.7507   -2.5040   -3.9249 C   0  0  0  0  0  0  0  0  0  0  0  0
    3.6104   -1.8406   -2.8627 C   0  0  0  0  0  0  0  0  0  0  0  0
    4.0183   -0.4150   -3.1983 C   0  0  0  0  0  0  0  0  0  0  0  0
    3.9986   -2.4097   -1.7165 C   0  0  0  0  0  0  0  0  0  0  0  0
    3.6374   -3.7995   -1.1712 C   0  0  0  0  0  0  0  0  0  0  0  0
    3.4957   -3.9477    0.3955 C   0  0  1  0  0  0  0  0  0  0  0  0
    2.6455   -5.2786    0.6445 C   0  0  0  0  0  0  0  0  0  0  0  0
    1.8811   -5.6478    1.9866 C   0  0  1  0  0  0  0  0  0  0  0  0
    0.6660   -6.2551    1.5236 O   0  0  0  0  0  0  0  0  0  0  0  0
    2.4732   -6.5961    3.1414 C   0  0  1  0  0  0  0  0  0  0  0  0
    1.2921   -7.0752    4.0406 C   0  0  0  0  0  0  0  0  0  0  0  0
    3.0983   -7.9145    2.6068 C   0  0  0  0  0  0  0  0  0  0  0  0
    4.5039   -7.7919    2.0249 C   0  0  0  0  0  0  0  0  0  0  0  0
    5.4497   -6.8592    2.8138 C   0  0  0  0  0  0  0  0  0  0  0  0
    4.8733   -5.5535    3.4662 C   0  0  2  0  0  0  0  0  0  0  0  0
    5.9155   -5.2633    4.5886 C   0  0  0  0  0  0  0  0  0  0  0  0
    3.5393   -5.9708    4.1351 C   0  0  1  0  0  0  0  0  0  0  0  0
    3.0278   -4.8750    5.0872 C   0  0  0  0  0  0  0  0  0  0  0  0
    2.8508   -3.6030    4.3479 C   0  0  0  0  0  0  0  0  0  0  0  0
    3.5339   -3.2924    3.2093 C   0  0  0  0  0  0  0  0  0  0  0  0
    4.7127   -4.1713    2.6756 C   0  0  2  0  0  0  0  0  0  0  0  0
    4.8831   -4.0806    1.1133 C   0  0  1  0  0  0  0  0  0  0  0  0
    5.9135   -5.0080    0.4334 C   0  0  0  0  0  0  0  0  0  0  0  0
    5.5992   -2.8883    0.8624 O   0  0  0  0  0  0  0  0  0  0  0  0
    3.0332   -2.1236    2.3403 C   0  0  0  0  0  0  0  0  0  0  0  0
    1.6889   -1.5008    2.8091 C   0  0  0  0  0  0  0  0  0  0  0  0
    4.0533   -0.9666    2.3446 C   0  0  0  0  0  0  0  0  0  0  0  0
    2.7379   -2.6685    0.9179 C   0  0  0  0  0  0  0  0  0  0  0  0
    3.3740   -2.6562   -4.7974 H   0  0  0  0  0  0  0  0  0  0  0  0
    1.9128   -1.8703   -4.2126 H   0  0  0  0  0  0  0  0  0  0  0  0
    2.3555   -3.4740   -3.6333 H   0  0  0  0  0  0  0  0  0  0  0  0
    4.6067   -0.3927   -4.1117 H   0  0  0  0  0  0  0  0  0  0  0  0
    4.6087    0.0321   -2.3975 H   0  0  0  0  0  0  0  0  0  0  0  0
    3.1359    0.2093   -3.3389 H   0  0  0  0  0  0  0  0  0  0  0  0
    4.6524   -1.8142   -1.1044 H   0  0  0  0  0  0  0  0  0  0  0  0
    2.6823   -4.0680   -1.6191 H   0  0  0  0  0  0  0  0  0  0  0  0
    4.3380   -4.5233   -1.5937 H   0  0  0  0  0  0  0  0  0  0  0  0
    1.8506   -5.2271   -0.1061 H   0  0  0  0  0  0  0  0  0  0  0  0
    3.1968   -6.1333    0.2763 H   0  0  0  0  0  0  0  0  0  0  0  0
    1.5060   -4.7345    2.4398 H   0  0  0  0  0  0  0  0  0  0  0  0
    0.8550   -7.1556    1.3028 H   0  0  0  0  0  0  0  0  0  0  0  0
    1.6491   -7.5486    4.9525 H   0  0  0  0  0  0  0  0  0  0  0  0
    0.6667   -7.8208    3.5451 H   0  0  0  0  0  0  0  0  0  0  0  0
    0.6340   -6.2548    4.3344 H   0  0  0  0  0  0  0  0  0  0  0  0
    3.1743   -8.6139    3.4420 H   0  0  0  0  0  0  0  0  0  0  0  0
    2.4360   -8.3980    1.8898 H   0  0  0  0  0  0  0  0  0  0  0  0
    4.9440   -8.7860    2.0351 H   0  0  0  0  0  0  0  0  0  0  0  0
    4.4570   -7.5812    0.9657 H   0  0  0  0  0  0  0  0  0  0  0  0
    5.8004   -7.5000    3.6356 H   0  0  0  0  0  0  0  0  0  0  0  0
    6.3654   -6.6900    2.2683 H   0  0  0  0  0  0  0  0  0  0  0  0
    5.7168   -4.3333    5.1242 H   0  0  0  0  0  0  0  0  0  0  0  0
    6.9190   -5.1703    4.1712 H   0  0  0  0  0  0  0  0  0  0  0  0
    5.9525   -6.0590    5.3354 H   0  0  0  0  0  0  0  0  0  0  0  0
    3.7957   -6.7868    4.8158 H   0  0  0  0  0  0  0  0  0  0  0  0
    2.0799   -5.1424    5.5464 H   0  0  0  0  0  0  0  0  0  0  0  0
    3.7089   -4.7064    5.9180 H   0  0  0  0  0  0  0  0  0  0  0  0
    2.0467   -3.0009    4.7296 H   0  0  0  0  0  0  0  0  0  0  0  0
    5.5625   -3.5933    3.0235 H   0  0  0  0  0  0  0  0  0  0  0  0
    5.5452   -6.0079    0.2438 H   0  0  0  0  0  0  0  0  0  0  0  0
    6.8416   -5.0652    1.0091 H   0  0  0  0  0  0  0  0  0  0  0  0
    6.2199   -4.6399   -0.5489 H   0  0  0  0  0  0  0  0  0  0  0  0
    5.0271   -2.1773    1.0961 H   0  0  0  0  0  0  0  0  0  0  0  0
    1.3579   -0.7440    2.0929 H   0  0  0  0  0  0  0  0  0  0  0  0
    1.7757   -1.0016    3.7770 H   0  0  0  0  0  0  0  0  0  0  0  0
    0.8866   -2.2342    2.8805 H   0  0  0  0  0  0  0  0  0  0  0  0
    4.1008   -0.4678    1.3725 H   0  0  0  0  0  0  0  0  0  0  0  0
    5.0583   -1.2828    2.6177 H   0  0  0  0  0  0  0  0  0  0  0  0
    3.7857   -0.1950    3.0735 H   0  0  0  0  0  0  0  0  0  0  0  0
    2.7696   -1.7855    0.2543 H   0  0  0  0  0  0  0  0  0  0  0  0
    1.6990   -2.9199    0.8532 H   0  0  0  0  0  0  0  0  0  0  0  0
  1  2  1  0
  1 29  1  0
  1 30  1  0
  1 31  1  0
  2  3  1  0
  2  4  2  3
  3 32  1  0
  3 33  1  0
  3 34  1  0
  4  5  1  0
  4 35  1  0
  6  5  1  6
  5 36  1  0
  5 37  1  0
  6 22  1  0
  6 28  1  0
  6  7  1  0
  7  8  1  0
  7 38  1  0
  7 39  1  0
  8  9  1  0
  8 10  1  0
  8 40  1  1
  9 41  1  0
 10 17  1  0
 10 11  1  1
 10 12  1  0
 11 42  1  0
 11 43  1  0
 11 44  1  0
 12 13  1  0
 12 45  1  0
 12 46  1  0
 13 14  1  0
 13 47  1  0
 13 48  1  0
 14 15  1  0
 14 49  1  0
 14 50  1  0
 15 21  1  0
 15 16  1  1
 15 17  1  0
 16 51  1  0
 16 52  1  0
 16 53  1  0
 17 18  1  0
 17 54  1  1
 18 19  1  0
 18 55  1  0
 18 56  1  0
 19 20  2  0
 19 57  1  0
 20 21  1  0
 20 25  1  0
 21 22  1  0
 21 58  1  1
 22 23  1  0
 22 24  1  1
 23 59  1  0
 23 60  1  0
 23 61  1  0
 24 62  1  0
 25 26  1  0
 25 27  1  0
 25 28  1  0
 26 63  1  0
 26 64  1  0
 26 65  1  0
 27 66  1  0
 27 67  1  0
 27 68  1  0
 28 69  1  0
 28 70  1  0
M  END
>  <i_m_ct_stereo_status>  (85) 
1

>  <s_m_source_file>  (85) 
/var/tmp/pbs.5076255.sched01/tmpkni74bsw/0nq93mkxh.sdf

>  <i_m_source_file_index>  (85) 
37

>  <i_lp_mmshare_version>  (85) 
48012

>  <i_f3d_flags>  (85) 
0

>  <s_epik_input>  (85) 
W0NIM11DKFtDSDNdKT1bQ0hdW0NIMl1bQ0BAXTEyW0NIMl1bQ0BASF0oW09IXSlbQ0BdMyhbQ0gzXSlbQ0hdNFtDQEBdKFtDSDNdKShbQ0gyXVtDSDJdW0NIMl0zKVtDQEBIXShbQ0BdMShbQ0gzXSlbT0hdKUMoPVtDSF1bQ0gyXTQpQyhbQ0gzXSkoW0NIM10pW0NIMl0y

>  <s_epik_cmdline>  (85) 
J2VwaWtfcHl0aG9uJywgJy1waHQnLCAnMi4wJywgJy1waCcsICc3LjAnLCAnLXRuJywgJzgnLCAnLW1hJywgJzIwMCcsICctaW1hZScsICc8aW5maWxlLm1hZT4nLCAnLW9tYWUnLCAnPG91dGZpbGUubWFlPic=

>  <r_lp_tautomer_probability>  (85) 
1

>  <r_epik_Ionization_Penalty>  (85) 
2.18976e-06

>  <r_epik_Ionization_Penalty_Charging>  (85) 
0

>  <r_epik_Ionization_Penalty_Neutral>  (85) 
2.18976e-06

>  <r_epik_State_Penalty>  (85) 
-0

>  <r_epik_Charging_Adjusted_Penalty>  (85) 
0

>  <i_epik_Tot_Q>  (85) 
0

>  <i_epik_Tot_abs_Q>  (85) 
0

>  <s_lp_Force_Field>  (85) 
OPLS3e

>  <r_lp_Energy>  (85) 
108.662

>  <b_lp_Chiralities_Consistent>  (85) 
1

>  <s_lp_Variant>  (85) 
25:0-1

>  <s_i_glide_gridfile>  (85) 
pfpi4k_grid

>  <i_i_glide_lignum>  (85) 
37

>  <i_i_glide_rotatable_bonds>  (85) 
4

>  <r_i_docking_score>  (85) 
-2.94237

>  <r_i_glide_ligand_efficiency>  (85) 
-0.105085

>  <r_i_glide_ligand_efficiency_sa>  (85) 
-0.319099

>  <r_i_glide_ligand_efficiency_ln>  (85) 
-0.679186

>  <r_i_glide_gscore>  (85) 
-2.94237

>  <r_i_glide_lipo>  (85) 
-0.567456

>  <r_i_glide_hbond>  (85) 
-0.16

>  <r_i_glide_metal>  (85) 
-0

>  <r_i_glide_rewards>  (85) 
-0.77311

>  <r_i_glide_evdw>  (85) 
-20.1222

>  <r_i_glide_ecoul>  (85) 
-4.64104

>  <r_i_glide_erotb>  (85) 
0.26046

>  <r_i_glide_esite>  (85) 
0

>  <r_i_glide_emodel>  (85) 
-27.156

>  <r_i_glide_energy>  (85) 
-24.7633

>  <r_i_glide_einternal>  (85) 
5.23707

>  <r_i_glide_intrahb_reward>  (85) 
-0

>  <i_i_glide_confnum>  (85) 
4

>  <i_i_glide_posenum>  (85) 
19

>  <r_i_glide_eff_state_penalty>  (85) 
0

>  <ligand_id>  (85) 
25

>  <original_smiles>  (85) 
CC(C)=CCC12CC(O)C3(C)CCCC4(C)C3CC=C(C4C1(C)O)C(C)(C)C2

>  <smiles>  (85) 
[H]OC1([H])C([H])([H])C2(C([H])([H])C([H])=C(C([H])([H])[H])C([H])([H])[H])C([H])([H])C(C([H])([H])[H])(C([H])([H])[H])C3=C([H])C([H])([H])C4([H])C1(C([H])([H])[H])C([H])([H])C([H])([H])C([H])([H])C4(C([H])([H])[H])C3([H])C2(O[H])C([H])([H])[H]

$$$$
25:0:2
     RDKit          3D

 70 73  0  0  1  0  0  0  0  0999 V2000
    4.4810   -4.1371   -3.7076 C   0  0  0  0  0  0  0  0  0  0  0  0
    3.6709   -3.2292   -2.7985 C   0  0  0  0  0  0  0  0  0  0  0  0
    2.7613   -2.2655   -3.5410 C   0  0  0  0  0  0  0  0  0  0  0  0
    3.7232   -3.2302   -1.4541 C   0  0  0  0  0  0  0  0  0  0  0  0
    4.5921   -4.1066   -0.5390 C   0  0  0  0  0  0  0  0  0  0  0  0
    3.9743   -4.5398    0.8487 C   0  0  1  0  0  0  0  0  0  0  0  0
    2.8831   -5.6422    0.5425 C   0  0  0  0  0  0  0  0  0  0  0  0
    1.7498   -6.0775    1.5607 C   0  0  1  0  0  0  0  0  0  0  0  0
    0.6135   -6.2734    0.7234 O   0  0  0  0  0  0  0  0  0  0  0  0
    1.8367   -7.3586    2.5278 C   0  0  1  0  0  0  0  0  0  0  0  0
    0.3897   -7.7227    2.9924 C   0  0  0  0  0  0  0  0  0  0  0  0
    2.3371   -8.6419    1.8170 C   0  0  0  0  0  0  0  0  0  0  0  0
    3.8461   -8.7429    1.5953 C   0  0  0  0  0  0  0  0  0  0  0  0
    4.7017   -8.2430    2.7817 C   0  0  0  0  0  0  0  0  0  0  0  0
    4.2127   -7.0054    3.6194 C   0  0  2  0  0  0  0  0  0  0  0  0
    4.9533   -7.2198    4.9779 C   0  0  0  0  0  0  0  0  0  0  0  0
    2.6930   -7.2269    3.8497 C   0  0  1  0  0  0  0  0  0  0  0  0
    2.1524   -6.2675    4.9258 C   0  0  0  0  0  0  0  0  0  0  0  0
    2.4183   -4.8577    4.5195 C   0  0  0  0  0  0  0  0  0  0  0  0
    3.4134   -4.4857    3.6842 C   0  0  0  0  0  0  0  0  0  0  0  0
    4.5206   -5.4860    3.1974 C   0  0  2  0  0  0  0  0  0  0  0  0
    5.0951   -5.1130    1.7722 C   0  0  1  0  0  0  0  0  0  0  0  0
    6.0871   -6.0932    1.1009 C   0  0  0  0  0  0  0  0  0  0  0  0
    6.0468   -4.0768    1.9607 O   0  0  0  0  0  0  0  0  0  0  0  0
    3.3857   -3.0837    3.0532 C   0  0  0  0  0  0  0  0  0  0  0  0
    2.1035   -2.2604    3.3751 C   0  0  0  0  0  0  0  0  0  0  0  0
    4.5677   -2.2288    3.5908 C   0  0  0  0  0  0  0  0  0  0  0  0
    3.3815   -3.2441    1.5016 C   0  0  0  0  0  0  0  0  0  0  0  0
    5.1859   -3.5568   -4.2963 H   0  0  0  0  0  0  0  0  0  0  0  0
    3.8082   -4.6562   -4.3837 H   0  0  0  0  0  0  0  0  0  0  0  0
    5.0158   -4.9051   -3.1637 H   0  0  0  0  0  0  0  0  0  0  0  0
    3.3413   -1.6390   -4.2162 H   0  0  0  0  0  0  0  0  0  0  0  0
    2.2251   -1.6132   -2.8505 H   0  0  0  0  0  0  0  0  0  0  0  0
    2.0234   -2.8143   -4.1258 H   0  0  0  0  0  0  0  0  0  0  0  0
    3.0960   -2.5047   -0.9559 H   0  0  0  0  0  0  0  0  0  0  0  0
    4.9339   -4.9913   -1.0701 H   0  0  0  0  0  0  0  0  0  0  0  0
    5.4807   -3.4995   -0.3689 H   0  0  0  0  0  0  0  0  0  0  0  0
    2.3533   -5.2354   -0.3196 H   0  0  0  0  0  0  0  0  0  0  0  0
    3.3625   -6.5067    0.1026 H   0  0  0  0  0  0  0  0  0  0  0  0
    1.4538   -5.2086    2.1392 H   0  0  0  0  0  0  0  0  0  0  0  0
    0.6334   -7.1747    0.4334 H   0  0  0  0  0  0  0  0  0  0  0  0
    0.3974   -8.4527    3.8062 H   0  0  0  0  0  0  0  0  0  0  0  0
   -0.2031   -8.1769    2.1968 H   0  0  0  0  0  0  0  0  0  0  0  0
   -0.1644   -6.8515    3.3425 H   0  0  0  0  0  0  0  0  0  0  0  0
    2.0606   -9.5049    2.4243 H   0  0  0  0  0  0  0  0  0  0  0  0
    1.8136   -8.7960    0.8779 H   0  0  0  0  0  0  0  0  0  0  0  0
    4.0800   -9.7985    1.4413 H   0  0  0  0  0  0  0  0  0  0  0  0
    4.1203   -8.3180    0.6437 H   0  0  0  0  0  0  0  0  0  0  0  0
    4.6934   -9.1030    3.4544 H   0  0  0  0  0  0  0  0  0  0  0  0
    5.7518   -8.1869    2.5119 H   0  0  0  0  0  0  0  0  0  0  0  0
    4.7818   -6.4096    5.6886 H   0  0  0  0  0  0  0  0  0  0  0  0
    6.0340   -7.2774    4.8330 H   0  0  0  0  0  0  0  0  0  0  0  0
    4.6459   -8.1443    5.4750 H   0  0  0  0  0  0  0  0  0  0  0  0
    2.6114   -8.2051    4.3309 H   0  0  0  0  0  0  0  0  0  0  0  0
    1.0839   -6.3916    5.0837 H   0  0  0  0  0  0  0  0  0  0  0  0
    2.5986   -6.4497    5.9028 H   0  0  0  0  0  0  0  0  0  0  0  0
    1.6636   -4.1729    4.8662 H   0  0  0  0  0  0  0  0  0  0  0  0
    5.3456   -5.2071    3.8505 H   0  0  0  0  0  0  0  0  0  0  0  0
    5.6058   -6.9280    0.6150 H   0  0  0  0  0  0  0  0  0  0  0  0
    6.8256   -6.4713    1.8104 H   0  0  0  0  0  0  0  0  0  0  0  0
    6.6680   -5.6221    0.3057 H   0  0  0  0  0  0  0  0  0  0  0  0
    6.7660   -4.4198    2.4646 H   0  0  0  0  0  0  0  0  0  0  0  0
    2.1111   -1.3108    2.8377 H   0  0  0  0  0  0  0  0  0  0  0  0
    2.0208   -2.0213    4.4359 H   0  0  0  0  0  0  0  0  0  0  0  0
    1.1908   -2.7828    3.0799 H   0  0  0  0  0  0  0  0  0  0  0  0
    4.9744   -1.5705    2.8207 H   0  0  0  0  0  0  0  0  0  0  0  0
    5.3863   -2.8425    3.9703 H   0  0  0  0  0  0  0  0  0  0  0  0
    4.2669   -1.5963    4.4272 H   0  0  0  0  0  0  0  0  0  0  0  0
    3.8801   -2.3647    1.0964 H   0  0  0  0  0  0  0  0  0  0  0  0
    2.3591   -3.1633    1.1335 H   0  0  0  0  0  0  0  0  0  0  0  0
  1  2  1  0
  1 29  1  0
  1 30  1  0
  1 31  1  0
  2  3  1  0
  2  4  2  3
  3 32  1  0
  3 33  1  0
  3 34  1  0
  4  5  1  0
  4 35  1  0
  6  5  1  6
  5 36  1  0
  5 37  1  0
  6 22  1  0
  6 28  1  0
  6  7  1  0
  7  8  1  0
  7 38  1  0
  7 39  1  0
  8  9  1  0
  8 10  1  0
  8 40  1  1
  9 41  1  0
 10 17  1  0
 10 11  1  1
 10 12  1  0
 11 42  1  0
 11 43  1  0
 11 44  1  0
 12 13  1  0
 12 45  1  0
 12 46  1  0
 13 14  1  0
 13 47  1  0
 13 48  1  0
 14 15  1  0
 14 49  1  0
 14 50  1  0
 15 21  1  0
 15 16  1  1
 15 17  1  0
 16 51  1  0
 16 52  1  0
 16 53  1  0
 17 18  1  0
 17 54  1  1
 18 19  1  0
 18 55  1  0
 18 56  1  0
 19 20  2  0
 19 57  1  0
 20 21  1  0
 20 25  1  0
 21 22  1  0
 21 58  1  1
 22 23  1  0
 22 24  1  1
 23 59  1  0
 23 60  1  0
 23 61  1  0
 24 62  1  0
 25 26  1  0
 25 27  1  0
 25 28  1  0
 26 63  1  0
 26 64  1  0
 26 65  1  0
 27 66  1  0
 27 67  1  0
 27 68  1  0
 28 69  1  0
 28 70  1  0
M  END
>  <i_m_ct_stereo_status>  (86) 
1

>  <s_m_source_file>  (86) 
/var/tmp/pbs.5076255.sched01/tmpkni74bsw/0nq93mkxh.sdf

>  <i_m_source_file_index>  (86) 
37

>  <i_lp_mmshare_version>  (86) 
48012

>  <i_f3d_flags>  (86) 
0

>  <s_epik_input>  (86) 
W0NIM11DKFtDSDNdKT1bQ0hdW0NIMl1bQ0BAXTEyW0NIMl1bQ0BASF0oW09IXSlbQ0BdMyhbQ0gzXSlbQ0hdNFtDQEBdKFtDSDNdKShbQ0gyXVtDSDJdW0NIMl0zKVtDQEBIXShbQ0BdMShbQ0gzXSlbT0hdKUMoPVtDSF1bQ0gyXTQpQyhbQ0gzXSkoW0NIM10pW0NIMl0y

>  <s_epik_cmdline>  (86) 
J2VwaWtfcHl0aG9uJywgJy1waHQnLCAnMi4wJywgJy1waCcsICc3LjAnLCAnLXRuJywgJzgnLCAnLW1hJywgJzIwMCcsICctaW1hZScsICc8aW5maWxlLm1hZT4nLCAnLW9tYWUnLCAnPG91dGZpbGUubWFlPic=

>  <r_lp_tautomer_probability>  (86) 
1

>  <r_epik_Ionization_Penalty>  (86) 
2.18976e-06

>  <r_epik_Ionization_Penalty_Charging>  (86) 
0

>  <r_epik_Ionization_Penalty_Neutral>  (86) 
2.18976e-06

>  <r_epik_State_Penalty>  (86) 
-0

>  <r_epik_Charging_Adjusted_Penalty>  (86) 
0

>  <i_epik_Tot_Q>  (86) 
0

>  <i_epik_Tot_abs_Q>  (86) 
0

>  <s_lp_Force_Field>  (86) 
OPLS3e

>  <r_lp_Energy>  (86) 
108.662

>  <b_lp_Chiralities_Consistent>  (86) 
1

>  <s_lp_Variant>  (86) 
25:0-1

>  <s_i_glide_gridfile>  (86) 
pfpi4k_grid

>  <i_i_glide_lignum>  (86) 
37

>  <i_i_glide_rotatable_bonds>  (86) 
4

>  <r_i_docking_score>  (86) 
-2.92882

>  <r_i_glide_ligand_efficiency>  (86) 
-0.104601

>  <r_i_glide_ligand_efficiency_sa>  (86) 
-0.31763

>  <r_i_glide_ligand_efficiency_ln>  (86) 
-0.676058

>  <r_i_glide_gscore>  (86) 
-2.92882

>  <r_i_glide_lipo>  (86) 
-0.389894

>  <r_i_glide_hbond>  (86) 
-0.16

>  <r_i_glide_metal>  (86) 
-0

>  <r_i_glide_rewards>  (86) 
-0.77311

>  <r_i_glide_evdw>  (86) 
-21.7271

>  <r_i_glide_ecoul>  (86) 
-5.19949

>  <r_i_glide_erotb>  (86) 
0.26046

>  <r_i_glide_esite>  (86) 
0

>  <r_i_glide_emodel>  (86) 
-31.3029

>  <r_i_glide_energy>  (86) 
-26.9266

>  <r_i_glide_einternal>  (86) 
1.37434

>  <r_i_glide_intrahb_reward>  (86) 
-0

>  <i_i_glide_confnum>  (86) 
4

>  <i_i_glide_posenum>  (86) 
18

>  <r_i_glide_eff_state_penalty>  (86) 
0

>  <ligand_id>  (86) 
25

>  <original_smiles>  (86) 
CC(C)=CCC12CC(O)C3(C)CCCC4(C)C3CC=C(C4C1(C)O)C(C)(C)C2

>  <smiles>  (86) 
[H]OC1([H])C([H])([H])C2(C([H])([H])C([H])=C(C([H])([H])[H])C([H])([H])[H])C([H])([H])C(C([H])([H])[H])(C([H])([H])[H])C3=C([H])C([H])([H])C4([H])C1(C([H])([H])[H])C([H])([H])C([H])([H])C([H])([H])C4(C([H])([H])[H])C3([H])C2(O[H])C([H])([H])[H]

$$$$
27:0:0
     RDKit          3D

 57 61  0  0  1  0  0  0  0  0999 V2000
    0.1906   -8.9342    5.6722 C   0  0  0  0  0  0  0  0  0  0  0  0
    0.2601   -7.8998    4.5203 C   0  0  1  0  0  0  0  0  0  0  0  0
    0.4293   -6.5125    5.1904 C   0  0  0  0  0  0  0  0  0  0  0  0
    1.0359   -5.4071    4.3223 C   0  0  0  0  0  0  0  0  0  0  0  0
    2.3047   -5.8908    3.5883 C   0  0  2  0  0  0  0  0  0  0  0  0
    3.1831   -4.7295    3.0102 C   0  0  2  0  0  0  0  0  0  0  0  0
    2.4779   -3.4278    2.5899 C   0  0  0  0  0  0  0  0  0  0  0  0
    3.4969   -2.2991    2.3540 C   0  0  0  0  0  0  0  0  0  0  0  0
    4.8252   -2.7203    1.7212 C   0  0  0  0  0  0  0  0  0  0  0  0
    5.7357   -1.7042    1.3593 C   0  0  0  0  0  0  0  0  0  0  0  0
    6.9881   -2.0367    0.8149 C   0  0  0  0  0  0  0  0  0  0  0  0
    7.8747   -1.0584    0.4772 O   0  0  0  0  0  0  0  0  0  0  0  0
    7.3362   -3.3887    0.6396 C   0  0  0  0  0  0  0  0  0  0  0  0
    6.4352   -4.4088    0.9965 C   0  0  0  0  0  0  0  0  0  0  0  0
    5.1664   -4.0853    1.5381 C   0  0  0  0  0  0  0  0  0  0  0  0
    4.1190   -5.1629    1.8604 C   0  0  1  0  0  0  0  0  0  0  0  0
    4.5854   -6.6212    2.0260 C   0  0  1  0  0  0  0  0  0  0  0  0
    5.2770   -6.8006    3.2503 O   0  0  0  0  0  0  0  0  0  0  0  0
    3.3692   -7.5739    1.9448 C   0  0  1  0  0  0  0  0  0  0  0  0
    3.8198   -8.8802    2.2608 O   0  0  0  0  0  0  0  0  0  0  0  0
    2.0250   -7.1018    2.6422 C   0  0  2  0  0  0  0  0  0  0  0  0
    1.0495   -6.6371    1.5173 C   0  0  0  0  0  0  0  0  0  0  0  0
    1.3992   -8.2658    3.5214 C   0  0  2  0  0  0  0  0  0  0  0  0
    0.7765   -9.4057    2.6756 C   0  0  0  0  0  0  0  0  0  0  0  0
   -0.7353   -9.1340    2.5724 C   0  0  0  0  0  0  0  0  0  0  0  0
   -0.9847   -8.1093    3.6608 C   0  0  0  0  0  0  0  0  0  0  0  0
   -2.0510   -7.5072    3.7966 O   0  0  0  0  0  0  0  0  0  0  0  0
    1.1405   -9.0022    6.2114 H   0  0  0  0  0  0  0  0  0  0  0  0
   -0.0554   -9.9373    5.3244 H   0  0  0  0  0  0  0  0  0  0  0  0
   -0.5757   -8.6661    6.4034 H   0  0  0  0  0  0  0  0  0  0  0  0
   -0.5236   -6.1618    5.5724 H   0  0  0  0  0  0  0  0  0  0  0  0
    1.0845   -6.6273    6.0641 H   0  0  0  0  0  0  0  0  0  0  0  0
    0.2933   -5.0058    3.6318 H   0  0  0  0  0  0  0  0  0  0  0  0
    1.2978   -4.5776    4.9837 H   0  0  0  0  0  0  0  0  0  0  0  0
    2.9229   -6.3092    4.3825 H   0  0  0  0  0  0  0  0  0  0  0  0
    3.8270   -4.4590    3.8447 H   0  0  0  0  0  0  0  0  0  0  0  0
    1.9408   -3.6043    1.6635 H   0  0  0  0  0  0  0  0  0  0  0  0
    1.7423   -3.0862    3.3215 H   0  0  0  0  0  0  0  0  0  0  0  0
    3.0384   -1.5023    1.7674 H   0  0  0  0  0  0  0  0  0  0  0  0
    3.7472   -1.8678    3.3218 H   0  0  0  0  0  0  0  0  0  0  0  0
    5.4651   -0.6693    1.5055 H   0  0  0  0  0  0  0  0  0  0  0  0
    7.7581   -0.2297    0.9340 H   0  0  0  0  0  0  0  0  0  0  0  0
    8.3063   -3.6469    0.2466 H   0  0  0  0  0  0  0  0  0  0  0  0
    6.7436   -5.4348    0.8534 H   0  0  0  0  0  0  0  0  0  0  0  0
    3.5371   -5.1734    0.9431 H   0  0  0  0  0  0  0  0  0  0  0  0
    5.2500   -6.9071    1.2098 H   0  0  0  0  0  0  0  0  0  0  0  0
    5.6316   -7.6776    3.2558 H   0  0  0  0  0  0  0  0  0  0  0  0
    3.1494   -7.6502    0.8824 H   0  0  0  0  0  0  0  0  0  0  0  0
    3.9032   -8.9617    3.1985 H   0  0  0  0  0  0  0  0  0  0  0  0
    0.8701   -7.4165    0.7736 H   0  0  0  0  0  0  0  0  0  0  0  0
    1.4477   -5.7858    0.9728 H   0  0  0  0  0  0  0  0  0  0  0  0
    0.0773   -6.3275    1.8951 H   0  0  0  0  0  0  0  0  0  0  0  0
    2.2057   -8.6776    4.1311 H   0  0  0  0  0  0  0  0  0  0  0  0
    1.2516   -9.5143    1.6963 H   0  0  0  0  0  0  0  0  0  0  0  0
    0.9320  -10.3559    3.1916 H   0  0  0  0  0  0  0  0  0  0  0  0
   -0.9969   -8.7033    1.6057 H   0  0  0  0  0  0  0  0  0  0  0  0
   -1.3225  -10.0411    2.7153 H   0  0  0  0  0  0  0  0  0  0  0  0
  2  1  1  1
  1 28  1  0
  1 29  1  0
  1 30  1  0
  2 23  1  0
  2 26  1  0
  2  3  1  0
  3  4  1  0
  3 31  1  0
  3 32  1  0
  4  5  1  0
  4 33  1  0
  4 34  1  0
  5 21  1  0
  5  6  1  0
  5 35  1  1
  6 16  1  0
  6  7  1  0
  6 36  1  1
  7  8  1  0
  7 37  1  0
  7 38  1  0
  8  9  1  0
  8 39  1  0
  8 40  1  0
  9 15  2  0
  9 10  1  0
 10 11  2  0
 10 41  1  0
 11 12  1  0
 11 13  1  0
 12 42  1  0
 13 14  2  0
 13 43  1  0
 14 15  1  0
 14 44  1  0
 15 16  1  0
 16 17  1  0
 16 45  1  6
 17 18  1  0
 17 19  1  0
 17 46  1  6
 18 47  1  0
 19 20  1  0
 19 21  1  0
 19 48  1  6
 20 49  1  0
 21 22  1  6
 21 23  1  0
 22 50  1  0
 22 51  1  0
 22 52  1  0
 23 24  1  0
 23 53  1  1
 24 25  1  0
 24 54  1  0
 24 55  1  0
 25 26  1  0
 25 56  1  0
 25 57  1  0
 26 27  2  0
M  END
>  <i_m_ct_stereo_status>  (87) 
1

>  <s_m_source_file>  (87) 
/var/tmp/pbs.5076255.sched01/tmpkni74bsw/0nq93mkxh.sdf

>  <i_m_source_file_index>  (87) 
39

>  <i_lp_mmshare_version>  (87) 
48012

>  <i_f3d_flags>  (87) 
0

>  <s_epik_input>  (87) 
Tz1DMVtDSDJdW0NIMl1bQ0BIXShbQ0BdMTJbQ0gzXSlbQ0BAXTMoW0NIM10pW0NASF0oW0NIMl1bQ0gyXTIpW0NASF00W0NASF0oW0NAQEhdKFtPSF0pW0NASF0zW09IXSljNWMoW0NIMl1bQ0gyXTQpW2NIXWMoW09IXSlbY0hdW2NIXTU=

>  <s_epik_cmdline>  (87) 
J2VwaWtfcHl0aG9uJywgJy1waHQnLCAnMi4wJywgJy1waCcsICc3LjAnLCAnLXRuJywgJzgnLCAnLW1hJywgJzIwMCcsICctaW1hZScsICc8aW5maWxlLm1hZT4nLCAnLW9tYWUnLCAnPG91dGZpbGUubWFlPic=

>  <r_lp_tautomer_probability>  (87) 
1

>  <r_epik_Ionization_Penalty>  (87) 
0.000120361

>  <r_epik_Ionization_Penalty_Charging>  (87) 
0

>  <r_epik_Ionization_Penalty_Neutral>  (87) 
0.000120361

>  <r_epik_State_Penalty>  (87) 
-0

>  <r_epik_Charging_Adjusted_Penalty>  (87) 
0

>  <i_epik_Tot_Q>  (87) 
0

>  <i_epik_Tot_abs_Q>  (87) 
0

>  <s_lp_Force_Field>  (87) 
OPLS3e

>  <r_lp_Energy>  (87) 
55.2876

>  <b_lp_Chiralities_Consistent>  (87) 
1

>  <s_lp_Variant>  (87) 
27:0-1

>  <s_i_glide_gridfile>  (87) 
pfpi4k_grid

>  <i_i_glide_lignum>  (87) 
39

>  <i_i_glide_rotatable_bonds>  (87) 
3

>  <r_i_docking_score>  (87) 
-4.24432

>  <r_i_glide_ligand_efficiency>  (87) 
-0.157197

>  <r_i_glide_ligand_efficiency_sa>  (87) 
-0.471591

>  <r_i_glide_ligand_efficiency_ln>  (87) 
-0.988007

>  <r_i_glide_gscore>  (87) 
-4.24432

>  <r_i_glide_lipo>  (87) 
-0.583036

>  <r_i_glide_hbond>  (87) 
-0.34879

>  <r_i_glide_metal>  (87) 
-0

>  <r_i_glide_rewards>  (87) 
-0.883078

>  <r_i_glide_evdw>  (87) 
-27.9463

>  <r_i_glide_ecoul>  (87) 
-6.44585

>  <r_i_glide_erotb>  (87) 
0

>  <r_i_glide_esite>  (87) 
-0.0652206

>  <r_i_glide_emodel>  (87) 
-43.9306

>  <r_i_glide_energy>  (87) 
-34.3922

>  <r_i_glide_einternal>  (87) 
0.966511

>  <r_i_glide_intrahb_reward>  (87) 
-0

>  <i_i_glide_confnum>  (87) 
2

>  <i_i_glide_posenum>  (87) 
36

>  <r_i_glide_eff_state_penalty>  (87) 
0

>  <ligand_id>  (87) 
27

>  <original_smiles>  (87) 
CC12CCC3C4CCc5cc(O)ccc5C4C(O)C(O)C3(C)C1CCC2=O

>  <smiles>  (87) 
[H]Oc1c([H])c([H])c2c(c1[H])C([H])([H])C([H])([H])C1([H])C2([H])C([H])(O[H])C([H])(O[H])C2(C([H])([H])[H])C1([H])C([H])([H])C([H])([H])C1(C([H])([H])[H])C(=O)C([H])([H])C([H])([H])C12[H]

$$$$
27:0:1
     RDKit          3D

 57 61  0  0  1  0  0  0  0  0999 V2000
    0.2912   -8.7809    5.7405 C   0  0  0  0  0  0  0  0  0  0  0  0
    0.4200   -7.9006    4.4714 C   0  0  1  0  0  0  0  0  0  0  0  0
    0.6414   -6.4483    4.9589 C   0  0  0  0  0  0  0  0  0  0  0  0
    1.2977   -5.4866    3.9668 C   0  0  0  0  0  0  0  0  0  0  0  0
    2.5496   -6.1095    3.3136 C   0  0  2  0  0  0  0  0  0  0  0  0
    3.4746   -5.0658    2.5997 C   0  0  2  0  0  0  0  0  0  0  0  0
    2.8241   -3.7998    2.0078 C   0  0  0  0  0  0  0  0  0  0  0  0
    3.8891   -2.7483    1.6447 C   0  0  0  0  0  0  0  0  0  0  0  0
    5.2018   -3.3006    1.0887 C   0  0  0  0  0  0  0  0  0  0  0  0
    6.1602   -2.3841    0.6135 C   0  0  0  0  0  0  0  0  0  0  0  0
    7.4117   -2.8297    0.1406 C   0  0  0  0  0  0  0  0  0  0  0  0
    8.3216   -1.9259   -0.3220 O   0  0  0  0  0  0  0  0  0  0  0  0
    7.7030   -4.2046    0.1599 C   0  0  0  0  0  0  0  0  0  0  0  0
    6.7508   -5.1282    0.6226 C   0  0  0  0  0  0  0  0  0  0  0  0
    5.4858   -4.6907    1.0881 C   0  0  0  0  0  0  0  0  0  0  0  0
    4.3916   -5.6743    1.5213 C   0  0  1  0  0  0  0  0  0  0  0  0
    4.8011   -7.1179    1.8690 C   0  0  1  0  0  0  0  0  0  0  0  0
    5.5016   -7.1629    3.0967 O   0  0  0  0  0  0  0  0  0  0  0  0
    3.5501   -8.0311    1.9048 C   0  0  1  0  0  0  0  0  0  0  0  0
    3.9593   -9.3004    2.3894 O   0  0  0  0  0  0  0  0  0  0  0  0
    2.2206   -7.4175    2.5244 C   0  0  2  0  0  0  0  0  0  0  0  0
    1.2644   -7.0472    1.3431 C   0  0  0  0  0  0  0  0  0  0  0  0
    1.5464   -8.4369    3.5398 C   0  0  2  0  0  0  0  0  0  0  0  0
    0.8791   -9.6495    2.8384 C   0  0  0  0  0  0  0  0  0  0  0  0
   -0.6192   -9.3288    2.6925 C   0  0  0  0  0  0  0  0  0  0  0  0
   -0.8351   -8.1613    3.6382 C   0  0  0  0  0  0  0  0  0  0  0  0
   -1.8748   -7.5010    3.6952 O   0  0  0  0  0  0  0  0  0  0  0  0
    1.2274   -8.8109    6.2971 H   0  0  0  0  0  0  0  0  0  0  0  0
    0.0108   -9.8119    5.5155 H   0  0  0  0  0  0  0  0  0  0  0  0
   -0.4725   -8.3926    6.4151 H   0  0  0  0  0  0  0  0  0  0  0  0
   -0.3022   -6.0109    5.2855 H   0  0  0  0  0  0  0  0  0  0  0  0
    1.2764   -6.4718    5.8507 H   0  0  0  0  0  0  0  0  0  0  0  0
    0.5769   -5.1533    3.2273 H   0  0  0  0  0  0  0  0  0  0  0  0
    1.5837   -4.5887    4.5164 H   0  0  0  0  0  0  0  0  0  0  0  0
    3.1461   -6.4490    4.1601 H   0  0  0  0  0  0  0  0  0  0  0  0
    4.1233   -4.7153    3.4048 H   0  0  0  0  0  0  0  0  0  0  0  0
    2.2750   -4.0691    1.1060 H   0  0  0  0  0  0  0  0  0  0  0  0
    2.1001   -3.3409    2.6813 H   0  0  0  0  0  0  0  0  0  0  0  0
    3.4640   -2.0182    0.9562 H   0  0  0  0  0  0  0  0  0  0  0  0
    4.1508   -2.2061    2.5559 H   0  0  0  0  0  0  0  0  0  0  0  0
    5.9367   -1.3295    0.6156 H   0  0  0  0  0  0  0  0  0  0  0  0
    9.1383   -2.2925   -0.6386 H   0  0  0  0  0  0  0  0  0  0  0  0
    8.6532   -4.5599   -0.2035 H   0  0  0  0  0  0  0  0  0  0  0  0
    7.0119   -6.1729    0.5988 H   0  0  0  0  0  0  0  0  0  0  0  0
    3.8159   -5.7780    0.6020 H   0  0  0  0  0  0  0  0  0  0  0  0
    5.4555   -7.5304    1.1043 H   0  0  0  0  0  0  0  0  0  0  0  0
    5.7122   -8.0720    3.2703 H   0  0  0  0  0  0  0  0  0  0  0  0
    3.3268   -8.2290    0.8616 H   0  0  0  0  0  0  0  0  0  0  0  0
    3.8231   -9.9514    1.7107 H   0  0  0  0  0  0  0  0  0  0  0  0
    1.0440   -7.9015    0.7066 H   0  0  0  0  0  0  0  0  0  0  0  0
    1.7021   -6.2896    0.6957 H   0  0  0  0  0  0  0  0  0  0  0  0
    0.3047   -6.6558    1.6730 H   0  0  0  0  0  0  0  0  0  0  0  0
    2.3385   -8.8029    4.1939 H   0  0  0  0  0  0  0  0  0  0  0  0
    1.3463   -9.8938    1.8821 H   0  0  0  0  0  0  0  0  0  0  0  0
    0.9941  -10.5314    3.4712 H   0  0  0  0  0  0  0  0  0  0  0  0
   -0.8649   -9.0159    1.6814 H   0  0  0  0  0  0  0  0  0  0  0  0
   -1.2430  -10.1841    2.9432 H   0  0  0  0  0  0  0  0  0  0  0  0
  2  1  1  1
  1 28  1  0
  1 29  1  0
  1 30  1  0
  2 23  1  0
  2 26  1  0
  2  3  1  0
  3  4  1  0
  3 31  1  0
  3 32  1  0
  4  5  1  0
  4 33  1  0
  4 34  1  0
  5 21  1  0
  5  6  1  0
  5 35  1  1
  6 16  1  0
  6  7  1  0
  6 36  1  1
  7  8  1  0
  7 37  1  0
  7 38  1  0
  8  9  1  0
  8 39  1  0
  8 40  1  0
  9 15  2  0
  9 10  1  0
 10 11  2  0
 10 41  1  0
 11 12  1  0
 11 13  1  0
 12 42  1  0
 13 14  2  0
 13 43  1  0
 14 15  1  0
 14 44  1  0
 15 16  1  0
 16 17  1  0
 16 45  1  6
 17 18  1  0
 17 19  1  0
 17 46  1  6
 18 47  1  0
 19 20  1  0
 19 21  1  0
 19 48  1  6
 20 49  1  0
 21 22  1  6
 21 23  1  0
 22 50  1  0
 22 51  1  0
 22 52  1  0
 23 24  1  0
 23 53  1  1
 24 25  1  0
 24 54  1  0
 24 55  1  0
 25 26  1  0
 25 56  1  0
 25 57  1  0
 26 27  2  0
M  END
>  <i_m_ct_stereo_status>  (88) 
1

>  <s_m_source_file>  (88) 
/var/tmp/pbs.5076255.sched01/tmpkni74bsw/0nq93mkxh.sdf

>  <i_m_source_file_index>  (88) 
39

>  <i_lp_mmshare_version>  (88) 
48012

>  <i_f3d_flags>  (88) 
0

>  <s_epik_input>  (88) 
Tz1DMVtDSDJdW0NIMl1bQ0BIXShbQ0BdMTJbQ0gzXSlbQ0BAXTMoW0NIM10pW0NASF0oW0NIMl1bQ0gyXTIpW0NASF00W0NASF0oW0NAQEhdKFtPSF0pW0NASF0zW09IXSljNWMoW0NIMl1bQ0gyXTQpW2NIXWMoW09IXSlbY0hdW2NIXTU=

>  <s_epik_cmdline>  (88) 
J2VwaWtfcHl0aG9uJywgJy1waHQnLCAnMi4wJywgJy1waCcsICc3LjAnLCAnLXRuJywgJzgnLCAnLW1hJywgJzIwMCcsICctaW1hZScsICc8aW5maWxlLm1hZT4nLCAnLW9tYWUnLCAnPG91dGZpbGUubWFlPic=

>  <r_lp_tautomer_probability>  (88) 
1

>  <r_epik_Ionization_Penalty>  (88) 
0.000120361

>  <r_epik_Ionization_Penalty_Charging>  (88) 
0

>  <r_epik_Ionization_Penalty_Neutral>  (88) 
0.000120361

>  <r_epik_State_Penalty>  (88) 
-0

>  <r_epik_Charging_Adjusted_Penalty>  (88) 
0

>  <i_epik_Tot_Q>  (88) 
0

>  <i_epik_Tot_abs_Q>  (88) 
0

>  <s_lp_Force_Field>  (88) 
OPLS3e

>  <r_lp_Energy>  (88) 
55.2876

>  <b_lp_Chiralities_Consistent>  (88) 
1

>  <s_lp_Variant>  (88) 
27:0-1

>  <s_i_glide_gridfile>  (88) 
pfpi4k_grid

>  <i_i_glide_lignum>  (88) 
39

>  <i_i_glide_rotatable_bonds>  (88) 
3

>  <r_i_docking_score>  (88) 
-3.99682

>  <r_i_glide_ligand_efficiency>  (88) 
-0.14803

>  <r_i_glide_ligand_efficiency_sa>  (88) 
-0.444091

>  <r_i_glide_ligand_efficiency_ln>  (88) 
-0.930393

>  <r_i_glide_gscore>  (88) 
-3.99682

>  <r_i_glide_lipo>  (88) 
-0.722207

>  <r_i_glide_hbond>  (88) 
-0.113998

>  <r_i_glide_metal>  (88) 
-0

>  <r_i_glide_rewards>  (88) 
-0.883078

>  <r_i_glide_evdw>  (88) 
-30.0116

>  <r_i_glide_ecoul>  (88) 
-4.77341

>  <r_i_glide_erotb>  (88) 
0

>  <r_i_glide_esite>  (88) 
-0.0609436

>  <r_i_glide_emodel>  (88) 
-43.4994

>  <r_i_glide_energy>  (88) 
-34.785

>  <r_i_glide_einternal>  (88) 
1.69193

>  <r_i_glide_intrahb_reward>  (88) 
-0

>  <i_i_glide_confnum>  (88) 
2

>  <i_i_glide_posenum>  (88) 
14

>  <r_i_glide_eff_state_penalty>  (88) 
0

>  <ligand_id>  (88) 
27

>  <original_smiles>  (88) 
CC12CCC3C4CCc5cc(O)ccc5C4C(O)C(O)C3(C)C1CCC2=O

>  <smiles>  (88) 
[H]Oc1c([H])c([H])c2c(c1[H])C([H])([H])C([H])([H])C1([H])C2([H])C([H])(O[H])C([H])(O[H])C2(C([H])([H])[H])C1([H])C([H])([H])C([H])([H])C1(C([H])([H])[H])C(=O)C([H])([H])C([H])([H])C12[H]

$$$$
27:0:2
     RDKit          3D

 57 61  0  0  1  0  0  0  0  0999 V2000
    0.4216   -8.7152    5.7438 C   0  0  0  0  0  0  0  0  0  0  0  0
    0.5419   -7.8259    4.4803 C   0  0  1  0  0  0  0  0  0  0  0  0
    0.7719   -6.3765    4.9766 C   0  0  0  0  0  0  0  0  0  0  0  0
    1.4240   -5.4098    3.9866 C   0  0  0  0  0  0  0  0  0  0  0  0
    2.6683   -6.0334    3.3203 C   0  0  2  0  0  0  0  0  0  0  0  0
    3.5954   -4.9900    2.6077 C   0  0  2  0  0  0  0  0  0  0  0  0
    2.9476   -3.7153    2.0328 C   0  0  0  0  0  0  0  0  0  0  0  0
    4.0168   -2.6663    1.6724 C   0  0  0  0  0  0  0  0  0  0  0  0
    5.3212   -3.2218    1.1014 C   0  0  0  0  0  0  0  0  0  0  0  0
    6.2841   -2.3052    0.6220 C   0  0  0  0  0  0  0  0  0  0  0  0
    7.5258   -2.7550    0.1387 C   0  0  0  0  0  0  0  0  0  0  0  0
    8.4470   -1.8605   -0.3178 O   0  0  0  0  0  0  0  0  0  0  0  0
    7.8134   -4.1313    0.1397 C   0  0  0  0  0  0  0  0  0  0  0  0
    6.8552   -5.0568    0.6060 C   0  0  0  0  0  0  0  0  0  0  0  0
    5.5986   -4.6155    1.0827 C   0  0  0  0  0  0  0  0  0  0  0  0
    4.5005   -5.5962    1.5145 C   0  0  1  0  0  0  0  0  0  0  0  0
    4.9096   -7.0391    1.8550 C   0  0  1  0  0  0  0  0  0  0  0  0
    5.6232   -7.0563    3.0824 O   0  0  0  0  0  0  0  0  0  0  0  0
    3.6491   -7.9440    1.8868 C   0  0  1  0  0  0  0  0  0  0  0  0
    4.0327   -9.2324    2.3461 O   0  0  0  0  0  0  0  0  0  0  0  0
    2.3280   -7.3315    2.5218 C   0  0  2  0  0  0  0  0  0  0  0  0
    1.3669   -6.9516    1.3506 C   0  0  0  0  0  0  0  0  0  0  0  0
    1.6567   -8.3588    3.5326 C   0  0  2  0  0  0  0  0  0  0  0  0
    0.9804   -9.5624    2.8266 C   0  0  0  0  0  0  0  0  0  0  0  0
   -0.5155   -9.2346    2.6920 C   0  0  0  0  0  0  0  0  0  0  0  0
   -0.7236   -8.0737    3.6548 C   0  0  0  0  0  0  0  0  0  0  0  0
   -1.7657   -7.4235    3.7352 O   0  0  0  0  0  0  0  0  0  0  0  0
    1.3633   -8.7578    6.2892 H   0  0  0  0  0  0  0  0  0  0  0  0
    0.1305   -9.7423    5.5152 H   0  0  0  0  0  0  0  0  0  0  0  0
   -0.3275   -8.3251    6.4318 H   0  0  0  0  0  0  0  0  0  0  0  0
   -0.1654   -5.9404    5.3193 H   0  0  0  0  0  0  0  0  0  0  0  0
    1.4195   -6.4141    5.8609 H   0  0  0  0  0  0  0  0  0  0  0  0
    0.6969   -5.0620    3.2572 H   0  0  0  0  0  0  0  0  0  0  0  0
    1.7227   -4.5215    4.5454 H   0  0  0  0  0  0  0  0  0  0  0  0
    3.2708   -6.3852    4.1557 H   0  0  0  0  0  0  0  0  0  0  0  0
    4.2497   -4.6460    3.4079 H   0  0  0  0  0  0  0  0  0  0  0  0
    2.3911   -3.9738    1.1328 H   0  0  0  0  0  0  0  0  0  0  0  0
    2.2319   -3.2577    2.7170 H   0  0  0  0  0  0  0  0  0  0  0  0
    3.5927   -1.9238    0.9949 H   0  0  0  0  0  0  0  0  0  0  0  0
    4.2882   -2.1340    2.5853 H   0  0  0  0  0  0  0  0  0  0  0  0
    6.0647   -1.2490    0.6357 H   0  0  0  0  0  0  0  0  0  0  0  0
    9.2669   -2.2276   -0.6292 H   0  0  0  0  0  0  0  0  0  0  0  0
    8.7578   -4.4874   -0.2315 H   0  0  0  0  0  0  0  0  0  0  0  0
    7.1120   -6.1036    0.5631 H   0  0  0  0  0  0  0  0  0  0  0  0
    3.9174   -5.6858    0.5997 H   0  0  0  0  0  0  0  0  0  0  0  0
    5.5540   -7.4570    1.0830 H   0  0  0  0  0  0  0  0  0  0  0  0
    6.4592   -6.6362    2.9507 H   0  0  0  0  0  0  0  0  0  0  0  0
    3.4220   -8.1300    0.8409 H   0  0  0  0  0  0  0  0  0  0  0  0
    3.4816   -9.8872    1.9409 H   0  0  0  0  0  0  0  0  0  0  0  0
    1.1381   -7.8056    0.7152 H   0  0  0  0  0  0  0  0  0  0  0  0
    1.8015   -6.1946    0.7029 H   0  0  0  0  0  0  0  0  0  0  0  0
    0.4136   -6.5551    1.6895 H   0  0  0  0  0  0  0  0  0  0  0  0
    2.4512   -8.7283    4.1806 H   0  0  0  0  0  0  0  0  0  0  0  0
    1.4317   -9.8066    1.8635 H   0  0  0  0  0  0  0  0  0  0  0  0
    1.0958  -10.4489    3.4515 H   0  0  0  0  0  0  0  0  0  0  0  0
   -0.7619   -8.9125    1.6833 H   0  0  0  0  0  0  0  0  0  0  0  0
   -1.1427  -10.0898    2.9414 H   0  0  0  0  0  0  0  0  0  0  0  0
  2  1  1  1
  1 28  1  0
  1 29  1  0
  1 30  1  0
  2 23  1  0
  2 26  1  0
  2  3  1  0
  3  4  1  0
  3 31  1  0
  3 32  1  0
  4  5  1  0
  4 33  1  0
  4 34  1  0
  5 21  1  0
  5  6  1  0
  5 35  1  1
  6 16  1  0
  6  7  1  0
  6 36  1  1
  7  8  1  0
  7 37  1  0
  7 38  1  0
  8  9  1  0
  8 39  1  0
  8 40  1  0
  9 15  2  0
  9 10  1  0
 10 11  2  0
 10 41  1  0
 11 12  1  0
 11 13  1  0
 12 42  1  0
 13 14  2  0
 13 43  1  0
 14 15  1  0
 14 44  1  0
 15 16  1  0
 16 17  1  0
 16 45  1  6
 17 18  1  0
 17 19  1  0
 17 46  1  6
 18 47  1  0
 19 20  1  0
 19 21  1  0
 19 48  1  6
 20 49  1  0
 21 22  1  6
 21 23  1  0
 22 50  1  0
 22 51  1  0
 22 52  1  0
 23 24  1  0
 23 53  1  1
 24 25  1  0
 24 54  1  0
 24 55  1  0
 25 26  1  0
 25 56  1  0
 25 57  1  0
 26 27  2  0
M  END
>  <i_m_ct_stereo_status>  (89) 
1

>  <s_m_source_file>  (89) 
/var/tmp/pbs.5076255.sched01/tmpkni74bsw/0nq93mkxh.sdf

>  <i_m_source_file_index>  (89) 
39

>  <i_lp_mmshare_version>  (89) 
48012

>  <i_f3d_flags>  (89) 
0

>  <s_epik_input>  (89) 
Tz1DMVtDSDJdW0NIMl1bQ0BIXShbQ0BdMTJbQ0gzXSlbQ0BAXTMoW0NIM10pW0NASF0oW0NIMl1bQ0gyXTIpW0NASF00W0NASF0oW0NAQEhdKFtPSF0pW0NASF0zW09IXSljNWMoW0NIMl1bQ0gyXTQpW2NIXWMoW09IXSlbY0hdW2NIXTU=

>  <s_epik_cmdline>  (89) 
J2VwaWtfcHl0aG9uJywgJy1waHQnLCAnMi4wJywgJy1waCcsICc3LjAnLCAnLXRuJywgJzgnLCAnLW1hJywgJzIwMCcsICctaW1hZScsICc8aW5maWxlLm1hZT4nLCAnLW9tYWUnLCAnPG91dGZpbGUubWFlPic=

>  <r_lp_tautomer_probability>  (89) 
1

>  <r_epik_Ionization_Penalty>  (89) 
0.000120361

>  <r_epik_Ionization_Penalty_Charging>  (89) 
0

>  <r_epik_Ionization_Penalty_Neutral>  (89) 
0.000120361

>  <r_epik_State_Penalty>  (89) 
-0

>  <r_epik_Charging_Adjusted_Penalty>  (89) 
0

>  <i_epik_Tot_Q>  (89) 
0

>  <i_epik_Tot_abs_Q>  (89) 
0

>  <s_lp_Force_Field>  (89) 
OPLS3e

>  <r_lp_Energy>  (89) 
55.2876

>  <b_lp_Chiralities_Consistent>  (89) 
1

>  <s_lp_Variant>  (89) 
27:0-1

>  <s_i_glide_gridfile>  (89) 
pfpi4k_grid

>  <i_i_glide_lignum>  (89) 
39

>  <i_i_glide_rotatable_bonds>  (89) 
3

>  <r_i_docking_score>  (89) 
-3.9699

>  <r_i_glide_ligand_efficiency>  (89) 
-0.147033

>  <r_i_glide_ligand_efficiency_sa>  (89) 
-0.4411

>  <r_i_glide_ligand_efficiency_ln>  (89) 
-0.924128

>  <r_i_glide_gscore>  (89) 
-3.9699

>  <r_i_glide_lipo>  (89) 
-0.711757

>  <r_i_glide_hbond>  (89) 
-0.131801

>  <r_i_glide_metal>  (89) 
-0

>  <r_i_glide_rewards>  (89) 
-0.883078

>  <r_i_glide_evdw>  (89) 
-29.7457

>  <r_i_glide_ecoul>  (89) 
-4.65278

>  <r_i_glide_erotb>  (89) 
0

>  <r_i_glide_esite>  (89) 
-0.0580633

>  <r_i_glide_emodel>  (89) 
-43.4054

>  <r_i_glide_energy>  (89) 
-34.3985

>  <r_i_glide_einternal>  (89) 
0.978538

>  <r_i_glide_intrahb_reward>  (89) 
-0

>  <i_i_glide_confnum>  (89) 
1

>  <i_i_glide_posenum>  (89) 
11

>  <r_i_glide_eff_state_penalty>  (89) 
0

>  <ligand_id>  (89) 
27

>  <original_smiles>  (89) 
CC12CCC3C4CCc5cc(O)ccc5C4C(O)C(O)C3(C)C1CCC2=O

>  <smiles>  (89) 
[H]Oc1c([H])c([H])c2c(c1[H])C([H])([H])C([H])([H])C1([H])C2([H])C([H])(O[H])C([H])(O[H])C2(C([H])([H])[H])C1([H])C([H])([H])C([H])([H])C1(C([H])([H])[H])C(=O)C([H])([H])C([H])([H])C12[H]

$$$$
28:0:0
     RDKit          3D

 24 26  0  0  1  0  0  0  0  0999 V2000
    4.4584   -6.4855    0.9567 C   0  0  0  0  0  0  0  0  0  0  0  0
    4.7440   -5.4057    0.1938 N   0  0  0  0  0  0  0  0  0  0  0  0
    3.7255   -4.6008   -0.2065 C   0  0  0  0  0  0  0  0  0  0  0  0
    4.0545   -3.4815   -1.0031 N   0  0  0  0  0  0  0  0  0  0  0  0
    5.4295   -3.1272   -1.3427 C   0  0  0  0  0  0  0  0  0  0  0  0
    5.5854   -3.0580   -2.8705 C   0  0  0  0  0  0  0  0  0  0  0  0
    4.6151   -2.1774   -3.4366 O   0  0  0  0  0  0  0  0  0  0  0  0
    3.2850   -2.6195   -3.1803 C   0  0  0  0  0  0  0  0  0  0  0  0
    3.0313   -2.6651   -1.6635 C   0  0  0  0  0  0  0  0  0  0  0  0
    2.4129   -4.7671    0.0860 N   0  0  0  0  0  0  0  0  0  0  0  0
    2.1496   -5.8570    0.8454 C   0  0  0  0  0  0  0  0  0  0  0  0
    0.9992   -6.3342    1.3097 N   0  0  0  0  0  0  0  0  0  0  0  0
    1.3435   -7.4792    2.0316 N   0  0  0  0  0  0  0  0  0  0  0  0
    2.6213   -7.7275    2.0351 N   0  0  0  0  0  0  0  0  0  0  0  0
    3.1372   -6.7261    1.2917 N   0  0  0  0  0  0  0  0  0  0  0  0
    5.2331   -7.1523    1.3047 H   0  0  0  0  0  0  0  0  0  0  0  0
    5.6455   -2.1542   -0.9016 H   0  0  0  0  0  0  0  0  0  0  0  0
    6.1716   -3.8178   -0.9402 H   0  0  0  0  0  0  0  0  0  0  0  0
    6.5821   -2.6970   -3.1195 H   0  0  0  0  0  0  0  0  0  0  0  0
    5.4897   -4.0481   -3.3171 H   0  0  0  0  0  0  0  0  0  0  0  0
    2.5804   -1.9325   -3.6518 H   0  0  0  0  0  0  0  0  0  0  0  0
    3.1222   -3.6015   -3.6310 H   0  0  0  0  0  0  0  0  0  0  0  0
    2.0137   -3.0200   -1.5078 H   0  0  0  0  0  0  0  0  0  0  0  0
    3.0685   -1.6609   -1.2399 H   0  0  0  0  0  0  0  0  0  0  0  0
  1 15  1  0
  1  2  2  0
  1 16  1  0
  2  3  1  0
  3  4  1  0
  3 10  2  0
  4  9  1  0
  4  5  1  0
  5  6  1  0
  5 17  1  0
  5 18  1  0
  6  7  1  0
  6 19  1  0
  6 20  1  0
  7  8  1  0
  8  9  1  0
  8 21  1  0
  8 22  1  0
  9 23  1  0
  9 24  1  0
 10 11  1  0
 11 15  1  0
 11 12  2  0
 12 13  1  0
 13 14  2  0
 14 15  1  0
M  END
>  <i_m_ct_stereo_status>  (90) 
1

>  <s_m_source_file>  (90) 
/var/tmp/pbs.5076255.sched01/tmpkni74bsw/0nq93mkxh.sdf

>  <i_m_source_file_index>  (90) 
40

>  <i_lp_mmshare_version>  (90) 
48012

>  <i_f3d_flags>  (90) 
0

>  <s_epik_input>  (90) 
bjFubm4oYzEyKVtjSF1uYyhuMilOM1tDSDJdW0NIMl1PW0NIMl1bQ0gyXTM=

>  <s_epik_cmdline>  (90) 
J2VwaWtfcHl0aG9uJywgJy1waHQnLCAnMi4wJywgJy1waCcsICc3LjAnLCAnLXRuJywgJzgnLCAnLW1hJywgJzIwMCcsICctaW1hZScsICc8aW5maWxlLm1hZT4nLCAnLW9tYWUnLCAnPG91dGZpbGUubWFlPic=

>  <r_lp_tautomer_probability>  (90) 
1

>  <r_epik_Ionization_Penalty>  (90) 
8.34277e-12

>  <r_epik_Ionization_Penalty_Charging>  (90) 
0

>  <r_epik_Ionization_Penalty_Neutral>  (90) 
8.34277e-12

>  <r_epik_State_Penalty>  (90) 
-0

>  <r_epik_Charging_Adjusted_Penalty>  (90) 
0

>  <i_epik_Tot_Q>  (90) 
0

>  <i_epik_Tot_abs_Q>  (90) 
0

>  <s_lp_Force_Field>  (90) 
OPLS3e

>  <r_lp_Energy>  (90) 
28.1154

>  <b_lp_Chiralities_Consistent>  (90) 
1

>  <s_lp_Variant>  (90) 
28:0-1

>  <s_i_glide_gridfile>  (90) 
pfpi4k_grid

>  <i_i_glide_lignum>  (90) 
40

>  <i_i_glide_rotatable_bonds>  (90) 
1

>  <r_i_docking_score>  (90) 
-3.92813

>  <r_i_glide_ligand_efficiency>  (90) 
-0.261875

>  <r_i_glide_ligand_efficiency_sa>  (90) 
-0.64584

>  <r_i_glide_ligand_efficiency_ln>  (90) 
-1.05935

>  <r_i_glide_gscore>  (90) 
-3.92813

>  <r_i_glide_lipo>  (90) 
-0.327063

>  <r_i_glide_hbond>  (90) 
0

>  <r_i_glide_metal>  (90) 
-0

>  <r_i_glide_rewards>  (90) 
-2.21442

>  <r_i_glide_evdw>  (90) 
-22.2128

>  <r_i_glide_ecoul>  (90) 
-3.05674

>  <r_i_glide_erotb>  (90) 
0.384929

>  <r_i_glide_esite>  (90) 
-0.202428

>  <r_i_glide_emodel>  (90) 
-31.7741

>  <r_i_glide_energy>  (90) 
-25.2695

>  <r_i_glide_einternal>  (90) 
0.0112622

>  <r_i_glide_intrahb_reward>  (90) 
-0

>  <i_i_glide_confnum>  (90) 
5

>  <i_i_glide_posenum>  (90) 
7

>  <r_i_glide_eff_state_penalty>  (90) 
0

>  <ligand_id>  (90) 
28

>  <original_smiles>  (90) 
c1nc(N2CCOCC2)nc2nnnn12

>  <smiles>  (90) 
[H]c1nc(N2C([H])([H])C([H])([H])OC([H])([H])C2([H])[H])nc2nnnn12

$$$$
28:0:1
     RDKit          3D

 24 26  0  0  1  0  0  0  0  0999 V2000
    4.4557   -6.8348    1.2526 C   0  0  0  0  0  0  0  0  0  0  0  0
    5.0213   -5.7841    0.6243 N   0  0  0  0  0  0  0  0  0  0  0  0
    4.2182   -4.8367    0.0788 C   0  0  0  0  0  0  0  0  0  0  0  0
    4.8683   -3.7611   -0.5689 N   0  0  0  0  0  0  0  0  0  0  0  0
    4.1615   -2.8201   -1.4372 C   0  0  0  0  0  0  0  0  0  0  0  0
    4.4099   -1.3806   -0.9507 C   0  0  0  0  0  0  0  0  0  0  0  0
    5.8152   -1.1373   -0.8497 O   0  0  0  0  0  0  0  0  0  0  0  0
    6.4418   -2.0027    0.0963 C   0  0  0  0  0  0  0  0  0  0  0  0
    6.2834   -3.4638   -0.3577 C   0  0  0  0  0  0  0  0  0  0  0  0
    2.8583   -4.8213    0.0912 N   0  0  0  0  0  0  0  0  0  0  0  0
    2.3131   -5.8983    0.7142 C   0  0  0  0  0  0  0  0  0  0  0  0
    1.0427   -6.2548    0.8972 N   0  0  0  0  0  0  0  0  0  0  0  0
    1.0932   -7.4522    1.6099 N   0  0  0  0  0  0  0  0  0  0  0  0
    2.3048   -7.8613    1.8509 N   0  0  0  0  0  0  0  0  0  0  0  0
    3.0747   -6.9069    1.2955 N   0  0  0  0  0  0  0  0  0  0  0  0
    5.0564   -7.6100    1.7132 H   0  0  0  0  0  0  0  0  0  0  0  0
    4.5484   -2.9381   -2.4496 H   0  0  0  0  0  0  0  0  0  0  0  0
    3.0896   -3.0027   -1.5061 H   0  0  0  0  0  0  0  0  0  0  0  0
    3.9736   -0.6665   -1.6509 H   0  0  0  0  0  0  0  0  0  0  0  0
    3.9252   -1.2145    0.0134 H   0  0  0  0  0  0  0  0  0  0  0  0
    7.4998   -1.7501    0.1726 H   0  0  0  0  0  0  0  0  0  0  0  0
    6.0105   -1.8587    1.0895 H   0  0  0  0  0  0  0  0  0  0  0  0
    6.7567   -4.1070    0.3845 H   0  0  0  0  0  0  0  0  0  0  0  0
    6.8143   -3.6257   -1.2974 H   0  0  0  0  0  0  0  0  0  0  0  0
  1 15  1  0
  1  2  2  0
  1 16  1  0
  2  3  1  0
  3  4  1  0
  3 10  2  0
  4  9  1  0
  4  5  1  0
  5  6  1  0
  5 17  1  0
  5 18  1  0
  6  7  1  0
  6 19  1  0
  6 20  1  0
  7  8  1  0
  8  9  1  0
  8 21  1  0
  8 22  1  0
  9 23  1  0
  9 24  1  0
 10 11  1  0
 11 15  1  0
 11 12  2  0
 12 13  1  0
 13 14  2  0
 14 15  1  0
M  END
>  <i_m_ct_stereo_status>  (91) 
1

>  <s_m_source_file>  (91) 
/var/tmp/pbs.5076255.sched01/tmpkni74bsw/0nq93mkxh.sdf

>  <i_m_source_file_index>  (91) 
40

>  <i_lp_mmshare_version>  (91) 
48012

>  <i_f3d_flags>  (91) 
0

>  <s_epik_input>  (91) 
bjFubm4oYzEyKVtjSF1uYyhuMilOM1tDSDJdW0NIMl1PW0NIMl1bQ0gyXTM=

>  <s_epik_cmdline>  (91) 
J2VwaWtfcHl0aG9uJywgJy1waHQnLCAnMi4wJywgJy1waCcsICc3LjAnLCAnLXRuJywgJzgnLCAnLW1hJywgJzIwMCcsICctaW1hZScsICc8aW5maWxlLm1hZT4nLCAnLW9tYWUnLCAnPG91dGZpbGUubWFlPic=

>  <r_lp_tautomer_probability>  (91) 
1

>  <r_epik_Ionization_Penalty>  (91) 
8.34277e-12

>  <r_epik_Ionization_Penalty_Charging>  (91) 
0

>  <r_epik_Ionization_Penalty_Neutral>  (91) 
8.34277e-12

>  <r_epik_State_Penalty>  (91) 
-0

>  <r_epik_Charging_Adjusted_Penalty>  (91) 
0

>  <i_epik_Tot_Q>  (91) 
0

>  <i_epik_Tot_abs_Q>  (91) 
0

>  <s_lp_Force_Field>  (91) 
OPLS3e

>  <r_lp_Energy>  (91) 
28.1154

>  <b_lp_Chiralities_Consistent>  (91) 
1

>  <s_lp_Variant>  (91) 
28:0-1

>  <s_i_glide_gridfile>  (91) 
pfpi4k_grid

>  <i_i_glide_lignum>  (91) 
40

>  <i_i_glide_rotatable_bonds>  (91) 
1

>  <r_i_docking_score>  (91) 
-3.66116

>  <r_i_glide_ligand_efficiency>  (91) 
-0.244077

>  <r_i_glide_ligand_efficiency_sa>  (91) 
-0.601946

>  <r_i_glide_ligand_efficiency_ln>  (91) 
-0.987354

>  <r_i_glide_gscore>  (91) 
-3.66116

>  <r_i_glide_lipo>  (91) 
-0.0914256

>  <r_i_glide_hbond>  (91) 
-0.0511301

>  <r_i_glide_metal>  (91) 
-0

>  <r_i_glide_rewards>  (91) 
-2.2452

>  <r_i_glide_evdw>  (91) 
-20.6655

>  <r_i_glide_ecoul>  (91) 
-2.81797

>  <r_i_glide_erotb>  (91) 
0.384929

>  <r_i_glide_esite>  (91) 
-0.202363

>  <r_i_glide_emodel>  (91) 
-29.4554

>  <r_i_glide_energy>  (91) 
-23.4834

>  <r_i_glide_einternal>  (91) 
0.208772

>  <r_i_glide_intrahb_reward>  (91) 
-0

>  <i_i_glide_confnum>  (91) 
6

>  <i_i_glide_posenum>  (91) 
13

>  <r_i_glide_eff_state_penalty>  (91) 
0

>  <ligand_id>  (91) 
28

>  <original_smiles>  (91) 
c1nc(N2CCOCC2)nc2nnnn12

>  <smiles>  (91) 
[H]c1nc(N2C([H])([H])C([H])([H])OC([H])([H])C2([H])[H])nc2nnnn12

$$$$
28:0:2
     RDKit          3D

 24 26  0  0  1  0  0  0  0  0999 V2000
    4.0057  -11.3147    3.4414 C   0  0  0  0  0  0  0  0  0  0  0  0
    2.7479  -10.8321    3.5310 N   0  0  0  0  0  0  0  0  0  0  0  0
    2.4309   -9.7129    2.8331 C   0  0  0  0  0  0  0  0  0  0  0  0
    1.1076   -9.2405    2.9698 N   0  0  0  0  0  0  0  0  0  0  0  0
    0.5429   -8.2156    2.0953 C   0  0  0  0  0  0  0  0  0  0  0  0
   -0.0021   -7.0519    2.9319 C   0  0  0  0  0  0  0  0  0  0  0  0
   -0.9118   -7.5254    3.9199 O   0  0  0  0  0  0  0  0  0  0  0  0
   -0.2790   -8.4307    4.8243 C   0  0  0  0  0  0  0  0  0  0  0  0
    0.2364   -9.6669    4.0643 C   0  0  0  0  0  0  0  0  0  0  0  0
    3.2612   -8.9972    2.0333 N   0  0  0  0  0  0  0  0  0  0  0  0
    4.5225   -9.4965    1.9652 C   0  0  0  0  0  0  0  0  0  0  0  0
    5.5954   -9.0802    1.2977 N   0  0  0  0  0  0  0  0  0  0  0  0
    6.6011   -9.9973    1.6068 N   0  0  0  0  0  0  0  0  0  0  0  0
    6.2161  -10.9328    2.4290 N   0  0  0  0  0  0  0  0  0  0  0  0
    4.9207  -10.6355    2.6564 N   0  0  0  0  0  0  0  0  0  0  0  0
    4.3002  -12.2086    3.9725 H   0  0  0  0  0  0  0  0  0  0  0  0
    1.2415   -7.8287    1.3531 H   0  0  0  0  0  0  0  0  0  0  0  0
   -0.2765   -8.6621    1.5393 H   0  0  0  0  0  0  0  0  0  0  0  0
    0.8124   -6.5020    3.4055 H   0  0  0  0  0  0  0  0  0  0  0  0
   -0.5245   -6.3535    2.2790 H   0  0  0  0  0  0  0  0  0  0  0  0
    0.5417   -7.9279    5.3404 H   0  0  0  0  0  0  0  0  0  0  0  0
   -0.9902   -8.7366    5.5906 H   0  0  0  0  0  0  0  0  0  0  0  0
   -0.5967  -10.2361    3.6514 H   0  0  0  0  0  0  0  0  0  0  0  0
    0.7270  -10.3269    4.7802 H   0  0  0  0  0  0  0  0  0  0  0  0
  1 15  1  0
  1  2  2  0
  1 16  1  0
  2  3  1  0
  3  4  1  0
  3 10  2  0
  4  9  1  0
  4  5  1  0
  5  6  1  0
  5 17  1  0
  5 18  1  0
  6  7  1  0
  6 19  1  0
  6 20  1  0
  7  8  1  0
  8  9  1  0
  8 21  1  0
  8 22  1  0
  9 23  1  0
  9 24  1  0
 10 11  1  0
 11 15  1  0
 11 12  2  0
 12 13  1  0
 13 14  2  0
 14 15  1  0
M  END
>  <i_m_ct_stereo_status>  (92) 
1

>  <s_m_source_file>  (92) 
/var/tmp/pbs.5076255.sched01/tmpkni74bsw/0nq93mkxh.sdf

>  <i_m_source_file_index>  (92) 
40

>  <i_lp_mmshare_version>  (92) 
48012

>  <i_f3d_flags>  (92) 
0

>  <s_epik_input>  (92) 
bjFubm4oYzEyKVtjSF1uYyhuMilOM1tDSDJdW0NIMl1PW0NIMl1bQ0gyXTM=

>  <s_epik_cmdline>  (92) 
J2VwaWtfcHl0aG9uJywgJy1waHQnLCAnMi4wJywgJy1waCcsICc3LjAnLCAnLXRuJywgJzgnLCAnLW1hJywgJzIwMCcsICctaW1hZScsICc8aW5maWxlLm1hZT4nLCAnLW9tYWUnLCAnPG91dGZpbGUubWFlPic=

>  <r_lp_tautomer_probability>  (92) 
1

>  <r_epik_Ionization_Penalty>  (92) 
8.34277e-12

>  <r_epik_Ionization_Penalty_Charging>  (92) 
0

>  <r_epik_Ionization_Penalty_Neutral>  (92) 
8.34277e-12

>  <r_epik_State_Penalty>  (92) 
-0

>  <r_epik_Charging_Adjusted_Penalty>  (92) 
0

>  <i_epik_Tot_Q>  (92) 
0

>  <i_epik_Tot_abs_Q>  (92) 
0

>  <s_lp_Force_Field>  (92) 
OPLS3e

>  <r_lp_Energy>  (92) 
28.1154

>  <b_lp_Chiralities_Consistent>  (92) 
1

>  <s_lp_Variant>  (92) 
28:0-1

>  <s_i_glide_gridfile>  (92) 
pfpi4k_grid

>  <i_i_glide_lignum>  (92) 
40

>  <i_i_glide_rotatable_bonds>  (92) 
1

>  <r_i_docking_score>  (92) 
-3.2326

>  <r_i_glide_ligand_efficiency>  (92) 
-0.215507

>  <r_i_glide_ligand_efficiency_sa>  (92) 
-0.531485

>  <r_i_glide_ligand_efficiency_ln>  (92) 
-0.871779

>  <r_i_glide_gscore>  (92) 
-3.2326

>  <r_i_glide_lipo>  (92) 
0

>  <r_i_glide_hbond>  (92) 
0

>  <r_i_glide_metal>  (92) 
-0

>  <r_i_glide_rewards>  (92) 
-1.99727

>  <r_i_glide_evdw>  (92) 
-19.4361

>  <r_i_glide_ecoul>  (92) 
-2.6859

>  <r_i_glide_erotb>  (92) 
0.384929

>  <r_i_glide_esite>  (92) 
-0.245569

>  <r_i_glide_emodel>  (92) 
-27.4079

>  <r_i_glide_energy>  (92) 
-22.122

>  <r_i_glide_einternal>  (92) 
0.146694

>  <r_i_glide_intrahb_reward>  (92) 
-0

>  <i_i_glide_confnum>  (92) 
4

>  <i_i_glide_posenum>  (92) 
16

>  <r_i_glide_eff_state_penalty>  (92) 
0

>  <ligand_id>  (92) 
28

>  <original_smiles>  (92) 
c1nc(N2CCOCC2)nc2nnnn12

>  <smiles>  (92) 
[H]c1nc(N2C([H])([H])C([H])([H])OC([H])([H])C2([H])[H])nc2nnnn12

$$$$
29:2:0
     RDKit          3D

 86 92  0  0  1  0  0  0  0  0999 V2000
   -0.6294   -7.6814    2.6182 C   0  0  0  0  0  0  0  0  0  0  0  0
    0.3531   -7.0930    1.5908 C   0  0  0  0  0  0  0  0  0  0  0  0
   -0.0304   -6.5490    0.5407 O   0  0  0  0  0  0  0  0  0  0  0  0
    1.6629   -7.1423    1.9116 O   0  0  0  0  0  0  0  0  0  0  0  0
    2.1645   -7.4624    3.2086 C   0  0  1  0  0  0  0  0  0  0  0  0
    2.3219   -6.2280    4.0426 C   0  0  0  0  0  0  0  0  0  0  0  0
    1.6392   -5.9992    5.2781 C   0  0  0  0  0  0  0  0  0  0  0  0
    0.7649   -7.0775    5.9584 C   0  0  0  0  0  0  0  0  0  0  0  0
    1.5899   -8.3517    6.2416 C   0  0  1  0  0  0  0  0  0  0  0  0
    1.0036   -9.0353    7.4823 C   0  0  0  0  0  0  0  0  0  0  0  0
    1.6222   -9.3647    5.0679 C   0  0  0  0  0  0  0  0  0  0  0  0
    1.9091   -8.9021    3.6433 C   0  0  2  0  0  0  0  0  0  0  0  0
    3.2767   -8.5244    3.1218 C   0  0  0  0  0  0  0  0  0  0  0  0
    3.6983   -9.1513    1.7946 C   0  0  0  0  0  0  0  0  0  0  0  0
    4.4651   -8.5295    4.0712 C   0  0  0  0  0  0  0  0  0  0  0  0
    1.6396   -4.5191    5.9795 C   0  0  1  0  0  0  0  0  0  0  0  0
    0.3211   -4.1028    6.2669 O   0  0  0  0  0  0  0  0  0  0  0  0
    2.6132   -3.8308    7.1121 C   0  0  0  0  0  0  0  0  0  0  0  0
    3.5118   -2.6054    6.5836 C   0  0  0  0  0  0  0  0  0  0  0  0
    4.6215   -2.7599    5.7699 C   0  0  0  0  0  0  0  0  0  0  0  0
    5.4233   -4.0306    5.9269 C   0  0  1  0  0  0  0  0  0  0  0  0
    6.0416   -4.2632    7.3170 C   0  0  0  0  0  0  0  0  0  0  0  0
    4.5120   -5.1532    5.4330 C   0  0  0  0  0  0  0  0  0  0  0  0
    3.3654   -4.5765    4.4927 C   0  0  0  0  0  0  0  0  0  0  0  0
    2.1865   -3.9069    4.7565 C   0  0  0  0  0  0  0  0  0  0  0  0
    1.1516   -3.4002    3.7182 C   0  0  0  0  0  0  0  0  0  0  0  0
    3.4455   -5.1659    3.2607 C   0  0  2  0  0  0  0  0  0  0  0  0
    4.1990   -3.5914    3.0707 C   0  0  1  0  0  0  0  0  0  0  0  0
    5.4949   -3.9726    2.3500 C   0  0  0  0  0  0  0  0  0  0  0  0
    5.0296   -4.5763    1.0781 N   0  0  2  0  0  0  0  0  0  0  0  0
    5.9207   -4.4035   -0.0658 C   0  0  0  0  0  0  0  0  0  0  0  0
    5.4478   -3.1152   -0.7183 C   0  0  1  0  0  0  0  0  0  0  0  0
    5.8567   -3.0344   -2.1901 C   0  0  0  0  0  0  0  0  0  0  0  0
    3.9259   -3.1667   -0.5200 C   0  0  0  0  0  0  0  0  0  0  0  0
    3.6503   -3.8609    0.8293 C   0  0  2  0  0  0  0  0  0  0  0  0
    3.5714   -2.9482    1.9238 O   0  0  0  0  0  0  0  0  0  0  0  0
    4.5846   -2.3805    4.2179 C   0  0  1  0  0  0  0  0  0  0  0  0
    3.8930   -1.0346    3.9661 C   0  0  0  0  0  0  0  0  0  0  0  0
   -0.3576   -8.7315    2.8089 H   0  0  0  0  0  0  0  0  0  0  0  0
   -1.6853   -7.5416    2.3010 H   0  0  0  0  0  0  0  0  0  0  0  0
   -0.5048   -7.0591    3.5155 H   0  0  0  0  0  0  0  0  0  0  0  0
    0.4500   -6.6216    6.9087 H   0  0  0  0  0  0  0  0  0  0  0  0
   -0.1341   -7.2925    5.3751 H   0  0  0  0  0  0  0  0  0  0  0  0
    2.6151   -8.0704    6.4903 H   0  0  0  0  0  0  0  0  0  0  0  0
   -0.0345   -9.3390    7.3296 H   0  0  0  0  0  0  0  0  0  0  0  0
    1.0373   -8.3682    8.3437 H   0  0  0  0  0  0  0  0  0  0  0  0
    1.5772   -9.9236    7.7310 H   0  0  0  0  0  0  0  0  0  0  0  0
    2.3297  -10.1579    5.2984 H   0  0  0  0  0  0  0  0  0  0  0  0
    0.6608   -9.8697    5.0148 H   0  0  0  0  0  0  0  0  0  0  0  0
    1.3800   -9.5214    2.9267 H   0  0  0  0  0  0  0  0  0  0  0  0
    4.1021  -10.1544    1.9485 H   0  0  0  0  0  0  0  0  0  0  0  0
    4.4515   -8.5529    1.2794 H   0  0  0  0  0  0  0  0  0  0  0  0
    2.8492   -9.2706    1.1263 H   0  0  0  0  0  0  0  0  0  0  0  0
    4.7727   -9.5622    4.2715 H   0  0  0  0  0  0  0  0  0  0  0  0
    4.1786   -8.0680    5.0070 H   0  0  0  0  0  0  0  0  0  0  0  0
    5.3062   -7.9737    3.6392 H   0  0  0  0  0  0  0  0  0  0  0  0
    0.2595   -3.1941    6.0273 H   0  0  0  0  0  0  0  0  0  0  0  0
    1.9761   -3.4152    7.9007 H   0  0  0  0  0  0  0  0  0  0  0  0
    3.1941   -4.5817    7.6431 H   0  0  0  0  0  0  0  0  0  0  0  0
    2.8607   -1.7831    6.3324 H   0  0  0  0  0  0  0  0  0  0  0  0
    6.2803   -3.9420    5.2540 H   0  0  0  0  0  0  0  0  0  0  0  0
    6.7751   -3.4877    7.5612 H   0  0  0  0  0  0  0  0  0  0  0  0
    6.5668   -5.2199    7.3474 H   0  0  0  0  0  0  0  0  0  0  0  0
    5.3018   -4.2742    8.1171 H   0  0  0  0  0  0  0  0  0  0  0  0
    5.1745   -5.8421    4.9207 H   0  0  0  0  0  0  0  0  0  0  0  0
    4.1294   -5.7718    6.2418 H   0  0  0  0  0  0  0  0  0  0  0  0
    0.1720   -3.8186    3.8938 H   0  0  0  0  0  0  0  0  0  0  0  0
    1.4097   -3.7149    2.7135 H   0  0  0  0  0  0  0  0  0  0  0  0
    1.0655   -2.3164    3.7163 H   0  0  0  0  0  0  0  0  0  0  0  0
    4.2267   -5.9213    3.1244 H   0  0  0  0  0  0  0  0  0  0  0  0
    6.1208   -3.0975    2.1506 H   0  0  0  0  0  0  0  0  0  0  0  0
    6.0887   -4.7153    2.8866 H   0  0  0  0  0  0  0  0  0  0  0  0
    6.9762   -4.4010    0.2364 H   0  0  0  0  0  0  0  0  0  0  0  0
    5.7255   -5.2768   -0.6920 H   0  0  0  0  0  0  0  0  0  0  0  0
    5.8511   -2.2710   -0.1467 H   0  0  0  0  0  0  0  0  0  0  0  0
    5.4608   -3.8840   -2.7519 H   0  0  0  0  0  0  0  0  0  0  0  0
    6.9415   -3.0496   -2.2911 H   0  0  0  0  0  0  0  0  0  0  0  0
    5.4660   -2.1244   -2.6392 H   0  0  0  0  0  0  0  0  0  0  0  0
    3.4518   -2.1728   -0.5491 H   0  0  0  0  0  0  0  0  0  0  0  0
    3.4610   -3.7950   -1.2754 H   0  0  0  0  0  0  0  0  0  0  0  0
    2.7778   -4.5234    0.8262 H   0  0  0  0  0  0  0  0  0  0  0  0
    5.6196   -2.1459    4.0330 H   0  0  0  0  0  0  0  0  0  0  0  0
    4.3117   -0.2562    4.6121 H   0  0  0  0  0  0  0  0  0  0  0  0
    2.8298   -1.0553    4.1617 H   0  0  0  0  0  0  0  0  0  0  0  0
    4.0422   -0.6856    2.9533 H   0  0  0  0  0  0  0  0  0  0  0  0
    4.8844   -5.5723    1.2351 H   0  0  0  0  0  0  0  0  0  0  0  0
  1  2  1  0
  1 39  1  0
  1 40  1  0
  1 41  1  0
  2  3  2  0
  2  4  1  0
  5  4  1  6
  5 12  1  0
  5 13  1  0
  5  6  1  0
  6 27  1  0
  6  7  2  0
  7  8  1  0
  7 16  1  0
  8  9  1  0
  8 42  1  0
  8 43  1  0
  9 10  1  0
  9 11  1  0
  9 44  1  1
 10 45  1  0
 10 46  1  0
 10 47  1  0
 11 12  1  0
 11 48  1  0
 11 49  1  0
 12 13  1  0
 12 50  1  6
 13 14  1  0
 13 15  1  0
 14 51  1  0
 14 52  1  0
 14 53  1  0
 15 54  1  0
 15 55  1  0
 15 56  1  0
 16 25  1  0
 16 17  1  1
 16 18  1  0
 17 57  1  0
 18 19  1  0
 18 58  1  0
 18 59  1  0
 19 20  2  3
 19 60  1  0
 20 37  1  0
 20 21  1  0
 21 22  1  0
 21 23  1  0
 21 61  1  6
 22 62  1  0
 22 63  1  0
 22 64  1  0
 23 24  1  0
 23 65  1  0
 23 66  1  0
 24 25  2  0
 24 27  1  0
 25 26  1  0
 26 67  1  0
 26 68  1  0
 26 69  1  0
 27 28  1  0
 27 70  1  1
 28 36  1  6
 28 29  1  0
 28 37  1  0
 29 30  1  0
 29 71  1  0
 29 72  1  0
 30 35  1  0
 30 31  1  0
 30 86  1  1
 31 32  1  0
 31 73  1  0
 31 74  1  0
 32 33  1  0
 32 34  1  0
 32 75  1  1
 33 76  1  0
 33 77  1  0
 33 78  1  0
 34 35  1  0
 34 79  1  0
 34 80  1  0
 35 36  1  0
 35 81  1  6
 37 38  1  0
 37 82  1  6
 38 83  1  0
 38 84  1  0
 38 85  1  0
M  CHG  1  30   1
M  END
>  <i_m_ct_stereo_status>  (93) 
1

>  <s_m_source_file>  (93) 
/var/tmp/pbs.5076255.sched01/tmp06yssb5m/4267g10r58.sdf

>  <i_m_source_file_index>  (93) 
1

>  <i_lp_mmshare_version>  (93) 
48012

>  <i_f3d_flags>  (93) 
0

>  <s_epik_input>  (93) 
W0NIMl0xW0NAQEhdKFtDSDNdKVtDSDJdW0NASF0oTzIpTjFbQ0gyXVtDQF0yM1tDQEBIXTRDNT1DKFtDSDJdW0NAQEhdKFtDSDNdKVtDSDJdW0NASF02W0NAQF01KEM2KFtDSDNdKVtDSDNdKU9DKD1PKVtDSDNdKVtDQEBdNyhbT0hdKVtDSDJdL1tDSF09QyhbQ0BASF0zW0NIM10pXFtDQEBIXShbQ0gzXSlbQ0gyXUM0PUM3W0NIM10=

>  <s_epik_cmdline>  (93) 
J2VwaWtfcHl0aG9uJywgJy1waHQnLCAnMi4wJywgJy1waCcsICc3LjAnLCAnLXRuJywgJzgnLCAnLW1hJywgJzIwMCcsICctaW1hZScsICc8aW5maWxlLm1hZT4nLCAnLW9tYWUnLCAnPG91dGZpbGUubWFlPic=

>  <r_epik_Ionization_Penalty>  (93) 
1.15298

>  <r_epik_Ionization_Penalty_Charging>  (93) 
1.15298

>  <r_epik_Ionization_Penalty_Neutral>  (93) 
2.42999e-07

>  <r_epik_State_Penalty>  (93) 
1.21453

>  <r_epik_Charging_Adjusted_Penalty>  (93) 
2.36752

>  <i_epik_Tot_Q>  (93) 
1

>  <i_epik_Tot_abs_Q>  (93) 
1

>  <s_epik_Chemistry_Notes>  (93) 
This compound has an ester and may undergo hydrolysis at high or low pH. This compound contains an acetal/aminal-like group ( X-CH(R)-Y where X, Y are N, S, or O) that may be acid/base labile, releasing an aldehyde.

>  <s_lp_Force_Field>  (93) 
OPLS3e

>  <r_lp_Energy>  (93) 
377.915

>  <b_lp_Chiralities_Consistent>  (93) 
1

>  <s_lp_Variant>  (93) 
29:0-3

>  <s_i_glide_gridfile>  (93) 
pfpi4k_grid

>  <i_i_glide_lignum>  (93) 
1

>  <i_i_glide_rotatable_bonds>  (93) 
3

>  <r_i_docking_score>  (93) 
-2.95158

>  <r_i_glide_ligand_efficiency>  (93) 
-0.0776731

>  <r_i_glide_ligand_efficiency_sa>  (93) 
-0.261135

>  <r_i_glide_ligand_efficiency_ln>  (93) 
-0.636447

>  <r_i_glide_gscore>  (93) 
-2.95158

>  <r_i_glide_lipo>  (93) 
-0.376204

>  <r_i_glide_hbond>  (93) 
-0.199345

>  <r_i_glide_metal>  (93) 
-0

>  <r_i_glide_rewards>  (93) 
-0.000867002

>  <r_i_glide_evdw>  (93) 
-31.6031

>  <r_i_glide_ecoul>  (93) 
-5.1951

>  <r_i_glide_erotb>  (93) 
0.075262

>  <r_i_glide_esite>  (93) 
-0.0910014

>  <r_i_glide_emodel>  (93) 
-39.1883

>  <r_i_glide_energy>  (93) 
-36.7982

>  <r_i_glide_einternal>  (93) 
5.67138

>  <r_i_glide_intrahb_reward>  (93) 
-0

>  <i_i_glide_confnum>  (93) 
3

>  <i_i_glide_posenum>  (93) 
34

>  <r_i_glide_eff_state_penalty>  (93) 
0

>  <ligand_id>  (93) 
29

>  <original_smiles>  (93) 
CC(=O)OC12C3=C(CC(C)CC1C2(C)C)C1(O)CC=C2C(C)CC(=C1C)C3C1(CN3CC(C)CC3O1)C2C

>  <smiles>  (93) 
[H]OC12C(C([H])([H])[H])=C3C([H])([H])C([H])(C([H])([H])[H])C(=C([H])C1([H])[H])C([H])(C([H])([H])[H])C1(OC4([H])C([H])([H])C([H])(C([H])([H])[H])C([H])([H])[N+]4([H])C1([H])[H])C3([H])C1=C2C([H])([H])C([H])(C([H])([H])[H])C([H])([H])C2([H])C1(OC(=O)C([H])([H])[H])C2(C([H])([H])[H])C([H])([H])[H]

$$$$
29:2:1
     RDKit          3D

 86 92  0  0  1  0  0  0  0  0999 V2000
   -0.4253   -7.7898    2.9186 C   0  0  0  0  0  0  0  0  0  0  0  0
    0.4575   -7.2474    1.7874 C   0  0  0  0  0  0  0  0  0  0  0  0
   -0.0352   -6.6586    0.8070 O   0  0  0  0  0  0  0  0  0  0  0  0
    1.7982   -7.3553    1.9476 O   0  0  0  0  0  0  0  0  0  0  0  0
    2.4226   -7.6622    3.1910 C   0  0  1  0  0  0  0  0  0  0  0  0
    2.5346   -6.4560    4.0263 C   0  0  0  0  0  0  0  0  0  0  0  0
    1.9365   -6.3150    5.3387 C   0  0  0  0  0  0  0  0  0  0  0  0
    1.2424   -7.4869    6.0585 C   0  0  0  0  0  0  0  0  0  0  0  0
    2.2224   -8.6694    6.2381 C   0  0  1  0  0  0  0  0  0  0  0  0
    1.8292   -9.4279    7.5066 C   0  0  0  0  0  0  0  0  0  0  0  0
    2.2306   -9.6458    5.0387 C   0  0  0  0  0  0  0  0  0  0  0  0
    2.3359   -9.1220    3.6098 C   0  0  2  0  0  0  0  0  0  0  0  0
    3.6110   -8.6190    2.9799 C   0  0  0  0  0  0  0  0  0  0  0  0
    3.9735   -9.1857    1.6121 C   0  0  0  0  0  0  0  0  0  0  0  0
    4.8720   -8.5225    3.8084 C   0  0  0  0  0  0  0  0  0  0  0  0
    1.8400   -4.8457    6.0465 C   0  0  1  0  0  0  0  0  0  0  0  0
    0.5140   -4.5842    6.4533 O   0  0  0  0  0  0  0  0  0  0  0  0
    2.8254   -4.0711    7.1098 C   0  0  0  0  0  0  0  0  0  0  0  0
    3.5324   -2.7548    6.5246 C   0  0  0  0  0  0  0  0  0  0  0  0
    4.5777   -2.7830    5.6147 C   0  0  0  0  0  0  0  0  0  0  0  0
    5.5104   -3.9680    5.6761 C   0  0  1  0  0  0  0  0  0  0  0  0
    6.2864   -4.1391    6.9929 C   0  0  0  0  0  0  0  0  0  0  0  0
    4.6911   -5.1740    5.2434 C   0  0  0  0  0  0  0  0  0  0  0  0
    3.4209   -4.7071    4.4123 C   0  0  0  0  0  0  0  0  0  0  0  0
    2.1976   -4.1704    4.7950 C   0  0  0  0  0  0  0  0  0  0  0  0
    1.0293   -3.7657    3.8657 C   0  0  0  0  0  0  0  0  0  0  0  0
    3.4541   -5.2773    3.1760 C   0  0  2  0  0  0  0  0  0  0  0  0
    4.0255   -3.6390    2.9390 C   0  0  1  0  0  0  0  0  0  0  0  0
    5.2823   -3.8489    2.0845 C   0  0  0  0  0  0  0  0  0  0  0  0
    4.7758   -4.4926    0.8461 N   0  0  2  0  0  0  0  0  0  0  0  0
    5.5398   -4.2108   -0.3670 C   0  0  0  0  0  0  0  0  0  0  0  0
    4.8776   -2.9693   -0.9380 C   0  0  1  0  0  0  0  0  0  0  0  0
    5.1408   -2.8263   -2.4400 C   0  0  0  0  0  0  0  0  0  0  0  0
    3.3897   -3.1903   -0.6048 C   0  0  0  0  0  0  0  0  0  0  0  0
    3.3135   -3.9314    0.7424 C   0  0  2  0  0  0  0  0  0  0  0  0
    3.2344   -3.0438    1.8633 O   0  0  0  0  0  0  0  0  0  0  0  0
    4.3707   -2.4021    4.0732 C   0  0  1  0  0  0  0  0  0  0  0  0
    3.5253   -1.1336    3.9092 C   0  0  0  0  0  0  0  0  0  0  0  0
   -0.2261   -8.8580    3.1008 H   0  0  0  0  0  0  0  0  0  0  0  0
   -1.5032   -7.6971    2.7162 H   0  0  0  0  0  0  0  0  0  0  0  0
   -0.1712   -7.2027    3.8068 H   0  0  0  0  0  0  0  0  0  0  0  0
    0.9821   -7.0837    7.0574 H   0  0  0  0  0  0  0  0  0  0  0  0
    0.3226   -7.7905    5.5308 H   0  0  0  0  0  0  0  0  0  0  0  0
    3.2341   -8.2833    6.3881 H   0  0  0  0  0  0  0  0  0  0  0  0
    0.8164   -9.8258    7.4294 H   0  0  0  0  0  0  0  0  0  0  0  0
    1.8623   -8.7636    8.3703 H   0  0  0  0  0  0  0  0  0  0  0  0
    2.4977  -10.2685    7.6775 H   0  0  0  0  0  0  0  0  0  0  0  0
    3.0404  -10.3567    5.1484 H   0  0  0  0  0  0  0  0  0  0  0  0
    1.3321  -10.2608    5.0674 H   0  0  0  0  0  0  0  0  0  0  0  0
    1.8243   -9.7749    2.9156 H   0  0  0  0  0  0  0  0  0  0  0  0
    4.5023  -10.1351    1.7168 H   0  0  0  0  0  0  0  0  0  0  0  0
    4.6179   -8.5040    1.0556 H   0  0  0  0  0  0  0  0  0  0  0  0
    3.0924   -9.3912    1.0098 H   0  0  0  0  0  0  0  0  0  0  0  0
    5.3028   -9.5202    3.9528 H   0  0  0  0  0  0  0  0  0  0  0  0
    4.6275   -8.0992    4.7700 H   0  0  0  0  0  0  0  0  0  0  0  0
    5.6008   -7.8794    3.3031 H   0  0  0  0  0  0  0  0  0  0  0  0
    0.4281   -4.9605    7.3108 H   0  0  0  0  0  0  0  0  0  0  0  0
    2.2187   -3.7321    7.9562 H   0  0  0  0  0  0  0  0  0  0  0  0
    3.5322   -4.7598    7.5704 H   0  0  0  0  0  0  0  0  0  0  0  0
    2.7758   -2.0108    6.3398 H   0  0  0  0  0  0  0  0  0  0  0  0
    6.2685   -3.7802    4.9150 H   0  0  0  0  0  0  0  0  0  0  0  0
    6.9548   -3.2888    7.1838 H   0  0  0  0  0  0  0  0  0  0  0  0
    6.9132   -5.0329    6.9568 H   0  0  0  0  0  0  0  0  0  0  0  0
    5.6313   -4.2373    7.8603 H   0  0  0  0  0  0  0  0  0  0  0  0
    5.3834   -5.7702    4.6586 H   0  0  0  0  0  0  0  0  0  0  0  0
    4.4602   -5.8414    6.0691 H   0  0  0  0  0  0  0  0  0  0  0  0
    0.1182   -4.2900    4.1176 H   0  0  0  0  0  0  0  0  0  0  0  0
    1.2394   -4.0348    2.8396 H   0  0  0  0  0  0  0  0  0  0  0  0
    0.8349   -2.6963    3.8985 H   0  0  0  0  0  0  0  0  0  0  0  0
    4.2903   -5.9510    2.9630 H   0  0  0  0  0  0  0  0  0  0  0  0
    5.7729   -2.8932    1.8436 H   0  0  0  0  0  0  0  0  0  0  0  0
    6.0147   -4.5368    2.5180 H   0  0  0  0  0  0  0  0  0  0  0  0
    6.6097   -4.0970   -0.1499 H   0  0  0  0  0  0  0  0  0  0  0  0
    5.3785   -5.0965   -0.9834 H   0  0  0  0  0  0  0  0  0  0  0  0
    5.2379   -2.0936   -0.3798 H   0  0  0  0  0  0  0  0  0  0  0  0
    4.7837   -3.7107   -2.9755 H   0  0  0  0  0  0  0  0  0  0  0  0
    6.2087   -2.7306   -2.6350 H   0  0  0  0  0  0  0  0  0  0  0  0
    4.6175   -1.9566   -2.8340 H   0  0  0  0  0  0  0  0  0  0  0  0
    2.8160   -2.2481   -0.5568 H   0  0  0  0  0  0  0  0  0  0  0  0
    2.9227   -3.8491   -1.3335 H   0  0  0  0  0  0  0  0  0  0  0  0
    2.5135   -4.6733    0.8101 H   0  0  0  0  0  0  0  0  0  0  0  0
    5.3607   -2.0625    3.8120 H   0  0  0  0  0  0  0  0  0  0  0  0
    3.9206   -0.3235    4.5376 H   0  0  0  0  0  0  0  0  0  0  0  0
    2.4923   -1.2639    4.1986 H   0  0  0  0  0  0  0  0  0  0  0  0
    3.5546   -0.7581    2.8974 H   0  0  0  0  0  0  0  0  0  0  0  0
    4.7710   -5.5022    0.9849 H   0  0  0  0  0  0  0  0  0  0  0  0
  1  2  1  0
  1 39  1  0
  1 40  1  0
  1 41  1  0
  2  3  2  0
  2  4  1  0
  5  4  1  6
  5 12  1  0
  5 13  1  0
  5  6  1  0
  6 27  1  0
  6  7  2  0
  7  8  1  0
  7 16  1  0
  8  9  1  0
  8 42  1  0
  8 43  1  0
  9 10  1  0
  9 11  1  0
  9 44  1  1
 10 45  1  0
 10 46  1  0
 10 47  1  0
 11 12  1  0
 11 48  1  0
 11 49  1  0
 12 13  1  0
 12 50  1  6
 13 14  1  0
 13 15  1  0
 14 51  1  0
 14 52  1  0
 14 53  1  0
 15 54  1  0
 15 55  1  0
 15 56  1  0
 16 25  1  0
 16 17  1  1
 16 18  1  0
 17 57  1  0
 18 19  1  0
 18 58  1  0
 18 59  1  0
 19 20  2  3
 19 60  1  0
 20 37  1  0
 20 21  1  0
 21 22  1  0
 21 23  1  0
 21 61  1  6
 22 62  1  0
 22 63  1  0
 22 64  1  0
 23 24  1  0
 23 65  1  0
 23 66  1  0
 24 25  2  0
 24 27  1  0
 25 26  1  0
 26 67  1  0
 26 68  1  0
 26 69  1  0
 27 28  1  0
 27 70  1  1
 28 36  1  6
 28 29  1  0
 28 37  1  0
 29 30  1  0
 29 71  1  0
 29 72  1  0
 30 35  1  0
 30 31  1  0
 30 86  1  1
 31 32  1  0
 31 73  1  0
 31 74  1  0
 32 33  1  0
 32 34  1  0
 32 75  1  1
 33 76  1  0
 33 77  1  0
 33 78  1  0
 34 35  1  0
 34 79  1  0
 34 80  1  0
 35 36  1  0
 35 81  1  6
 37 38  1  0
 37 82  1  6
 38 83  1  0
 38 84  1  0
 38 85  1  0
M  CHG  1  30   1
M  END
>  <i_m_ct_stereo_status>  (94) 
1

>  <s_m_source_file>  (94) 
/var/tmp/pbs.5076255.sched01/tmp06yssb5m/4267g10r58.sdf

>  <i_m_source_file_index>  (94) 
1

>  <i_lp_mmshare_version>  (94) 
48012

>  <i_f3d_flags>  (94) 
0

>  <s_epik_input>  (94) 
W0NIMl0xW0NAQEhdKFtDSDNdKVtDSDJdW0NASF0oTzIpTjFbQ0gyXVtDQF0yM1tDQEBIXTRDNT1DKFtDSDJdW0NAQEhdKFtDSDNdKVtDSDJdW0NASF02W0NAQF01KEM2KFtDSDNdKVtDSDNdKU9DKD1PKVtDSDNdKVtDQEBdNyhbT0hdKVtDSDJdL1tDSF09QyhbQ0BASF0zW0NIM10pXFtDQEBIXShbQ0gzXSlbQ0gyXUM0PUM3W0NIM10=

>  <s_epik_cmdline>  (94) 
J2VwaWtfcHl0aG9uJywgJy1waHQnLCAnMi4wJywgJy1waCcsICc3LjAnLCAnLXRuJywgJzgnLCAnLW1hJywgJzIwMCcsICctaW1hZScsICc8aW5maWxlLm1hZT4nLCAnLW9tYWUnLCAnPG91dGZpbGUubWFlPic=

>  <r_epik_Ionization_Penalty>  (94) 
1.15298

>  <r_epik_Ionization_Penalty_Charging>  (94) 
1.15298

>  <r_epik_Ionization_Penalty_Neutral>  (94) 
2.42999e-07

>  <r_epik_State_Penalty>  (94) 
1.21453

>  <r_epik_Charging_Adjusted_Penalty>  (94) 
2.36752

>  <i_epik_Tot_Q>  (94) 
1

>  <i_epik_Tot_abs_Q>  (94) 
1

>  <s_epik_Chemistry_Notes>  (94) 
This compound has an ester and may undergo hydrolysis at high or low pH. This compound contains an acetal/aminal-like group ( X-CH(R)-Y where X, Y are N, S, or O) that may be acid/base labile, releasing an aldehyde.

>  <s_lp_Force_Field>  (94) 
OPLS3e

>  <r_lp_Energy>  (94) 
377.915

>  <b_lp_Chiralities_Consistent>  (94) 
1

>  <s_lp_Variant>  (94) 
29:0-3

>  <s_i_glide_gridfile>  (94) 
pfpi4k_grid

>  <i_i_glide_lignum>  (94) 
1

>  <i_i_glide_rotatable_bonds>  (94) 
3

>  <r_i_docking_score>  (94) 
-2.73682

>  <r_i_glide_ligand_efficiency>  (94) 
-0.0720216

>  <r_i_glide_ligand_efficiency_sa>  (94) 
-0.242135

>  <r_i_glide_ligand_efficiency_ln>  (94) 
-0.590139

>  <r_i_glide_gscore>  (94) 
-2.73682

>  <r_i_glide_lipo>  (94) 
-0.334248

>  <r_i_glide_hbond>  (94) 
-0.16

>  <r_i_glide_metal>  (94) 
-0

>  <r_i_glide_rewards>  (94) 
0

>  <r_i_glide_evdw>  (94) 
-31.7981

>  <r_i_glide_ecoul>  (94) 
-4.33643

>  <r_i_glide_erotb>  (94) 
0.075262

>  <r_i_glide_esite>  (94) 
-0.0774662

>  <r_i_glide_emodel>  (94) 
-37.9736

>  <r_i_glide_energy>  (94) 
-36.1345

>  <r_i_glide_einternal>  (94) 
5.84776

>  <r_i_glide_intrahb_reward>  (94) 
-0

>  <i_i_glide_confnum>  (94) 
3

>  <i_i_glide_posenum>  (94) 
37

>  <r_i_glide_eff_state_penalty>  (94) 
0

>  <ligand_id>  (94) 
29

>  <original_smiles>  (94) 
CC(=O)OC12C3=C(CC(C)CC1C2(C)C)C1(O)CC=C2C(C)CC(=C1C)C3C1(CN3CC(C)CC3O1)C2C

>  <smiles>  (94) 
[H]OC12C(C([H])([H])[H])=C3C([H])([H])C([H])(C([H])([H])[H])C(=C([H])C1([H])[H])C([H])(C([H])([H])[H])C1(OC4([H])C([H])([H])C([H])(C([H])([H])[H])C([H])([H])[N+]4([H])C1([H])[H])C3([H])C1=C2C([H])([H])C([H])(C([H])([H])[H])C([H])([H])C2([H])C1(OC(=O)C([H])([H])[H])C2(C([H])([H])[H])C([H])([H])[H]

$$$$
29:2:2
     RDKit          3D

 86 92  0  0  1  0  0  0  0  0999 V2000
    2.6520    4.3560    2.8902 C   0  0  0  0  0  0  0  0  0  0  0  0
    1.8825    3.7941    4.0896 C   0  0  0  0  0  0  0  0  0  0  0  0
    1.8529    4.3863    5.1645 O   0  0  0  0  0  0  0  0  0  0  0  0
    1.2754    2.6134    3.8345 O   0  0  0  0  0  0  0  0  0  0  0  0
    0.4459    1.9802    4.8071 C   0  0  1  0  0  0  0  0  0  0  0  0
    1.2289    1.1685    5.7702 C   0  0  0  0  0  0  0  0  0  0  0  0
    1.2151    1.3820    7.2026 C   0  0  0  0  0  0  0  0  0  0  0  0
    0.3073    2.4241    7.8430 C   0  0  0  0  0  0  0  0  0  0  0  0
   -1.1879    2.1310    7.5864 C   0  0  1  0  0  0  0  0  0  0  0  0
   -2.0415    2.5855    8.7789 C   0  0  0  0  0  0  0  0  0  0  0  0
   -1.7206    2.7769    6.2947 C   0  0  0  0  0  0  0  0  0  0  0  0
   -0.8839    2.7068    5.0210 C   0  0  2  0  0  0  0  0  0  0  0  0
   -0.8420    1.4702    4.1459 C   0  0  0  0  0  0  0  0  0  0  0  0
   -1.0928    1.6496    2.6472 C   0  0  0  0  0  0  0  0  0  0  0  0
   -1.4886    0.1779    4.6099 C   0  0  0  0  0  0  0  0  0  0  0  0
    2.3100    0.6428    8.1711 C   0  0  1  0  0  0  0  0  0  0  0  0
    2.9749    1.5862    8.9854 O   0  0  0  0  0  0  0  0  0  0  0  0
    2.2639   -0.7579    9.0197 C   0  0  0  0  0  0  0  0  0  0  0  0
    3.2697   -1.8885    8.5000 C   0  0  0  0  0  0  0  0  0  0  0  0
    3.0665   -2.6233    7.3379 C   0  0  0  0  0  0  0  0  0  0  0  0
    1.6371   -2.8902    6.9211 C   0  0  1  0  0  0  0  0  0  0  0  0
    0.7959   -3.6912    7.9270 C   0  0  0  0  0  0  0  0  0  0  0  0
    1.0672   -1.5311    6.5464 C   0  0  0  0  0  0  0  0  0  0  0  0
    2.2435   -0.5173    6.2069 C   0  0  0  0  0  0  0  0  0  0  0  0
    3.1053    0.2341    7.0135 C   0  0  0  0  0  0  0  0  0  0  0  0
    4.1919    1.2288    6.5227 C   0  0  0  0  0  0  0  0  0  0  0  0
    2.0721   -0.0356    4.9335 C   0  0  2  0  0  0  0  0  0  0  0  0
    3.3196   -1.2610    4.8307 C   0  0  1  0  0  0  0  0  0  0  0  0
    2.8346   -2.0961    3.6405 C   0  0  0  0  0  0  0  0  0  0  0  0
    2.8553   -1.1398    2.5079 N   0  0  2  0  0  0  0  0  0  0  0  0
    3.1161   -1.7248    1.1908 C   0  0  0  0  0  0  0  0  0  0  0  0
    4.6193   -1.6400    1.0510 C   0  0  1  0  0  0  0  0  0  0  0  0
    5.0572   -1.6678   -0.4170 C   0  0  0  0  0  0  0  0  0  0  0  0
    4.9583   -0.3126    1.7500 C   0  0  0  0  0  0  0  0  0  0  0  0
    3.9769   -0.1312    2.9111 C   0  0  2  0  0  0  0  0  0  0  0  0
    4.4639   -0.6840    4.1325 O   0  0  0  0  0  0  0  0  0  0  0  0
    3.9173   -2.3496    5.9999 C   0  0  1  0  0  0  0  0  0  0  0  0
    5.4200   -2.1969    6.3225 C   0  0  0  0  0  0  0  0  0  0  0  0
    3.4042    3.6544    2.5360 H   0  0  0  0  0  0  0  0  0  0  0  0
    3.1630    5.2781    3.1611 H   0  0  0  0  0  0  0  0  0  0  0  0
    1.9725    4.5848    2.0740 H   0  0  0  0  0  0  0  0  0  0  0  0
    0.5001    2.3961    8.9242 H   0  0  0  0  0  0  0  0  0  0  0  0
    0.5996    3.4223    7.4942 H   0  0  0  0  0  0  0  0  0  0  0  0
   -1.3059    1.0510    7.5213 H   0  0  0  0  0  0  0  0  0  0  0  0
   -1.9581    3.6590    8.9454 H   0  0  0  0  0  0  0  0  0  0  0  0
   -1.7364    2.0838    9.6974 H   0  0  0  0  0  0  0  0  0  0  0  0
   -3.0922    2.3581    8.6150 H   0  0  0  0  0  0  0  0  0  0  0  0
   -2.6954    2.3678    6.0494 H   0  0  0  0  0  0  0  0  0  0  0  0
   -1.9043    3.8348    6.4849 H   0  0  0  0  0  0  0  0  0  0  0  0
   -0.9757    3.6257    4.4549 H   0  0  0  0  0  0  0  0  0  0  0  0
   -2.1591    1.6281    2.4251 H   0  0  0  0  0  0  0  0  0  0  0  0
   -0.6128    0.8619    2.0652 H   0  0  0  0  0  0  0  0  0  0  0  0
   -0.7217    2.6022    2.2816 H   0  0  0  0  0  0  0  0  0  0  0  0
   -2.5727    0.2306    4.4955 H   0  0  0  0  0  0  0  0  0  0  0  0
   -1.2822    0.0056    5.6549 H   0  0  0  0  0  0  0  0  0  0  0  0
   -1.1039   -0.6656    4.0297 H   0  0  0  0  0  0  0  0  0  0  0  0
    2.5245    1.6044    9.8139 H   0  0  0  0  0  0  0  0  0  0  0  0
    2.5772   -0.5528   10.0444 H   0  0  0  0  0  0  0  0  0  0  0  0
    1.2483   -1.1217    9.1462 H   0  0  0  0  0  0  0  0  0  0  0  0
    4.2846   -1.5689    8.6677 H   0  0  0  0  0  0  0  0  0  0  0  0
    1.6894   -3.5250    6.0272 H   0  0  0  0  0  0  0  0  0  0  0  0
    1.1962   -4.7026    8.0692 H   0  0  0  0  0  0  0  0  0  0  0  0
   -0.2284   -3.8060    7.5696 H   0  0  0  0  0  0  0  0  0  0  0  0
    0.7473   -3.2291    8.9141 H   0  0  0  0  0  0  0  0  0  0  0  0
    0.4212   -1.7257    5.6976 H   0  0  0  0  0  0  0  0  0  0  0  0
    0.3643   -1.1477    7.2800 H   0  0  0  0  0  0  0  0  0  0  0  0
    4.0618    2.2228    6.9342 H   0  0  0  0  0  0  0  0  0  0  0  0
    4.1668    1.3684    5.4474 H   0  0  0  0  0  0  0  0  0  0  0  0
    5.1877    0.8834    6.7867 H   0  0  0  0  0  0  0  0  0  0  0  0
    1.2173   -0.4050    4.3826 H   0  0  0  0  0  0  0  0  0  0  0  0
    3.5009   -2.9533    3.4393 H   0  0  0  0  0  0  0  0  0  0  0  0
    1.8244   -2.4837    3.7730 H   0  0  0  0  0  0  0  0  0  0  0  0
    2.7014   -2.7327    1.1021 H   0  0  0  0  0  0  0  0  0  0  0  0
    2.6226   -1.0580    0.4872 H   0  0  0  0  0  0  0  0  0  0  0  0
    5.0770   -2.4610    1.6143 H   0  0  0  0  0  0  0  0  0  0  0  0
    4.5950   -0.8503   -0.9794 H   0  0  0  0  0  0  0  0  0  0  0  0
    4.7536   -2.6047   -0.8837 H   0  0  0  0  0  0  0  0  0  0  0  0
    6.1392   -1.5646   -0.4937 H   0  0  0  0  0  0  0  0  0  0  0  0
    6.0033   -0.2728    2.0965 H   0  0  0  0  0  0  0  0  0  0  0  0
    4.7806    0.5200    1.0754 H   0  0  0  0  0  0  0  0  0  0  0  0
    3.6502    0.8978    3.0770 H   0  0  0  0  0  0  0  0  0  0  0  0
    3.8969   -3.3363    5.5413 H   0  0  0  0  0  0  0  0  0  0  0  0
    5.7917   -3.0319    6.9409 H   0  0  0  0  0  0  0  0  0  0  0  0
    5.6551   -1.2853    6.8601 H   0  0  0  0  0  0  0  0  0  0  0  0
    6.0120   -2.2219    5.4193 H   0  0  0  0  0  0  0  0  0  0  0  0
    1.9548   -0.6830    2.4812 H   0  0  0  0  0  0  0  0  0  0  0  0
  1  2  1  0
  1 39  1  0
  1 40  1  0
  1 41  1  0
  2  3  2  0
  2  4  1  0
  5  4  1  6
  5 12  1  0
  5 13  1  0
  5  6  1  0
  6 27  1  0
  6  7  2  0
  7  8  1  0
  7 16  1  0
  8  9  1  0
  8 42  1  0
  8 43  1  0
  9 10  1  0
  9 11  1  0
  9 44  1  6
 10 45  1  0
 10 46  1  0
 10 47  1  0
 11 12  1  0
 11 48  1  0
 11 49  1  0
 12 13  1  0
 12 50  1  6
 13 14  1  0
 13 15  1  0
 14 51  1  0
 14 52  1  0
 14 53  1  0
 15 54  1  0
 15 55  1  0
 15 56  1  0
 16 25  1  0
 16 17  1  1
 16 18  1  0
 17 57  1  0
 18 19  1  0
 18 58  1  0
 18 59  1  0
 19 20  2  3
 19 60  1  0
 20 37  1  0
 20 21  1  0
 21 22  1  0
 21 23  1  0
 21 61  1  6
 22 62  1  0
 22 63  1  0
 22 64  1  0
 23 24  1  0
 23 65  1  0
 23 66  1  0
 24 25  2  0
 24 27  1  0
 25 26  1  0
 26 67  1  0
 26 68  1  0
 26 69  1  0
 27 28  1  0
 27 70  1  6
 28 36  1  6
 28 29  1  0
 28 37  1  0
 29 30  1  0
 29 71  1  0
 29 72  1  0
 30 35  1  0
 30 31  1  0
 30 86  1  6
 31 32  1  0
 31 73  1  0
 31 74  1  0
 32 33  1  0
 32 34  1  0
 32 75  1  1
 33 76  1  0
 33 77  1  0
 33 78  1  0
 34 35  1  0
 34 79  1  0
 34 80  1  0
 35 36  1  0
 35 81  1  1
 37 38  1  0
 37 82  1  6
 38 83  1  0
 38 84  1  0
 38 85  1  0
M  CHG  1  30   1
M  END
>  <i_m_ct_stereo_status>  (95) 
1

>  <s_m_source_file>  (95) 
/var/tmp/pbs.5076255.sched01/tmp06yssb5m/4267g10r58.sdf

>  <i_m_source_file_index>  (95) 
1

>  <i_lp_mmshare_version>  (95) 
48012

>  <i_f3d_flags>  (95) 
0

>  <s_epik_input>  (95) 
W0NIMl0xW0NAQEhdKFtDSDNdKVtDSDJdW0NASF0oTzIpTjFbQ0gyXVtDQF0yM1tDQEBIXTRDNT1DKFtDSDJdW0NAQEhdKFtDSDNdKVtDSDJdW0NASF02W0NAQF01KEM2KFtDSDNdKVtDSDNdKU9DKD1PKVtDSDNdKVtDQEBdNyhbT0hdKVtDSDJdL1tDSF09QyhbQ0BASF0zW0NIM10pXFtDQEBIXShbQ0gzXSlbQ0gyXUM0PUM3W0NIM10=

>  <s_epik_cmdline>  (95) 
J2VwaWtfcHl0aG9uJywgJy1waHQnLCAnMi4wJywgJy1waCcsICc3LjAnLCAnLXRuJywgJzgnLCAnLW1hJywgJzIwMCcsICctaW1hZScsICc8aW5maWxlLm1hZT4nLCAnLW9tYWUnLCAnPG91dGZpbGUubWFlPic=

>  <r_epik_Ionization_Penalty>  (95) 
1.15298

>  <r_epik_Ionization_Penalty_Charging>  (95) 
1.15298

>  <r_epik_Ionization_Penalty_Neutral>  (95) 
2.42999e-07

>  <r_epik_State_Penalty>  (95) 
1.21453

>  <r_epik_Charging_Adjusted_Penalty>  (95) 
2.36752

>  <i_epik_Tot_Q>  (95) 
1

>  <i_epik_Tot_abs_Q>  (95) 
1

>  <s_epik_Chemistry_Notes>  (95) 
This compound has an ester and may undergo hydrolysis at high or low pH. This compound contains an acetal/aminal-like group ( X-CH(R)-Y where X, Y are N, S, or O) that may be acid/base labile, releasing an aldehyde.

>  <s_lp_Force_Field>  (95) 
OPLS3e

>  <r_lp_Energy>  (95) 
377.915

>  <b_lp_Chiralities_Consistent>  (95) 
1

>  <s_lp_Variant>  (95) 
29:0-3

>  <s_i_glide_gridfile>  (95) 
pfpi4k_grid

>  <i_i_glide_lignum>  (95) 
1

>  <i_i_glide_rotatable_bonds>  (95) 
3

>  <r_i_docking_score>  (95) 
-2.26765

>  <r_i_glide_ligand_efficiency>  (95) 
-0.059675

>  <r_i_glide_ligand_efficiency_sa>  (95) 
-0.200626

>  <r_i_glide_ligand_efficiency_ln>  (95) 
-0.488972

>  <r_i_glide_gscore>  (95) 
-2.26765

>  <r_i_glide_lipo>  (95) 
-0.239393

>  <r_i_glide_hbond>  (95) 
0

>  <r_i_glide_metal>  (95) 
-0

>  <r_i_glide_rewards>  (95) 
-0.0282435

>  <r_i_glide_evdw>  (95) 
-28.7067

>  <r_i_glide_ecoul>  (95) 
-4.03144

>  <r_i_glide_erotb>  (95) 
0.075262

>  <r_i_glide_esite>  (95) 
-0.0352261

>  <r_i_glide_emodel>  (95) 
-36.978

>  <r_i_glide_energy>  (95) 
-32.7381

>  <r_i_glide_einternal>  (95) 
0.280221

>  <r_i_glide_intrahb_reward>  (95) 
-0

>  <i_i_glide_confnum>  (95) 
3

>  <i_i_glide_posenum>  (95) 
2

>  <r_i_glide_eff_state_penalty>  (95) 
0

>  <ligand_id>  (95) 
29

>  <original_smiles>  (95) 
CC(=O)OC12C3=C(CC(C)CC1C2(C)C)C1(O)CC=C2C(C)CC(=C1C)C3C1(CN3CC(C)CC3O1)C2C

>  <smiles>  (95) 
[H]OC12C(C([H])([H])[H])=C3C([H])([H])C([H])(C([H])([H])[H])C(=C([H])C1([H])[H])C([H])(C([H])([H])[H])C1(OC4([H])C([H])([H])C([H])(C([H])([H])[H])C([H])([H])[N+]4([H])C1([H])[H])C3([H])C1=C2C([H])([H])C([H])(C([H])([H])[H])C([H])([H])C2([H])C1(OC(=O)C([H])([H])[H])C2(C([H])([H])[H])C([H])([H])[H]

$$$$
30:0:0
     RDKit          3D

 54 58  0  0  1  0  0  0  0  0999 V2000
    1.2522   -5.9384    3.0670 C   0  0  0  0  0  0  0  0  0  0  0  0
    2.6796   -6.1278    2.5316 C   0  0  2  0  0  0  0  0  0  0  0  0
    2.8632   -7.5339    1.9064 C   0  0  0  0  0  0  0  0  0  0  0  0
    3.6602   -7.9847    3.1205 C   0  0  1  0  0  0  0  0  0  0  0  0
    4.8624   -8.6850    2.8830 O   0  0  0  0  0  0  0  0  0  0  0  0
    3.7634   -6.5234    3.5986 C   0  0  2  0  0  0  0  0  0  0  0  0
    3.3866   -6.3489    5.0787 C   0  0  0  0  0  0  0  0  0  0  0  0
    5.0828   -5.7730    3.2964 C   0  0  2  0  0  0  0  0  0  0  0  0
    4.9313   -4.2463    3.2694 C   0  0  0  0  0  0  0  0  0  0  0  0
    4.5332   -4.4012    1.7921 C   0  0  1  0  0  0  0  0  0  0  0  0
    5.5149   -5.6075    1.8258 C   0  0  1  0  0  0  0  0  0  0  0  0
    6.9020   -5.4175    1.6053 O   0  0  0  0  0  0  0  0  0  0  0  0
    3.0367   -4.8661    1.6447 C   0  0  1  0  0  0  0  0  0  0  0  0
    2.6504   -5.0336    0.1571 C   0  0  0  0  0  0  0  0  0  0  0  0
    2.8784   -3.7370   -0.6299 C   0  0  0  0  0  0  0  0  0  0  0  0
    4.3479   -3.2464   -0.5952 C   0  0  1  0  0  0  0  0  0  0  0  0
    5.2344   -4.1717   -1.4608 C   0  0  0  0  0  0  0  0  0  0  0  0
    4.4648   -1.7678   -1.0600 C   0  0  1  0  0  0  0  0  0  0  0  0
    3.6906   -1.4031   -2.3343 C   0  0  0  0  0  0  0  0  0  0  0  0
    4.2202   -1.4960   -3.4421 O   0  0  0  0  0  0  0  0  0  0  0  0
    4.1007   -0.9038    0.1623 C   0  0  0  0  0  0  0  0  0  0  0  0
    4.1845   -1.8320    1.3848 C   0  0  0  0  0  0  0  0  0  0  0  0
    4.8173   -3.1461    0.8834 C   0  0  1  0  0  0  0  0  0  0  0  0
    6.2074   -2.8642    0.8874 O   0  0  0  0  0  0  0  0  0  0  0  0
    0.5374   -5.8236    2.2528 H   0  0  0  0  0  0  0  0  0  0  0  0
    1.1772   -5.0649    3.7163 H   0  0  0  0  0  0  0  0  0  0  0  0
    0.9315   -6.8045    3.6464 H   0  0  0  0  0  0  0  0  0  0  0  0
    1.9387   -8.0961    1.7807 H   0  0  0  0  0  0  0  0  0  0  0  0
    3.4517   -7.5905    0.9975 H   0  0  0  0  0  0  0  0  0  0  0  0
    3.0316   -8.5776    3.7895 H   0  0  0  0  0  0  0  0  0  0  0  0
    4.6222   -9.5785    2.6700 H   0  0  0  0  0  0  0  0  0  0  0  0
    4.1999   -6.6721    5.7271 H   0  0  0  0  0  0  0  0  0  0  0  0
    2.5102   -6.9354    5.3619 H   0  0  0  0  0  0  0  0  0  0  0  0
    3.1715   -5.3099    5.3216 H   0  0  0  0  0  0  0  0  0  0  0  0
    5.8977   -6.1021    3.9409 H   0  0  0  0  0  0  0  0  0  0  0  0
    4.1441   -3.8404    3.9006 H   0  0  0  0  0  0  0  0  0  0  0  0
    5.8679   -3.7155    3.4182 H   0  0  0  0  0  0  0  0  0  0  0  0
    5.2008   -6.4163    1.1786 H   0  0  0  0  0  0  0  0  0  0  0  0
    7.3031   -6.2617    1.7364 H   0  0  0  0  0  0  0  0  0  0  0  0
    2.4143   -4.0489    2.0142 H   0  0  0  0  0  0  0  0  0  0  0  0
    3.2331   -5.8335   -0.3051 H   0  0  0  0  0  0  0  0  0  0  0  0
    1.6052   -5.3336    0.0788 H   0  0  0  0  0  0  0  0  0  0  0  0
    2.5599   -3.8902   -1.6598 H   0  0  0  0  0  0  0  0  0  0  0  0
    2.2158   -2.9712   -0.2244 H   0  0  0  0  0  0  0  0  0  0  0  0
    6.2551   -3.7982   -1.5406 H   0  0  0  0  0  0  0  0  0  0  0  0
    4.8494   -4.2474   -2.4780 H   0  0  0  0  0  0  0  0  0  0  0  0
    5.2925   -5.1821   -1.0562 H   0  0  0  0  0  0  0  0  0  0  0  0
    5.5151   -1.5779   -1.2757 H   0  0  0  0  0  0  0  0  0  0  0  0
    2.6699   -1.0518   -2.1917 H   0  0  0  0  0  0  0  0  0  0  0  0
    4.8072   -0.0789    0.2556 H   0  0  0  0  0  0  0  0  0  0  0  0
    3.0965   -0.4851    0.0892 H   0  0  0  0  0  0  0  0  0  0  0  0
    4.7513   -1.3877    2.2076 H   0  0  0  0  0  0  0  0  0  0  0  0
    3.1761   -1.9973    1.7563 H   0  0  0  0  0  0  0  0  0  0  0  0
    6.6577   -3.6934    0.7633 H   0  0  0  0  0  0  0  0  0  0  0  0
  2  1  1  1
  1 25  1  0
  1 26  1  0
  1 27  1  0
  2  6  1  0
  2 13  1  0
  2  3  1  0
  3  4  1  0
  3 28  1  0
  3 29  1  0
  4  5  1  0
  4  6  1  0
  4 30  1  1
  5 31  1  0
  6  7  1  1
  6  8  1  0
  7 32  1  0
  7 33  1  0
  7 34  1  0
  8 11  1  0
  8  9  1  0
  8 35  1  1
 10  9  1  1
  9 36  1  0
  9 37  1  0
 10 23  1  0
 10 11  1  0
 10 13  1  0
 11 12  1  0
 11 38  1  6
 12 39  1  0
 13 14  1  0
 13 40  1  1
 14 15  1  0
 14 41  1  0
 14 42  1  0
 15 16  1  0
 15 43  1  0
 15 44  1  0
 16 23  1  0
 16 17  1  6
 16 18  1  0
 17 45  1  0
 17 46  1  0
 17 47  1  0
 18 19  1  0
 18 21  1  0
 18 48  1  6
 19 20  2  0
 19 49  1  0
 21 22  1  0
 21 50  1  0
 21 51  1  0
 22 23  1  0
 22 52  1  0
 22 53  1  0
 23 24  1  6
 24 54  1  0
M  END
>  <i_m_ct_stereo_status>  (96) 
1

>  <s_m_source_file>  (96) 
/var/tmp/pbs.5076255.sched01/tmp06yssb5m/4267g10r58.sdf

>  <i_m_source_file_index>  (96) 
3

>  <i_lp_mmshare_version>  (96) 
48012

>  <i_f3d_flags>  (96) 
0

>  <s_epik_input>  (96) 
W09IXVtDQEhdMVtDQEBIXShbQ0gyXTIpW0NAXShbQ0gzXSkoW0NAQEhdKFtDSDJdMylbT0hdKVtDQEBdMyhbQ0gzXSlbQ0BASF0oW0NAXTEyNClbQ0gyXVtDSDJdW0NAXTUoW0NIM10pW0NAQF00KFtPSF0pW0NIMl1bQ0gyXVtDQEBIXTVbQ0hdPU8=

>  <s_epik_cmdline>  (96) 
J2VwaWtfcHl0aG9uJywgJy1waHQnLCAnMi4wJywgJy1waCcsICc3LjAnLCAnLXRuJywgJzgnLCAnLW1hJywgJzIwMCcsICctaW1hZScsICc8aW5maWxlLm1hZT4nLCAnLW9tYWUnLCAnPG91dGZpbGUubWFlPic=

>  <r_lp_tautomer_probability>  (96) 
1

>  <r_epik_Ionization_Penalty>  (96) 
4.44749e-06

>  <r_epik_Ionization_Penalty_Charging>  (96) 
0

>  <r_epik_Ionization_Penalty_Neutral>  (96) 
4.44749e-06

>  <r_epik_State_Penalty>  (96) 
-0

>  <r_epik_Charging_Adjusted_Penalty>  (96) 
0

>  <i_epik_Tot_Q>  (96) 
0

>  <i_epik_Tot_abs_Q>  (96) 
0

>  <s_lp_Force_Field>  (96) 
OPLS3e

>  <r_lp_Energy>  (96) 
63.76

>  <b_lp_Chiralities_Consistent>  (96) 
1

>  <s_lp_Variant>  (96) 
30:0-1

>  <s_i_glide_gridfile>  (96) 
pfpi4k_grid

>  <i_i_glide_lignum>  (96) 
3

>  <i_i_glide_rotatable_bonds>  (96) 
4

>  <r_i_docking_score>  (96) 
-3.26725

>  <r_i_glide_ligand_efficiency>  (96) 
-0.136136

>  <r_i_glide_ligand_efficiency_sa>  (96) 
-0.392683

>  <r_i_glide_ligand_efficiency_ln>  (96) 
-0.782004

>  <r_i_glide_gscore>  (96) 
-3.26725

>  <r_i_glide_lipo>  (96) 
-0.142628

>  <r_i_glide_hbond>  (96) 
0

>  <r_i_glide_metal>  (96) 
-0

>  <r_i_glide_rewards>  (96) 
-1.62875

>  <r_i_glide_evdw>  (96) 
-20.4024

>  <r_i_glide_ecoul>  (96) 
-2.76744

>  <r_i_glide_erotb>  (96) 
0

>  <r_i_glide_esite>  (96) 
-0.0606368

>  <r_i_glide_emodel>  (96) 
-31.3925

>  <r_i_glide_energy>  (96) 
-23.1699

>  <r_i_glide_einternal>  (96) 
3.09806

>  <r_i_glide_intrahb_reward>  (96) 
-0.5

>  <i_i_glide_confnum>  (96) 
1

>  <i_i_glide_posenum>  (96) 
29

>  <r_i_glide_eff_state_penalty>  (96) 
0

>  <ligand_id>  (96) 
30

>  <original_smiles>  (96) 
CC12CC(O)C1(C)C1CC3(C1O)C2CCC1(C)C(C=O)CCC13O

>  <smiles>  (96) 
[H]OC1([H])C2([H])C([H])([H])C13C([H])(C([H])([H])C([H])([H])C1(C([H])([H])[H])C([H])(C([H])=O)C([H])([H])C([H])([H])C13O[H])C1(C([H])([H])[H])C([H])([H])C([H])(O[H])C21C([H])([H])[H]

$$$$
30:0:1
     RDKit          3D

 54 58  0  0  1  0  0  0  0  0999 V2000
    1.4396   -4.5268    2.9001 C   0  0  0  0  0  0  0  0  0  0  0  0
    2.8839   -4.7602    2.4690 C   0  0  2  0  0  0  0  0  0  0  0  0
    3.1898   -6.2767    2.4054 C   0  0  0  0  0  0  0  0  0  0  0  0
    3.9645   -6.1777    3.7061 C   0  0  1  0  0  0  0  0  0  0  0  0
    5.2148   -6.8233    3.7626 O   0  0  0  0  0  0  0  0  0  0  0  0
    3.9528   -4.6402    3.6085 C   0  0  2  0  0  0  0  0  0  0  0  0
    3.5072   -3.9601    4.9095 C   0  0  0  0  0  0  0  0  0  0  0  0
    5.2204   -3.9681    3.0533 C   0  0  2  0  0  0  0  0  0  0  0  0
    4.9844   -2.5695    2.4631 C   0  0  0  0  0  0  0  0  0  0  0  0
    4.6270   -3.2827    1.1435 C   0  0  1  0  0  0  0  0  0  0  0  0
    5.6870   -4.3219    1.6213 C   0  0  1  0  0  0  0  0  0  0  0  0
    7.0616   -4.1610    1.3235 O   0  0  0  0  0  0  0  0  0  0  0  0
    3.1710   -3.8843    1.1809 C   0  0  1  0  0  0  0  0  0  0  0  0
    2.8332   -4.6150   -0.1360 C   0  0  0  0  0  0  0  0  0  0  0  0
    2.9845   -3.6671   -1.3292 C   0  0  0  0  0  0  0  0  0  0  0  0
    4.4193   -3.1111   -1.4973 C   0  0  1  0  0  0  0  0  0  0  0  0
    5.3865   -4.2181   -1.9499 C   0  0  0  0  0  0  0  0  0  0  0  0
    4.4647   -1.9305   -2.4922 C   0  0  1  0  0  0  0  0  0  0  0  0
    3.7260   -2.1050   -3.8243 C   0  0  0  0  0  0  0  0  0  0  0  0
    3.8485   -1.2548   -4.7048 O   0  0  0  0  0  0  0  0  0  0  0  0
    3.9893   -0.7149   -1.7008 C   0  0  0  0  0  0  0  0  0  0  0  0
    4.0886   -1.0868   -0.2076 C   0  0  0  0  0  0  0  0  0  0  0  0
    4.8423   -2.4346   -0.1667 C   0  0  1  0  0  0  0  0  0  0  0  0
    6.2036   -2.0236   -0.2549 O   0  0  0  0  0  0  0  0  0  0  0  0
    0.7717   -4.8874    2.1245 H   0  0  0  0  0  0  0  0  0  0  0  0
    1.2407   -3.4760    3.1202 H   0  0  0  0  0  0  0  0  0  0  0  0
    1.1847   -5.1036    3.7914 H   0  0  0  0  0  0  0  0  0  0  0  0
    2.3093   -6.9139    2.4897 H   0  0  0  0  0  0  0  0  0  0  0  0
    3.8034   -6.6247    1.5816 H   0  0  0  0  0  0  0  0  0  0  0  0
    3.3410   -6.5350    4.5262 H   0  0  0  0  0  0  0  0  0  0  0  0
    5.4033   -6.9784    4.6784 H   0  0  0  0  0  0  0  0  0  0  0  0
    4.3169   -3.9546    5.6363 H   0  0  0  0  0  0  0  0  0  0  0  0
    2.6671   -4.4689    5.3828 H   0  0  0  0  0  0  0  0  0  0  0  0
    3.2067   -2.9279    4.7422 H   0  0  0  0  0  0  0  0  0  0  0  0
    6.0200   -3.9863    3.7862 H   0  0  0  0  0  0  0  0  0  0  0  0
    4.1462   -2.0110    2.8811 H   0  0  0  0  0  0  0  0  0  0  0  0
    5.8865   -1.9581    2.4229 H   0  0  0  0  0  0  0  0  0  0  0  0
    5.4233   -5.3265    1.3202 H   0  0  0  0  0  0  0  0  0  0  0  0
    7.3189   -3.3107    1.6349 H   0  0  0  0  0  0  0  0  0  0  0  0
    2.4738   -3.0436    1.2167 H   0  0  0  0  0  0  0  0  0  0  0  0
    3.4866   -5.4789   -0.2743 H   0  0  0  0  0  0  0  0  0  0  0  0
    1.8159   -5.0006   -0.1069 H   0  0  0  0  0  0  0  0  0  0  0  0
    2.6799   -4.2041   -2.2158 H   0  0  0  0  0  0  0  0  0  0  0  0
    2.2616   -2.8573   -1.2251 H   0  0  0  0  0  0  0  0  0  0  0  0
    6.3836   -3.8247   -2.1538 H   0  0  0  0  0  0  0  0  0  0  0  0
    5.0239   -4.6748   -2.8703 H   0  0  0  0  0  0  0  0  0  0  0  0
    5.4779   -5.0004   -1.1951 H   0  0  0  0  0  0  0  0  0  0  0  0
    5.5099   -1.7605   -2.7304 H   0  0  0  0  0  0  0  0  0  0  0  0
    3.0973   -2.9842   -3.9538 H   0  0  0  0  0  0  0  0  0  0  0  0
    4.6064    0.1409   -1.9460 H   0  0  0  0  0  0  0  0  0  0  0  0
    2.9494   -0.5292   -1.9710 H   0  0  0  0  0  0  0  0  0  0  0  0
    4.5808   -0.3112    0.3807 H   0  0  0  0  0  0  0  0  0  0  0  0
    3.0842   -1.1819    0.1995 H   0  0  0  0  0  0  0  0  0  0  0  0
    6.4396   -1.6371    0.5713 H   0  0  0  0  0  0  0  0  0  0  0  0
  2  1  1  1
  1 25  1  0
  1 26  1  0
  1 27  1  0
  2  6  1  0
  2 13  1  0
  2  3  1  0
  3  4  1  0
  3 28  1  0
  3 29  1  0
  4  5  1  0
  4  6  1  0
  4 30  1  1
  5 31  1  0
  6  7  1  1
  6  8  1  0
  7 32  1  0
  7 33  1  0
  7 34  1  0
  8 11  1  0
  8  9  1  0
  8 35  1  1
 10  9  1  1
  9 36  1  0
  9 37  1  0
 10 23  1  0
 10 11  1  0
 10 13  1  0
 11 12  1  0
 11 38  1  6
 12 39  1  0
 13 14  1  0
 13 40  1  1
 14 15  1  0
 14 41  1  0
 14 42  1  0
 15 16  1  0
 15 43  1  0
 15 44  1  0
 16 23  1  0
 16 17  1  6
 16 18  1  0
 17 45  1  0
 17 46  1  0
 17 47  1  0
 18 19  1  0
 18 21  1  0
 18 48  1  6
 19 20  2  0
 19 49  1  0
 21 22  1  0
 21 50  1  0
 21 51  1  0
 22 23  1  0
 22 52  1  0
 22 53  1  0
 23 24  1  6
 24 54  1  0
M  END
>  <i_m_ct_stereo_status>  (97) 
1

>  <s_m_source_file>  (97) 
/var/tmp/pbs.5076255.sched01/tmp06yssb5m/4267g10r58.sdf

>  <i_m_source_file_index>  (97) 
3

>  <i_lp_mmshare_version>  (97) 
48012

>  <i_f3d_flags>  (97) 
0

>  <s_epik_input>  (97) 
W09IXVtDQEhdMVtDQEBIXShbQ0gyXTIpW0NAXShbQ0gzXSkoW0NAQEhdKFtDSDJdMylbT0hdKVtDQEBdMyhbQ0gzXSlbQ0BASF0oW0NAXTEyNClbQ0gyXVtDSDJdW0NAXTUoW0NIM10pW0NAQF00KFtPSF0pW0NIMl1bQ0gyXVtDQEBIXTVbQ0hdPU8=

>  <s_epik_cmdline>  (97) 
J2VwaWtfcHl0aG9uJywgJy1waHQnLCAnMi4wJywgJy1waCcsICc3LjAnLCAnLXRuJywgJzgnLCAnLW1hJywgJzIwMCcsICctaW1hZScsICc8aW5maWxlLm1hZT4nLCAnLW9tYWUnLCAnPG91dGZpbGUubWFlPic=

>  <r_lp_tautomer_probability>  (97) 
1

>  <r_epik_Ionization_Penalty>  (97) 
4.44749e-06

>  <r_epik_Ionization_Penalty_Charging>  (97) 
0

>  <r_epik_Ionization_Penalty_Neutral>  (97) 
4.44749e-06

>  <r_epik_State_Penalty>  (97) 
-0

>  <r_epik_Charging_Adjusted_Penalty>  (97) 
0

>  <i_epik_Tot_Q>  (97) 
0

>  <i_epik_Tot_abs_Q>  (97) 
0

>  <s_lp_Force_Field>  (97) 
OPLS3e

>  <r_lp_Energy>  (97) 
63.76

>  <b_lp_Chiralities_Consistent>  (97) 
1

>  <s_lp_Variant>  (97) 
30:0-1

>  <s_i_glide_gridfile>  (97) 
pfpi4k_grid

>  <i_i_glide_lignum>  (97) 
3

>  <i_i_glide_rotatable_bonds>  (97) 
4

>  <r_i_docking_score>  (97) 
-3.21619

>  <r_i_glide_ligand_efficiency>  (97) 
-0.134008

>  <r_i_glide_ligand_efficiency_sa>  (97) 
-0.386546

>  <r_i_glide_ligand_efficiency_ln>  (97) 
-0.769782

>  <r_i_glide_gscore>  (97) 
-3.21619

>  <r_i_glide_lipo>  (97) 
-0.198844

>  <r_i_glide_hbond>  (97) 
-0.32

>  <r_i_glide_metal>  (97) 
-0

>  <r_i_glide_rewards>  (97) 
-1.29065

>  <r_i_glide_evdw>  (97) 
-15.687

>  <r_i_glide_ecoul>  (97) 
-4.14897

>  <r_i_glide_erotb>  (97) 
0

>  <r_i_glide_esite>  (97) 
0

>  <r_i_glide_emodel>  (97) 
-23.413

>  <r_i_glide_energy>  (97) 
-19.836

>  <r_i_glide_einternal>  (97) 
2.00553

>  <r_i_glide_intrahb_reward>  (97) 
-0

>  <i_i_glide_confnum>  (97) 
1

>  <i_i_glide_posenum>  (97) 
2

>  <r_i_glide_eff_state_penalty>  (97) 
0

>  <ligand_id>  (97) 
30

>  <original_smiles>  (97) 
CC12CC(O)C1(C)C1CC3(C1O)C2CCC1(C)C(C=O)CCC13O

>  <smiles>  (97) 
[H]OC1([H])C2([H])C([H])([H])C13C([H])(C([H])([H])C([H])([H])C1(C([H])([H])[H])C([H])(C([H])=O)C([H])([H])C([H])([H])C13O[H])C1(C([H])([H])[H])C([H])([H])C([H])(O[H])C21C([H])([H])[H]

$$$$
31:0:0
     RDKit          3D

 64 70  0  0  1  0  0  0  0  0999 V2000
   -1.0926    8.8767    8.6763 C   0  0  0  0  0  0  0  0  0  0  0  0
   -0.1284    7.8816    8.0013 C   0  0  2  0  0  0  0  0  0  0  0  0
   -0.8034    6.7394    7.3780 O   0  0  0  0  0  0  0  0  0  0  0  0
   -0.2059    5.8046    8.3395 C   0  0  2  0  0  0  0  0  0  0  0  0
   -1.3425    5.0742    9.1432 C   0  0  2  0  0  0  0  0  0  0  0  0
   -2.1735    6.0159   10.0278 C   0  0  0  0  0  0  0  0  0  0  0  0
   -0.9154    3.8517    9.9566 C   0  0  0  0  0  0  0  0  0  0  0  0
    0.1105    3.8268   10.8160 C   0  0  0  0  0  0  0  0  0  0  0  0
    0.2733    2.4721   11.4069 C   0  0  2  0  0  0  0  0  0  0  0  0
    0.4613    1.3484   10.5041 O   0  0  0  0  0  0  0  0  0  0  0  0
   -0.8809    1.6717   10.8984 C   0  0  2  0  0  0  0  0  0  0  0  0
   -1.7027    2.5297    9.9366 C   0  0  1  0  0  0  0  0  0  0  0  0
   -3.0063    2.6942   10.4716 O   0  0  0  0  0  0  0  0  0  0  0  0
    0.7468    6.9194    8.8155 C   0  0  1  0  0  0  0  0  0  0  0  0
    1.9969    6.2516    8.1402 C   0  0  1  0  0  0  0  0  0  0  0  0
    2.4995    7.0249    6.9050 C   0  0  0  0  0  0  0  0  0  0  0  0
    3.2593    5.9075    8.9994 C   0  0  1  0  0  0  0  0  0  0  0  0
    3.0203    5.4744   10.4782 C   0  0  0  0  0  0  0  0  0  0  0  0
    4.1504    4.8288    8.3117 C   0  0  0  0  0  0  0  0  0  0  0  0
    3.5044    3.4873    7.8330 C   0  0  0  0  0  0  0  0  0  0  0  0
    2.5374    3.4643    6.5976 C   0  0  2  0  0  0  0  0  0  0  0  0
    3.0505    4.1279    5.3372 C   0  0  0  0  0  0  0  0  0  0  0  0
    4.2242    4.0728    4.9608 O   0  0  0  0  0  0  0  0  0  0  0  0
    2.0620    4.7836    4.7162 O   0  0  0  0  0  0  0  0  0  0  0  0
    0.7912    4.6387    5.3443 C   0  0  1  0  0  0  0  0  0  0  0  0
   -0.0572    3.7236    4.4859 C   0  0  0  0  0  0  0  0  0  0  0  0
   -1.3933    3.5760    4.3186 C   0  0  0  0  0  0  0  0  0  0  0  0
   -1.5536    2.5323    3.3477 C   0  0  0  0  0  0  0  0  0  0  0  0
   -0.3063    2.1338    3.0234 C   0  0  0  0  0  0  0  0  0  0  0  0
    0.6332    2.8244    3.7228 O   0  0  0  0  0  0  0  0  0  0  0  0
    1.1261    4.0589    6.7349 C   0  0  2  0  0  0  0  0  0  0  0  0
    1.0581    5.0452    7.9013 C   0  0  2  0  0  0  0  0  0  0  0  0
   -0.5193    9.7375    9.0546 H   0  0  0  0  0  0  0  0  0  0  0  0
   -1.6338    8.4377    9.5183 H   0  0  0  0  0  0  0  0  0  0  0  0
   -1.8089    9.2637    7.9345 H   0  0  0  0  0  0  0  0  0  0  0  0
    0.4664    8.4249    7.2617 H   0  0  0  0  0  0  0  0  0  0  0  0
   -2.0335    4.7010    8.3939 H   0  0  0  0  0  0  0  0  0  0  0  0
   -2.9722    5.4629   10.5367 H   0  0  0  0  0  0  0  0  0  0  0  0
   -2.6341    6.7865    9.4061 H   0  0  0  0  0  0  0  0  0  0  0  0
   -1.5481    6.4907   10.7930 H   0  0  0  0  0  0  0  0  0  0  0  0
    0.7644    4.6543   11.0482 H   0  0  0  0  0  0  0  0  0  0  0  0
    0.5781    2.3434   12.4490 H   0  0  0  0  0  0  0  0  0  0  0  0
   -1.3531    0.9854   11.6073 H   0  0  0  0  0  0  0  0  0  0  0  0
   -1.7089    2.0993    8.9222 H   0  0  0  0  0  0  0  0  0  0  0  0
   -2.9585    2.5224   11.4181 H   0  0  0  0  0  0  0  0  0  0  0  0
    0.7752    7.1276    9.8816 H   0  0  0  0  0  0  0  0  0  0  0  0
    3.3576    6.5671    6.4260 H   0  0  0  0  0  0  0  0  0  0  0  0
    2.7770    8.0403    7.1831 H   0  0  0  0  0  0  0  0  0  0  0  0
    1.7243    7.0931    6.1480 H   0  0  0  0  0  0  0  0  0  0  0  0
    3.8531    6.8276    9.0672 H   0  0  0  0  0  0  0  0  0  0  0  0
    2.5442    4.5005   10.5358 H   0  0  0  0  0  0  0  0  0  0  0  0
    2.4113    6.1974   11.0186 H   0  0  0  0  0  0  0  0  0  0  0  0
    3.9753    5.4382   11.0238 H   0  0  0  0  0  0  0  0  0  0  0  0
    4.6927    5.2780    7.4811 H   0  0  0  0  0  0  0  0  0  0  0  0
    4.9283    4.5683    9.0315 H   0  0  0  0  0  0  0  0  0  0  0  0
    4.3384    2.8272    7.5914 H   0  0  0  0  0  0  0  0  0  0  0  0
    3.0207    2.9863    8.6685 H   0  0  0  0  0  0  0  0  0  0  0  0
    2.4169    2.4185    6.3194 H   0  0  0  0  0  0  0  0  0  0  0  0
    0.3012    5.6082    5.4404 H   0  0  0  0  0  0  0  0  0  0  0  0
   -2.1605    4.1450    4.8205 H   0  0  0  0  0  0  0  0  0  0  0  0
   -2.4767    2.1432    2.9471 H   0  0  0  0  0  0  0  0  0  0  0  0
    0.0935    1.3944    2.3286 H   0  0  0  0  0  0  0  0  0  0  0  0
    0.4365    3.2355    6.9553 H   0  0  0  0  0  0  0  0  0  0  0  0
    1.2827    4.4152    8.7452 H   0  0  0  0  0  0  0  0  0  0  0  0
  1  2  1  0
  1 33  1  0
  1 34  1  0
  1 35  1  0
  2 14  1  0
  2  3  1  0
  2 36  1  6
  4  3  1  6
  4 32  1  0
  4  5  1  0
  4 14  1  0
  5  6  1  0
  5  7  1  0
  5 37  1  6
  6 38  1  0
  6 39  1  0
  6 40  1  0
  7 12  1  0
  7  8  2  0
  8  9  1  0
  8 41  1  0
  9 11  1  0
  9 10  1  0
  9 42  1  1
 10 11  1  0
 11 12  1  0
 11 43  1  1
 12 13  1  0
 12 44  1  6
 13 45  1  0
 14 15  1  0
 14 46  1  1
 15 32  1  0
 15 16  1  6
 15 17  1  0
 16 47  1  0
 16 48  1  0
 16 49  1  0
 17 18  1  0
 17 19  1  0
 17 50  1  1
 18 51  1  0
 18 52  1  0
 18 53  1  0
 19 20  1  0
 19 54  1  0
 19 55  1  0
 20 21  1  0
 20 56  1  0
 20 57  1  0
 21 31  1  0
 21 22  1  0
 21 58  1  6
 22 23  2  0
 22 24  1  0
 24 25  1  0
 25 26  1  0
 25 31  1  0
 25 59  1  1
 26 30  1  0
 26 27  2  0
 27 28  1  0
 27 60  1  0
 28 29  2  0
 28 61  1  0
 29 30  1  0
 29 62  1  0
 31 32  1  0
 31 63  1  1
 32 64  1  1
M  END
>  <i_m_ct_stereo_status>  (98) 
1

>  <s_m_source_file>  (98) 
/var/tmp/pbs.5076255.sched01/tmp06yssb5m/4267g10r58.sdf

>  <i_m_source_file_index>  (98) 
4

>  <i_lp_mmshare_version>  (98) 
48012

>  <i_f3d_flags>  (98) 
0

>  <s_epik_input>  (98) 
W0NAQEhdMTJbQ0BIXShPMilbQ0BASF0oW09IXSlDKD1bQ0hdMSlbQ0BASF0oW0NIM10pW0NAXTM0W0NASF0oW0NAQEhdKE8zKVtDSDNdKVtDQF01KFtDSDNdKVtDQEBIXTRbQ0BASF02W0NASF0oW0NIMl1bQ0gyXVtDQEBIXTVbQ0gzXSlDKD1PKU9bQ0BIXTZjN1tjSF1bY0hdW2NIXW83

>  <s_epik_cmdline>  (98) 
J2VwaWtfcHl0aG9uJywgJy1waHQnLCAnMi4wJywgJy1waCcsICc3LjAnLCAnLXRuJywgJzgnLCAnLW1hJywgJzIwMCcsICctaW1hZScsICc8aW5maWxlLm1hZT4nLCAnLW9tYWUnLCAnPG91dGZpbGUubWFlPic=

>  <r_lp_tautomer_probability>  (98) 
1

>  <r_epik_Ionization_Penalty>  (98) 
1.1076e-06

>  <r_epik_Ionization_Penalty_Charging>  (98) 
0

>  <r_epik_Ionization_Penalty_Neutral>  (98) 
1.1076e-06

>  <r_epik_State_Penalty>  (98) 
-0

>  <r_epik_Charging_Adjusted_Penalty>  (98) 
0

>  <i_epik_Tot_Q>  (98) 
0

>  <i_epik_Tot_abs_Q>  (98) 
0

>  <s_epik_Chemistry_Notes>  (98) 
This compound has an ester and may undergo hydrolysis at high or low pH.

>  <s_lp_Force_Field>  (98) 
OPLS3e

>  <r_lp_Energy>  (98) 
48.2914

>  <b_lp_Chiralities_Consistent>  (98) 
1

>  <s_lp_Variant>  (98) 
31:0-1

>  <s_i_glide_gridfile>  (98) 
pfpi4k_grid

>  <i_i_glide_lignum>  (98) 
4

>  <i_i_glide_rotatable_bonds>  (98) 
4

>  <r_i_docking_score>  (98) 
-1.97418

>  <r_i_glide_ligand_efficiency>  (98) 
-0.061693

>  <r_i_glide_ligand_efficiency_sa>  (98) 
-0.195863

>  <r_i_glide_ligand_efficiency_ln>  (98) 
-0.442072

>  <r_i_glide_gscore>  (98) 
-1.97418

>  <r_i_glide_lipo>  (98) 
-0.0119439

>  <r_i_glide_hbond>  (98) 
-0.16

>  <r_i_glide_metal>  (98) 
-0

>  <r_i_glide_rewards>  (98) 
-0.405486

>  <r_i_glide_evdw>  (98) 
-17.3201

>  <r_i_glide_ecoul>  (98) 
-5.59323

>  <r_i_glide_erotb>  (98) 
0.30867

>  <r_i_glide_esite>  (98) 
-0.000426504

>  <r_i_glide_emodel>  (98) 
-23.0679

>  <r_i_glide_energy>  (98) 
-22.9133

>  <r_i_glide_einternal>  (98) 
4.24227

>  <r_i_glide_intrahb_reward>  (98) 
-0

>  <i_i_glide_confnum>  (98) 
2

>  <i_i_glide_posenum>  (98) 
3

>  <r_i_glide_eff_state_penalty>  (98) 
0

>  <ligand_id>  (98) 
31

>  <original_smiles>  (98) 
CC1OC2(C(C)C3=CC4OC4C3O)C1C1(C)C(C)CCC3C(=O)OC(c4ccco4)C3C12

>  <smiles>  (98) 
[H]OC1([H])C(C([H])(C([H])([H])[H])C23OC([H])(C([H])([H])[H])C2([H])C2(C([H])([H])[H])C([H])(C([H])([H])[H])C([H])([H])C([H])([H])C4([H])C(=O)OC([H])(c5oc([H])c([H])c5[H])C4([H])C32[H])=C([H])C2([H])OC21[H]

$$$$
31:0:1
     RDKit          3D

 64 70  0  0  1  0  0  0  0  0999 V2000
    5.1133    2.0695    6.4574 C   0  0  0  0  0  0  0  0  0  0  0  0
    3.6988    2.3762    5.9528 C   0  0  2  0  0  0  0  0  0  0  0  0
    2.6790    2.0799    6.9653 O   0  0  0  0  0  0  0  0  0  0  0  0
    2.0894    1.0023    6.1067 C   0  0  2  0  0  0  0  0  0  0  0  0
    2.1447   -0.3929    6.8684 C   0  0  2  0  0  0  0  0  0  0  0  0
    3.5661   -1.0164    6.8714 C   0  0  0  0  0  0  0  0  0  0  0  0
    1.1044   -1.4539    6.5248 C   0  0  0  0  0  0  0  0  0  0  0  0
    0.5528   -1.6747    5.3128 C   0  0  0  0  0  0  0  0  0  0  0  0
   -0.3893   -2.7591    5.2933 C   0  0  2  0  0  0  0  0  0  0  0  0
   -1.5923   -2.6567    6.1406 O   0  0  0  0  0  0  0  0  0  0  0  0
   -0.3849   -3.3061    6.6497 C   0  0  2  0  0  0  0  0  0  0  0  0
    0.6062   -2.5031    7.5021 C   0  0  1  0  0  0  0  0  0  0  0  0
    1.6554   -3.3587    7.8940 O   0  0  0  0  0  0  0  0  0  0  0  0
    2.9785    1.5033    4.9296 C   0  0  1  0  0  0  0  0  0  0  0  0
    1.7354    2.0632    4.1622 C   0  0  1  0  0  0  0  0  0  0  0  0
    1.7110    3.5979    4.1043 C   0  0  0  0  0  0  0  0  0  0  0  0
    1.4447    1.5203    2.7231 C   0  0  1  0  0  0  0  0  0  0  0  0
    1.8835    0.0365    2.3713 C   0  0  0  0  0  0  0  0  0  0  0  0
   -0.0355    1.7500    2.2837 C   0  0  0  0  0  0  0  0  0  0  0  0
   -1.1987    1.2771    3.2062 C   0  0  0  0  0  0  0  0  0  0  0  0
   -1.4724    1.9945    4.5813 C   0  0  2  0  0  0  0  0  0  0  0  0
   -1.6083    3.5068    4.5313 C   0  0  0  0  0  0  0  0  0  0  0  0
   -2.1839    4.1331    3.6480 O   0  0  0  0  0  0  0  0  0  0  0  0
   -1.0490    4.0486    5.6361 O   0  0  0  0  0  0  0  0  0  0  0  0
   -0.5176    3.1195    6.5709 C   0  0  1  0  0  0  0  0  0  0  0  0
   -1.4190    3.0562    7.7550 C   0  0  0  0  0  0  0  0  0  0  0  0
   -1.1921    2.8588    9.0922 C   0  0  0  0  0  0  0  0  0  0  0  0
   -2.4473    2.9491    9.7197 C   0  0  0  0  0  0  0  0  0  0  0  0
   -3.3622    3.1824    8.7197 C   0  0  0  0  0  0  0  0  0  0  0  0
   -2.7463    3.2234    7.5120 O   0  0  0  0  0  0  0  0  0  0  0  0
   -0.4986    1.8028    5.7481 C   0  0  2  0  0  0  0  0  0  0  0  0
    0.8780    1.3773    5.2331 C   0  0  2  0  0  0  0  0  0  0  0  0
    5.8463    2.3191    5.6737 H   0  0  0  0  0  0  0  0  0  0  0  0
    5.3013    1.0457    6.6566 H   0  0  0  0  0  0  0  0  0  0  0  0
    5.3212    2.6646    7.3742 H   0  0  0  0  0  0  0  0  0  0  0  0
    3.6582    3.4194    5.6462 H   0  0  0  0  0  0  0  0  0  0  0  0
    1.9463   -0.1603    7.9143 H   0  0  0  0  0  0  0  0  0  0  0  0
    3.6339   -1.9284    7.4963 H   0  0  0  0  0  0  0  0  0  0  0  0
    4.2488   -0.3734    7.3772 H   0  0  0  0  0  0  0  0  0  0  0  0
    3.8982   -1.2639    5.8375 H   0  0  0  0  0  0  0  0  0  0  0  0
    0.7225   -1.2295    4.4193 H   0  0  0  0  0  0  0  0  0  0  0  0
   -0.4208   -3.4175    4.3807 H   0  0  0  0  0  0  0  0  0  0  0  0
   -0.4021   -4.3961    6.6840 H   0  0  0  0  0  0  0  0  0  0  0  0
    0.1120   -2.0170    8.3412 H   0  0  0  0  0  0  0  0  0  0  0  0
    2.0847   -3.6656    7.1100 H   0  0  0  0  0  0  0  0  0  0  0  0
    3.6204    0.7615    4.4433 H   0  0  0  0  0  0  0  0  0  0  0  0
    0.8544    3.9620    3.5720 H   0  0  0  0  0  0  0  0  0  0  0  0
    2.6110    3.9665    3.6230 H   0  0  0  0  0  0  0  0  0  0  0  0
    1.6626    3.9903    5.0963 H   0  0  0  0  0  0  0  0  0  0  0  0
    2.0660    2.0887    2.0343 H   0  0  0  0  0  0  0  0  0  0  0  0
    1.3059   -0.7161    2.8066 H   0  0  0  0  0  0  0  0  0  0  0  0
    2.9554   -0.1574    2.5769 H   0  0  0  0  0  0  0  0  0  0  0  0
    1.6934   -0.1824    1.2978 H   0  0  0  0  0  0  0  0  0  0  0  0
   -0.1718    2.7989    2.0953 H   0  0  0  0  0  0  0  0  0  0  0  0
   -0.1679    1.2893    1.3021 H   0  0  0  0  0  0  0  0  0  0  0  0
   -2.1038    1.3824    2.6018 H   0  0  0  0  0  0  0  0  0  0  0  0
   -1.1170    0.1996    3.3540 H   0  0  0  0  0  0  0  0  0  0  0  0
   -2.4257    1.6200    4.9106 H   0  0  0  0  0  0  0  0  0  0  0  0
    0.4970    3.3717    6.8528 H   0  0  0  0  0  0  0  0  0  0  0  0
   -0.2331    2.6894    9.5543 H   0  0  0  0  0  0  0  0  0  0  0  0
   -2.6751    2.8605   10.7692 H   0  0  0  0  0  0  0  0  0  0  0  0
   -4.4312    3.3211    8.6996 H   0  0  0  0  0  0  0  0  0  0  0  0
   -0.8525    0.9727    6.3609 H   0  0  0  0  0  0  0  0  0  0  0  0
    0.6376    0.5734    4.7196 H   0  0  0  0  0  0  0  0  0  0  0  0
  1  2  1  0
  1 33  1  0
  1 34  1  0
  1 35  1  0
  2 14  1  0
  2  3  1  0
  2 36  1  6
  4  3  1  1
  4 32  1  0
  4  5  1  0
  4 14  1  0
  5  6  1  0
  5  7  1  0
  5 37  1  1
  6 38  1  0
  6 39  1  0
  6 40  1  0
  7 12  1  0
  7  8  2  0
  8  9  1  0
  8 41  1  0
  9 11  1  0
  9 10  1  0
  9 42  1  6
 10 11  1  0
 11 12  1  0
 11 43  1  6
 12 13  1  0
 12 44  1  1
 13 45  1  0
 14 15  1  0
 14 46  1  6
 15 32  1  0
 15 16  1  6
 15 17  1  0
 16 47  1  0
 16 48  1  0
 16 49  1  0
 17 18  1  0
 17 19  1  0
 17 50  1  6
 18 51  1  0
 18 52  1  0
 18 53  1  0
 19 20  1  0
 19 54  1  0
 19 55  1  0
 20 21  1  0
 20 56  1  0
 20 57  1  0
 21 31  1  0
 21 22  1  0
 21 58  1  1
 22 23  2  0
 22 24  1  0
 24 25  1  0
 25 26  1  0
 25 31  1  0
 25 59  1  1
 26 30  1  0
 26 27  2  0
 27 28  1  0
 27 60  1  0
 28 29  2  0
 28 61  1  0
 29 30  1  0
 29 62  1  0
 31 32  1  0
 31 63  1  1
 32 64  1  6
M  END
>  <i_m_ct_stereo_status>  (99) 
1

>  <s_m_source_file>  (99) 
/var/tmp/pbs.5076255.sched01/tmp06yssb5m/4267g10r58.sdf

>  <i_m_source_file_index>  (99) 
4

>  <i_lp_mmshare_version>  (99) 
48012

>  <i_f3d_flags>  (99) 
0

>  <s_epik_input>  (99) 
W0NAQEhdMTJbQ0BIXShPMilbQ0BASF0oW09IXSlDKD1bQ0hdMSlbQ0BASF0oW0NIM10pW0NAXTM0W0NASF0oW0NAQEhdKE8zKVtDSDNdKVtDQF01KFtDSDNdKVtDQEBIXTRbQ0BASF02W0NASF0oW0NIMl1bQ0gyXVtDQEBIXTVbQ0gzXSlDKD1PKU9bQ0BIXTZjN1tjSF1bY0hdW2NIXW83

>  <s_epik_cmdline>  (99) 
J2VwaWtfcHl0aG9uJywgJy1waHQnLCAnMi4wJywgJy1waCcsICc3LjAnLCAnLXRuJywgJzgnLCAnLW1hJywgJzIwMCcsICctaW1hZScsICc8aW5maWxlLm1hZT4nLCAnLW9tYWUnLCAnPG91dGZpbGUubWFlPic=

>  <r_lp_tautomer_probability>  (99) 
1

>  <r_epik_Ionization_Penalty>  (99) 
1.1076e-06

>  <r_epik_Ionization_Penalty_Charging>  (99) 
0

>  <r_epik_Ionization_Penalty_Neutral>  (99) 
1.1076e-06

>  <r_epik_State_Penalty>  (99) 
-0

>  <r_epik_Charging_Adjusted_Penalty>  (99) 
0

>  <i_epik_Tot_Q>  (99) 
0

>  <i_epik_Tot_abs_Q>  (99) 
0

>  <s_epik_Chemistry_Notes>  (99) 
This compound has an ester and may undergo hydrolysis at high or low pH.

>  <s_lp_Force_Field>  (99) 
OPLS3e

>  <r_lp_Energy>  (99) 
48.2914

>  <b_lp_Chiralities_Consistent>  (99) 
1

>  <s_lp_Variant>  (99) 
31:0-1

>  <s_i_glide_gridfile>  (99) 
pfpi4k_grid

>  <i_i_glide_lignum>  (99) 
4

>  <i_i_glide_rotatable_bonds>  (99) 
4

>  <r_i_docking_score>  (99) 
-1.94991

>  <r_i_glide_ligand_efficiency>  (99) 
-0.0609346

>  <r_i_glide_ligand_efficiency_sa>  (99) 
-0.193455

>  <r_i_glide_ligand_efficiency_ln>  (99) 
-0.436637

>  <r_i_glide_gscore>  (99) 
-1.94991

>  <r_i_glide_lipo>  (99) 
-0.026699

>  <r_i_glide_hbond>  (99) 
-0.0858281

>  <r_i_glide_metal>  (99) 
-0

>  <r_i_glide_rewards>  (99) 
-0.405486

>  <r_i_glide_evdw>  (99) 
-22.4562

>  <r_i_glide_ecoul>  (99) 
-5.2487

>  <r_i_glide_erotb>  (99) 
0.30867

>  <r_i_glide_esite>  (99) 
-0.0365877

>  <r_i_glide_emodel>  (99) 
-25.5499

>  <r_i_glide_energy>  (99) 
-27.7048

>  <r_i_glide_einternal>  (99) 
2.93715

>  <r_i_glide_intrahb_reward>  (99) 
-0

>  <i_i_glide_confnum>  (99) 
2

>  <i_i_glide_posenum>  (99) 
24

>  <r_i_glide_eff_state_penalty>  (99) 
0

>  <ligand_id>  (99) 
31

>  <original_smiles>  (99) 
CC1OC2(C(C)C3=CC4OC4C3O)C1C1(C)C(C)CCC3C(=O)OC(c4ccco4)C3C12

>  <smiles>  (99) 
[H]OC1([H])C(C([H])(C([H])([H])[H])C23OC([H])(C([H])([H])[H])C2([H])C2(C([H])([H])[H])C([H])(C([H])([H])[H])C([H])([H])C([H])([H])C4([H])C(=O)OC([H])(c5oc([H])c([H])c5[H])C4([H])C32[H])=C([H])C2([H])OC21[H]

$$$$
31:0:2
     RDKit          3D

 64 70  0  0  1  0  0  0  0  0999 V2000
    4.7030    4.5335    5.7526 C   0  0  0  0  0  0  0  0  0  0  0  0
    3.2746    4.2079    5.3464 C   0  0  2  0  0  0  0  0  0  0  0  0
    2.4938    3.6906    6.4607 O   0  0  0  0  0  0  0  0  0  0  0  0
    2.4021    2.3835    5.8252 C   0  0  2  0  0  0  0  0  0  0  0  0
    3.0324    1.2636    6.6965 C   0  0  2  0  0  0  0  0  0  0  0  0
    2.2906    1.1543    8.0439 C   0  0  0  0  0  0  0  0  0  0  0  0
    4.5485    1.3062    6.8910 C   0  0  0  0  0  0  0  0  0  0  0  0
    5.1966    1.5374    8.0475 C   0  0  0  0  0  0  0  0  0  0  0  0
    6.6580    1.4387    7.8723 C   0  0  2  0  0  0  0  0  0  0  0  0
    7.2674    2.3539    6.9580 O   0  0  0  0  0  0  0  0  0  0  0  0
    6.8629    1.0860    6.4313 C   0  0  2  0  0  0  0  0  0  0  0  0
    5.5073    0.9967    5.7496 C   0  0  1  0  0  0  0  0  0  0  0  0
    5.2904   -0.2970    5.2318 O   0  0  0  0  0  0  0  0  0  0  0  0
    2.9353    2.9710    4.5067 C   0  0  1  0  0  0  0  0  0  0  0  0
    1.5463    2.8519    3.8127 C   0  0  1  0  0  0  0  0  0  0  0  0
    0.8882    4.2330    3.5850 C   0  0  0  0  0  0  0  0  0  0  0  0
    1.4185    2.0721    2.4757 C   0  0  1  0  0  0  0  0  0  0  0  0
    2.3577    0.8495    2.3133 C   0  0  0  0  0  0  0  0  0  0  0  0
   -0.0548    1.6694    2.1623 C   0  0  0  0  0  0  0  0  0  0  0  0
   -0.8736    0.9003    3.2388 C   0  0  0  0  0  0  0  0  0  0  0  0
   -1.3447    1.6318    4.5385 C   0  0  2  0  0  0  0  0  0  0  0  0
   -2.0904    2.9432    4.3497 C   0  0  0  0  0  0  0  0  0  0  0  0
   -2.9101    3.1526    3.4588 O   0  0  0  0  0  0  0  0  0  0  0  0
   -1.7179    3.8043    5.2964 O   0  0  0  0  0  0  0  0  0  0  0  0
   -0.8045    3.2764    6.2561 C   0  0  1  0  0  0  0  0  0  0  0  0
   -1.5566    3.0773    7.5483 C   0  0  0  0  0  0  0  0  0  0  0  0
   -1.1696    2.8249    8.8351 C   0  0  0  0  0  0  0  0  0  0  0  0
   -2.3611    2.7415    9.6155 C   0  0  0  0  0  0  0  0  0  0  0  0
   -3.3906    2.9454    8.7409 C   0  0  0  0  0  0  0  0  0  0  0  0
   -2.9208    3.1212    7.4779 O   0  0  0  0  0  0  0  0  0  0  0  0
   -0.2970    1.9730    5.6076 C   0  0  2  0  0  0  0  0  0  0  0  0
    1.1270    2.0253    5.0456 C   0  0  2  0  0  0  0  0  0  0  0  0
    5.2660    4.9228    4.9053 H   0  0  0  0  0  0  0  0  0  0  0  0
    5.2389    3.6738    6.1294 H   0  0  0  0  0  0  0  0  0  0  0  0
    4.7239    5.2880    6.5376 H   0  0  0  0  0  0  0  0  0  0  0  0
    2.8201    5.1091    4.9374 H   0  0  0  0  0  0  0  0  0  0  0  0
    2.8649    0.3075    6.1986 H   0  0  0  0  0  0  0  0  0  0  0  0
    2.6304    0.2900    8.6112 H   0  0  0  0  0  0  0  0  0  0  0  0
    1.2175    1.0407    7.9155 H   0  0  0  0  0  0  0  0  0  0  0  0
    2.4456    2.0408    8.6597 H   0  0  0  0  0  0  0  0  0  0  0  0
    4.7552    1.7724    9.0050 H   0  0  0  0  0  0  0  0  0  0  0  0
    7.2659    0.9086    8.6016 H   0  0  0  0  0  0  0  0  0  0  0  0
    7.6789    0.4296    6.1332 H   0  0  0  0  0  0  0  0  0  0  0  0
    5.4546    1.7324    4.9521 H   0  0  0  0  0  0  0  0  0  0  0  0
    5.4105   -0.9162    5.9382 H   0  0  0  0  0  0  0  0  0  0  0  0
    3.7649    2.4846    4.0053 H   0  0  0  0  0  0  0  0  0  0  0  0
   -0.0804    4.1967    3.0880 H   0  0  0  0  0  0  0  0  0  0  0  0
    1.5226    4.8719    2.9653 H   0  0  0  0  0  0  0  0  0  0  0  0
    0.7249    4.7583    4.5259 H   0  0  0  0  0  0  0  0  0  0  0  0
    1.7259    2.7446    1.6725 H   0  0  0  0  0  0  0  0  0  0  0  0
    2.1769    0.0597    3.0406 H   0  0  0  0  0  0  0  0  0  0  0  0
    3.4085    1.1253    2.3796 H   0  0  0  0  0  0  0  0  0  0  0  0
    2.2341    0.3956    1.3290 H   0  0  0  0  0  0  0  0  0  0  0  0
   -0.6230    2.5394    1.8549 H   0  0  0  0  0  0  0  0  0  0  0  0
   -0.0369    1.0479    1.2645 H   0  0  0  0  0  0  0  0  0  0  0  0
   -1.7783    0.5616    2.7324 H   0  0  0  0  0  0  0  0  0  0  0  0
   -0.3496   -0.0163    3.5064 H   0  0  0  0  0  0  0  0  0  0  0  0
   -2.0735    0.9747    5.0121 H   0  0  0  0  0  0  0  0  0  0  0  0
    0.0098    3.9765    6.4273 H   0  0  0  0  0  0  0  0  0  0  0  0
   -0.1499    2.7218    9.1819 H   0  0  0  0  0  0  0  0  0  0  0  0
   -2.4643    2.5595   10.6768 H   0  0  0  0  0  0  0  0  0  0  0  0
   -4.4650    2.9840    8.8445 H   0  0  0  0  0  0  0  0  0  0  0  0
   -0.3256    1.1792    6.3529 H   0  0  0  0  0  0  0  0  0  0  0  0
    1.3307    0.9950    4.7686 H   0  0  0  0  0  0  0  0  0  0  0  0
  1  2  1  0
  1 33  1  0
  1 34  1  0
  1 35  1  0
  2 14  1  0
  2  3  1  0
  2 36  1  6
  4  3  1  1
  4 32  1  0
  4  5  1  0
  4 14  1  0
  5  6  1  0
  5  7  1  0
  5 37  1  6
  6 38  1  0
  6 39  1  0
  6 40  1  0
  7 12  1  0
  7  8  2  0
  8  9  1  0
  8 41  1  0
  9 11  1  0
  9 10  1  0
  9 42  1  1
 10 11  1  0
 11 12  1  0
 11 43  1  1
 12 13  1  0
 12 44  1  6
 13 45  1  0
 14 15  1  0
 14 46  1  6
 15 32  1  0
 15 16  1  6
 15 17  1  0
 16 47  1  0
 16 48  1  0
 16 49  1  0
 17 18  1  0
 17 19  1  0
 17 50  1  6
 18 51  1  0
 18 52  1  0
 18 53  1  0
 19 20  1  0
 19 54  1  0
 19 55  1  0
 20 21  1  0
 20 56  1  0
 20 57  1  0
 21 31  1  0
 21 22  1  0
 21 58  1  1
 22 23  2  0
 22 24  1  0
 24 25  1  0
 25 26  1  0
 25 31  1  0
 25 59  1  1
 26 30  1  0
 26 27  2  0
 27 28  1  0
 27 60  1  0
 28 29  2  0
 28 61  1  0
 29 30  1  0
 29 62  1  0
 31 32  1  0
 31 63  1  1
 32 64  1  6
M  END
>  <i_m_ct_stereo_status>  (100) 
1

>  <s_m_source_file>  (100) 
/var/tmp/pbs.5076255.sched01/tmp06yssb5m/4267g10r58.sdf

>  <i_m_source_file_index>  (100) 
4

>  <i_lp_mmshare_version>  (100) 
48012

>  <i_f3d_flags>  (100) 
0

>  <s_epik_input>  (100) 
W0NAQEhdMTJbQ0BIXShPMilbQ0BASF0oW09IXSlDKD1bQ0hdMSlbQ0BASF0oW0NIM10pW0NAXTM0W0NASF0oW0NAQEhdKE8zKVtDSDNdKVtDQF01KFtDSDNdKVtDQEBIXTRbQ0BASF02W0NASF0oW0NIMl1bQ0gyXVtDQEBIXTVbQ0gzXSlDKD1PKU9bQ0BIXTZjN1tjSF1bY0hdW2NIXW83

>  <s_epik_cmdline>  (100) 
J2VwaWtfcHl0aG9uJywgJy1waHQnLCAnMi4wJywgJy1waCcsICc3LjAnLCAnLXRuJywgJzgnLCAnLW1hJywgJzIwMCcsICctaW1hZScsICc8aW5maWxlLm1hZT4nLCAnLW9tYWUnLCAnPG91dGZpbGUubWFlPic=

>  <r_lp_tautomer_probability>  (100) 
1

>  <r_epik_Ionization_Penalty>  (100) 
1.1076e-06

>  <r_epik_Ionization_Penalty_Charging>  (100) 
0

>  <r_epik_Ionization_Penalty_Neutral>  (100) 
1.1076e-06

>  <r_epik_State_Penalty>  (100) 
-0

>  <r_epik_Charging_Adjusted_Penalty>  (100) 
0

>  <i_epik_Tot_Q>  (100) 
0

>  <i_epik_Tot_abs_Q>  (100) 
0

>  <s_epik_Chemistry_Notes>  (100) 
This compound has an ester and may undergo hydrolysis at high or low pH.

>  <s_lp_Force_Field>  (100) 
OPLS3e

>  <r_lp_Energy>  (100) 
48.2914

>  <b_lp_Chiralities_Consistent>  (100) 
1

>  <s_lp_Variant>  (100) 
31:0-1

>  <s_i_glide_gridfile>  (100) 
pfpi4k_grid

>  <i_i_glide_lignum>  (100) 
4

>  <i_i_glide_rotatable_bonds>  (100) 
4

>  <r_i_docking_score>  (100) 
-1.82905

>  <r_i_glide_ligand_efficiency>  (100) 
-0.0571579

>  <r_i_glide_ligand_efficiency_sa>  (100) 
-0.181465

>  <r_i_glide_ligand_efficiency_ln>  (100) 
-0.409575

>  <r_i_glide_gscore>  (100) 
-1.82905

>  <r_i_glide_lipo>  (100) 
-0.191041

>  <r_i_glide_hbond>  (100) 
0

>  <r_i_glide_metal>  (100) 
-0

>  <r_i_glide_rewards>  (100) 
-0.405486

>  <r_i_glide_evdw>  (100) 
-25.2842

>  <r_i_glide_ecoul>  (100) 
-1.6368

>  <r_i_glide_erotb>  (100) 
0.30867

>  <r_i_glide_esite>  (100) 
-0.031463

>  <r_i_glide_emodel>  (100) 
-29.5864

>  <r_i_glide_energy>  (100) 
-26.921

>  <r_i_glide_einternal>  (100) 
1.16257

>  <r_i_glide_intrahb_reward>  (100) 
-0

>  <i_i_glide_confnum>  (100) 
2

>  <i_i_glide_posenum>  (100) 
28

>  <r_i_glide_eff_state_penalty>  (100) 
0

>  <ligand_id>  (100) 
31

>  <original_smiles>  (100) 
CC1OC2(C(C)C3=CC4OC4C3O)C1C1(C)C(C)CCC3C(=O)OC(c4ccco4)C3C12

>  <smiles>  (100) 
[H]OC1([H])C(C([H])(C([H])([H])[H])C23OC([H])(C([H])([H])[H])C2([H])C2(C([H])([H])[H])C([H])(C([H])([H])[H])C([H])([H])C([H])([H])C4([H])C(=O)OC([H])(c5oc([H])c([H])c5[H])C4([H])C32[H])=C([H])C2([H])OC21[H]

$$$$
32:0:0
     RDKit          3D

 37 43  0  0  1  0  0  0  0  0999 V2000
    5.8017   -0.3436    0.9101 O   0  0  0  0  0  0  0  0  0  0  0  0
    5.6507   -1.5603    0.9769 C   0  0  0  0  0  0  0  0  0  0  0  0
    5.6075   -2.3352    2.1843 O   0  0  0  0  0  0  0  0  0  0  0  0
    5.6454   -3.8222    2.2354 C   0  0  2  0  0  0  0  0  0  0  0  0
    6.8214   -4.1312    1.2544 C   0  0  0  0  0  0  0  0  0  0  0  0
    6.6303   -3.4490   -0.1452 C   0  0  0  0  0  0  0  0  0  0  0  0
    5.4298   -2.4366   -0.2578 C   0  0  2  0  0  0  0  0  0  0  0  0
    5.2074   -2.1382   -1.7615 C   0  0  2  0  0  0  0  0  0  0  0  0
    4.6216   -0.7743   -2.0889 C   0  0  0  0  0  0  0  0  0  0  0  0
    3.7721   -0.5928   -3.1169 C   0  0  0  0  0  0  0  0  0  0  0  0
    3.3323   -1.7019   -3.9189 C   0  0  0  0  0  0  0  0  0  0  0  0
    3.5044   -2.9776   -3.5052 C   0  0  0  0  0  0  0  0  0  0  0  0
    4.2060   -3.3178   -2.2048 C   0  0  2  0  0  0  0  0  0  0  0  0
    3.1820   -3.5276   -1.0313 C   0  0  1  0  0  0  0  0  0  0  0  0
    2.8458   -4.7224    0.0722 C   0  0  2  0  0  0  0  0  0  0  0  0
    3.7847   -5.7053    0.9212 C   0  0  1  0  0  0  0  0  0  0  0  0
    4.7655   -5.3400    0.0369 O   0  0  0  0  0  0  0  0  0  0  0  0
    4.1092   -4.1514    0.5356 C   0  0  1  0  0  0  0  0  0  0  0  0
    4.0106   -2.8622    0.0123 C   0  0  1  0  0  0  0  0  0  0  0  0
    4.2500   -4.5420    1.9169 C   0  0  2  0  0  0  0  0  0  0  0  0
    3.2799   -4.1400    2.8667 O   0  0  0  0  0  0  0  0  0  0  0  0
    5.9707   -4.1311    3.2365 H   0  0  0  0  0  0  0  0  0  0  0  0
    7.7488   -3.7537    1.6790 H   0  0  0  0  0  0  0  0  0  0  0  0
    6.9835   -5.2055    1.1342 H   0  0  0  0  0  0  0  0  0  0  0  0
    7.5535   -2.9274   -0.4044 H   0  0  0  0  0  0  0  0  0  0  0  0
    6.5481   -4.2160   -0.9128 H   0  0  0  0  0  0  0  0  0  0  0  0
    6.1492   -2.2068   -2.3167 H   0  0  0  0  0  0  0  0  0  0  0  0
    4.9083    0.0623   -1.4779 H   0  0  0  0  0  0  0  0  0  0  0  0
    3.3800    0.3949   -3.3194 H   0  0  0  0  0  0  0  0  0  0  0  0
    2.8395   -1.4867   -4.8478 H   0  0  0  0  0  0  0  0  0  0  0  0
    3.1504   -3.8088   -4.0912 H   0  0  0  0  0  0  0  0  0  0  0  0
    4.7784   -4.2325   -2.3770 H   0  0  0  0  0  0  0  0  0  0  0  0
    2.2658   -2.9539   -1.1858 H   0  0  0  0  0  0  0  0  0  0  0  0
    1.9768   -4.4427    0.6755 H   0  0  0  0  0  0  0  0  0  0  0  0
    3.6185   -6.7533    1.1584 H   0  0  0  0  0  0  0  0  0  0  0  0
    3.3704   -2.1943    0.5998 H   0  0  0  0  0  0  0  0  0  0  0  0
    3.2096   -3.1999    2.8004 H   0  0  0  0  0  0  0  0  0  0  0  0
  1  2  2  0
  2  7  1  0
  2  3  1  0
  3  4  1  0
  4 20  1  0
  4  5  1  0
  4 22  1  1
  5  6  1  0
  5 23  1  0
  5 24  1  0
  7  6  1  6
  6 25  1  0
  6 26  1  0
  7 19  1  0
  7  8  1  0
  8 13  1  0
  8  9  1  0
  8 27  1  6
  9 10  2  0
  9 28  1  0
 10 11  1  0
 10 29  1  0
 11 12  2  0
 11 30  1  0
 12 13  1  0
 12 31  1  0
 13 14  1  0
 13 32  1  6
 14 19  1  0
 14 15  1  0
 14 33  1  6
 15 18  1  0
 15 16  1  0
 15 34  1  1
 16 20  1  0
 16 17  1  0
 16 35  1  1
 18 17  1  6
 18 19  1  0
 18 20  1  0
 19 36  1  1
 20 21  1  1
 21 37  1  0
M  END
>  <i_m_ct_stereo_status>  (101) 
1

>  <s_m_source_file>  (101) 
/var/tmp/pbs.5076255.sched01/tmp06yssb5m/4267g10r58.sdf

>  <i_m_source_file_index>  (101) 
5

>  <i_lp_mmshare_version>  (101) 
48012

>  <i_f3d_flags>  (101) 
0

>  <s_epik_input>  (101) 
Tz1DMU9bQ0BIXShbQ0gyXVtDSDJdMilbQ0BAXShbQ0BASF0zTzQpKFtPSF0pW0NAXTQoW0NAQEhdNTYpW0NASF0zW0NAQEhdNltDQEhdKFtDQEBIXTdbQ0BdMTI1KVtDSF09W0NIXVtDSF09W0NIXTc=

>  <s_epik_cmdline>  (101) 
J2VwaWtfcHl0aG9uJywgJy1waHQnLCAnMi4wJywgJy1waCcsICc3LjAnLCAnLXRuJywgJzgnLCAnLW1hJywgJzIwMCcsICctaW1hZScsICc8aW5maWxlLm1hZT4nLCAnLW9tYWUnLCAnPG91dGZpbGUubWFlPic=

>  <r_lp_tautomer_probability>  (101) 
1

>  <r_epik_Ionization_Penalty>  (101) 
6.69416e-07

>  <r_epik_Ionization_Penalty_Charging>  (101) 
0

>  <r_epik_Ionization_Penalty_Neutral>  (101) 
6.69416e-07

>  <r_epik_State_Penalty>  (101) 
-0

>  <r_epik_Charging_Adjusted_Penalty>  (101) 
0

>  <i_epik_Tot_Q>  (101) 
0

>  <i_epik_Tot_abs_Q>  (101) 
0

>  <s_epik_Chemistry_Notes>  (101) 
This compound has an ester and may undergo hydrolysis at high or low pH.

>  <s_lp_Force_Field>  (101) 
OPLS3e

>  <r_lp_Energy>  (101) 
238.711

>  <b_lp_Chiralities_Consistent>  (101) 
1

>  <s_lp_Variant>  (101) 
32:0-1

>  <s_i_glide_gridfile>  (101) 
pfpi4k_grid

>  <i_i_glide_lignum>  (101) 
5

>  <i_i_glide_rotatable_bonds>  (101) 
1

>  <r_i_docking_score>  (101) 
-3.84489

>  <r_i_glide_ligand_efficiency>  (101) 
-0.18309

>  <r_i_glide_ligand_efficiency_sa>  (101) 
-0.505132

>  <r_i_glide_ligand_efficiency_ln>  (101) 
-0.950642

>  <r_i_glide_gscore>  (101) 
-3.84489

>  <r_i_glide_lipo>  (101) 
-0.796342

>  <r_i_glide_hbond>  (101) 
-0.0749661

>  <r_i_glide_metal>  (101) 
-0

>  <r_i_glide_rewards>  (101) 
-1.63108

>  <r_i_glide_evdw>  (101) 
-25.6935

>  <r_i_glide_ecoul>  (101) 
-0.385541

>  <r_i_glide_erotb>  (101) 
0

>  <r_i_glide_esite>  (101) 
0

>  <r_i_glide_emodel>  (101) 
-31.8742

>  <r_i_glide_energy>  (101) 
-26.0791

>  <r_i_glide_einternal>  (101) 
0.00109559

>  <r_i_glide_intrahb_reward>  (101) 
-0

>  <i_i_glide_confnum>  (101) 
1

>  <i_i_glide_posenum>  (101) 
9

>  <r_i_glide_eff_state_penalty>  (101) 
0

>  <ligand_id>  (101) 
32

>  <original_smiles>  (101) 
O=C1OC2CCC13C1C=CC=CC1C1C4C5OC4(C13)C25O

>  <smiles>  (101) 
[H]OC12C3([H])OC(=O)C4(C([H])([H])C3([H])[H])C3([H])C([H])=C([H])C([H])=C([H])C3([H])C3([H])C5([H])C1([H])OC52C34[H]

$$$$
32:0:1
     RDKit          3D

 37 43  0  0  1  0  0  0  0  0999 V2000
    7.5910   -3.4097   -0.4585 O   0  0  0  0  0  0  0  0  0  0  0  0
    6.6472   -3.7441    0.2522 C   0  0  0  0  0  0  0  0  0  0  0  0
    6.6711   -3.8779    1.6775 O   0  0  0  0  0  0  0  0  0  0  0  0
    5.5814   -4.4629    2.5057 C   0  0  2  0  0  0  0  0  0  0  0  0
    5.2846   -5.7666    1.7109 C   0  0  0  0  0  0  0  0  0  0  0  0
    4.9880   -5.4868    0.1977 C   0  0  0  0  0  0  0  0  0  0  0  0
    5.2565   -4.0142   -0.3048 C   0  0  2  0  0  0  0  0  0  0  0  0
    4.6227   -3.8558   -1.6977 C   0  0  2  0  0  0  0  0  0  0  0  0
    5.2627   -2.8426   -2.6303 C   0  0  0  0  0  0  0  0  0  0  0  0
    4.5261   -2.1023   -3.4843 C   0  0  0  0  0  0  0  0  0  0  0  0
    3.0821   -2.2352   -3.5298 C   0  0  0  0  0  0  0  0  0  0  0  0
    2.4154   -2.8462   -2.5533 C   0  0  0  0  0  0  0  0  0  0  0  0
    3.0997   -3.4571   -1.3452 C   0  0  2  0  0  0  0  0  0  0  0  0
    3.1453   -2.4823   -0.1254 C   0  0  1  0  0  0  0  0  0  0  0  0
    2.6767   -2.5041    1.4645 C   0  0  2  0  0  0  0  0  0  0  0  0
    2.7497   -3.6258    2.5950 C   0  0  1  0  0  0  0  0  0  0  0  0
    2.9250   -4.4919    1.5374 O   0  0  0  0  0  0  0  0  0  0  0  0
    3.8487   -3.3799    1.4089 C   0  0  1  0  0  0  0  0  0  0  0  0
    4.5209   -2.8616    0.3084 C   0  0  1  0  0  0  0  0  0  0  0  0
    4.3321   -3.4997    2.7658 C   0  0  2  0  0  0  0  0  0  0  0  0
    4.7927   -2.3557    3.4655 O   0  0  0  0  0  0  0  0  0  0  0  0
    6.0088   -4.7600    3.4694 H   0  0  0  0  0  0  0  0  0  0  0  0
    6.1639   -6.4134    1.7615 H   0  0  0  0  0  0  0  0  0  0  0  0
    4.4771   -6.3505    2.1603 H   0  0  0  0  0  0  0  0  0  0  0  0
    5.6112   -6.1641   -0.3760 H   0  0  0  0  0  0  0  0  0  0  0  0
    3.9735   -5.8122   -0.0490 H   0  0  0  0  0  0  0  0  0  0  0  0
    4.6649   -4.8058   -2.2435 H   0  0  0  0  0  0  0  0  0  0  0  0
    6.3361   -2.7580   -2.6063 H   0  0  0  0  0  0  0  0  0  0  0  0
    5.0043   -1.4010   -4.1435 H   0  0  0  0  0  0  0  0  0  0  0  0
    2.5329   -1.8299   -4.3674 H   0  0  0  0  0  0  0  0  0  0  0  0
    1.3425   -2.9445   -2.5725 H   0  0  0  0  0  0  0  0  0  0  0  0
    2.5401   -4.3507   -1.0869 H   0  0  0  0  0  0  0  0  0  0  0  0
    3.1486   -1.4381   -0.4375 H   0  0  0  0  0  0  0  0  0  0  0  0
    2.8869   -1.5393    1.9082 H   0  0  0  0  0  0  0  0  0  0  0  0
    2.0071   -3.8543    3.3629 H   0  0  0  0  0  0  0  0  0  0  0  0
    5.0809   -1.9530    0.5414 H   0  0  0  0  0  0  0  0  0  0  0  0
    4.0399   -1.9091    3.8163 H   0  0  0  0  0  0  0  0  0  0  0  0
  1  2  2  0
  2  7  1  0
  2  3  1  0
  3  4  1  0
  4 20  1  0
  4  5  1  0
  4 22  1  1
  5  6  1  0
  5 23  1  0
  5 24  1  0
  7  6  1  1
  6 25  1  0
  6 26  1  0
  7 19  1  0
  7  8  1  0
  8 13  1  0
  8  9  1  0
  8 27  1  6
  9 10  2  0
  9 28  1  0
 10 11  1  0
 10 29  1  0
 11 12  2  0
 11 30  1  0
 12 13  1  0
 12 31  1  0
 13 14  1  0
 13 32  1  1
 14 19  1  0
 14 15  1  0
 14 33  1  6
 15 18  1  0
 15 16  1  0
 15 34  1  1
 16 20  1  0
 16 17  1  0
 16 35  1  1
 18 17  1  6
 18 19  1  0
 18 20  1  0
 19 36  1  1
 20 21  1  1
 21 37  1  0
M  END
>  <i_m_ct_stereo_status>  (102) 
1

>  <s_m_source_file>  (102) 
/var/tmp/pbs.5076255.sched01/tmp06yssb5m/4267g10r58.sdf

>  <i_m_source_file_index>  (102) 
5

>  <i_lp_mmshare_version>  (102) 
48012

>  <i_f3d_flags>  (102) 
0

>  <s_epik_input>  (102) 
Tz1DMU9bQ0BIXShbQ0gyXVtDSDJdMilbQ0BAXShbQ0BASF0zTzQpKFtPSF0pW0NAXTQoW0NAQEhdNTYpW0NASF0zW0NAQEhdNltDQEhdKFtDQEBIXTdbQ0BdMTI1KVtDSF09W0NIXVtDSF09W0NIXTc=

>  <s_epik_cmdline>  (102) 
J2VwaWtfcHl0aG9uJywgJy1waHQnLCAnMi4wJywgJy1waCcsICc3LjAnLCAnLXRuJywgJzgnLCAnLW1hJywgJzIwMCcsICctaW1hZScsICc8aW5maWxlLm1hZT4nLCAnLW9tYWUnLCAnPG91dGZpbGUubWFlPic=

>  <r_lp_tautomer_probability>  (102) 
1

>  <r_epik_Ionization_Penalty>  (102) 
6.69416e-07

>  <r_epik_Ionization_Penalty_Charging>  (102) 
0

>  <r_epik_Ionization_Penalty_Neutral>  (102) 
6.69416e-07

>  <r_epik_State_Penalty>  (102) 
-0

>  <r_epik_Charging_Adjusted_Penalty>  (102) 
0

>  <i_epik_Tot_Q>  (102) 
0

>  <i_epik_Tot_abs_Q>  (102) 
0

>  <s_epik_Chemistry_Notes>  (102) 
This compound has an ester and may undergo hydrolysis at high or low pH.

>  <s_lp_Force_Field>  (102) 
OPLS3e

>  <r_lp_Energy>  (102) 
238.711

>  <b_lp_Chiralities_Consistent>  (102) 
1

>  <s_lp_Variant>  (102) 
32:0-1

>  <s_i_glide_gridfile>  (102) 
pfpi4k_grid

>  <i_i_glide_lignum>  (102) 
5

>  <i_i_glide_rotatable_bonds>  (102) 
1

>  <r_i_docking_score>  (102) 
-3.75056

>  <r_i_glide_ligand_efficiency>  (102) 
-0.178598

>  <r_i_glide_ligand_efficiency_sa>  (102) 
-0.492739

>  <r_i_glide_ligand_efficiency_ln>  (102) 
-0.927319

>  <r_i_glide_gscore>  (102) 
-3.75056

>  <r_i_glide_lipo>  (102) 
-0.807375

>  <r_i_glide_hbond>  (102) 
0

>  <r_i_glide_metal>  (102) 
-0

>  <r_i_glide_rewards>  (102) 
-1.61962

>  <r_i_glide_evdw>  (102) 
-22.3658

>  <r_i_glide_ecoul>  (102) 
-1.36853

>  <r_i_glide_erotb>  (102) 
0

>  <r_i_glide_esite>  (102) 
0

>  <r_i_glide_emodel>  (102) 
-29.0129

>  <r_i_glide_energy>  (102) 
-23.7343

>  <r_i_glide_einternal>  (102) 
0.658641

>  <r_i_glide_intrahb_reward>  (102) 
-0

>  <i_i_glide_confnum>  (102) 
2

>  <i_i_glide_posenum>  (102) 
27

>  <r_i_glide_eff_state_penalty>  (102) 
0

>  <ligand_id>  (102) 
32

>  <original_smiles>  (102) 
O=C1OC2CCC13C1C=CC=CC1C1C4C5OC4(C13)C25O

>  <smiles>  (102) 
[H]OC12C3([H])OC(=O)C4(C([H])([H])C3([H])[H])C3([H])C([H])=C([H])C([H])=C([H])C3([H])C3([H])C5([H])C1([H])OC52C34[H]

$$$$
32:0:2
     RDKit          3D

 37 43  0  0  1  0  0  0  0  0999 V2000
    7.5849   -3.3770   -0.4435 O   0  0  0  0  0  0  0  0  0  0  0  0
    6.6327   -3.7275    0.2554 C   0  0  0  0  0  0  0  0  0  0  0  0
    6.6404   -3.8670    1.6815 O   0  0  0  0  0  0  0  0  0  0  0  0
    5.5529   -4.4748    2.4933 C   0  0  2  0  0  0  0  0  0  0  0  0
    5.2799   -5.7764    1.6831 C   0  0  0  0  0  0  0  0  0  0  0  0
    4.9883   -5.4843    0.1676 C   0  0  0  0  0  0  0  0  0  0  0  0
    5.2515   -4.0071   -0.3166 C   0  0  2  0  0  0  0  0  0  0  0  0
    4.6238   -3.8414   -1.7168 C   0  0  2  0  0  0  0  0  0  0  0  0
    5.2600   -2.8109   -2.6343 C   0  0  0  0  0  0  0  0  0  0  0  0
    4.5263   -2.0725   -3.4862 C   0  0  0  0  0  0  0  0  0  0  0  0
    3.0862   -2.2157   -3.5503 C   0  0  0  0  0  0  0  0  0  0  0  0
    2.4132   -2.8404   -2.5796 C   0  0  0  0  0  0  0  0  0  0  0  0
    3.0971   -3.4569   -1.3709 C   0  0  2  0  0  0  0  0  0  0  0  0
    3.1242   -2.4906   -0.1448 C   0  0  1  0  0  0  0  0  0  0  0  0
    2.6416   -2.5310    1.4411 C   0  0  2  0  0  0  0  0  0  0  0  0
    2.7169   -3.6623    2.5643 C   0  0  1  0  0  0  0  0  0  0  0  0
    2.9090   -4.5063    1.5009 O   0  0  0  0  0  0  0  0  0  0  0  0
    3.8242   -3.3913    1.3925 C   0  0  1  0  0  0  0  0  0  0  0  0
    4.4980   -2.8614    0.2968 C   0  0  1  0  0  0  0  0  0  0  0  0
    4.2926   -3.5210    2.7509 C   0  0  2  0  0  0  0  0  0  0  0  0
    4.7055   -2.3744    3.4718 O   0  0  0  0  0  0  0  0  0  0  0  0
    5.9823   -4.7785    3.4543 H   0  0  0  0  0  0  0  0  0  0  0  0
    6.1598   -6.4202    1.7348 H   0  0  0  0  0  0  0  0  0  0  0  0
    4.4738   -6.3690    2.1216 H   0  0  0  0  0  0  0  0  0  0  0  0
    5.6191   -6.1526   -0.4084 H   0  0  0  0  0  0  0  0  0  0  0  0
    3.9811   -5.8221   -0.0880 H   0  0  0  0  0  0  0  0  0  0  0  0
    4.6739   -4.7802   -2.2678 H   0  0  0  0  0  0  0  0  0  0  0  0
    6.3340   -2.7151   -2.6040 H   0  0  0  0  0  0  0  0  0  0  0  0
    5.0045   -1.3606   -4.1390 H   0  0  0  0  0  0  0  0  0  0  0  0
    2.5403   -1.8088   -4.3883 H   0  0  0  0  0  0  0  0  0  0  0  0
    1.3404   -2.9468   -2.6166 H   0  0  0  0  0  0  0  0  0  0  0  0
    2.5401   -4.3540   -1.1202 H   0  0  0  0  0  0  0  0  0  0  0  0
    3.1154   -1.4444   -0.4556 H   0  0  0  0  0  0  0  0  0  0  0  0
    2.8214   -1.5676    1.8935 H   0  0  0  0  0  0  0  0  0  0  0  0
    1.9716   -3.9002    3.3302 H   0  0  0  0  0  0  0  0  0  0  0  0
    5.0498   -1.9504    0.5367 H   0  0  0  0  0  0  0  0  0  0  0  0
    5.2735   -1.8817    2.9050 H   0  0  0  0  0  0  0  0  0  0  0  0
  1  2  2  0
  2  7  1  0
  2  3  1  0
  3  4  1  0
  4 20  1  0
  4  5  1  0
  4 22  1  1
  5  6  1  0
  5 23  1  0
  5 24  1  0
  7  6  1  1
  6 25  1  0
  6 26  1  0
  7 19  1  0
  7  8  1  0
  8 13  1  0
  8  9  1  0
  8 27  1  6
  9 10  2  0
  9 28  1  0
 10 11  1  0
 10 29  1  0
 11 12  2  0
 11 30  1  0
 12 13  1  0
 12 31  1  0
 13 14  1  0
 13 32  1  1
 14 19  1  0
 14 15  1  0
 14 33  1  6
 15 18  1  0
 15 16  1  0
 15 34  1  1
 16 20  1  0
 16 17  1  0
 16 35  1  1
 18 17  1  6
 18 19  1  0
 18 20  1  0
 19 36  1  1
 20 21  1  1
 21 37  1  0
M  END
>  <i_m_ct_stereo_status>  (103) 
1

>  <s_m_source_file>  (103) 
/var/tmp/pbs.5076255.sched01/tmp06yssb5m/4267g10r58.sdf

>  <i_m_source_file_index>  (103) 
5

>  <i_lp_mmshare_version>  (103) 
48012

>  <i_f3d_flags>  (103) 
0

>  <s_epik_input>  (103) 
Tz1DMU9bQ0BIXShbQ0gyXVtDSDJdMilbQ0BAXShbQ0BASF0zTzQpKFtPSF0pW0NAXTQoW0NAQEhdNTYpW0NASF0zW0NAQEhdNltDQEhdKFtDQEBIXTdbQ0BdMTI1KVtDSF09W0NIXVtDSF09W0NIXTc=

>  <s_epik_cmdline>  (103) 
J2VwaWtfcHl0aG9uJywgJy1waHQnLCAnMi4wJywgJy1waCcsICc3LjAnLCAnLXRuJywgJzgnLCAnLW1hJywgJzIwMCcsICctaW1hZScsICc8aW5maWxlLm1hZT4nLCAnLW9tYWUnLCAnPG91dGZpbGUubWFlPic=

>  <r_lp_tautomer_probability>  (103) 
1

>  <r_epik_Ionization_Penalty>  (103) 
6.69416e-07

>  <r_epik_Ionization_Penalty_Charging>  (103) 
0

>  <r_epik_Ionization_Penalty_Neutral>  (103) 
6.69416e-07

>  <r_epik_State_Penalty>  (103) 
-0

>  <r_epik_Charging_Adjusted_Penalty>  (103) 
0

>  <i_epik_Tot_Q>  (103) 
0

>  <i_epik_Tot_abs_Q>  (103) 
0

>  <s_epik_Chemistry_Notes>  (103) 
This compound has an ester and may undergo hydrolysis at high or low pH.

>  <s_lp_Force_Field>  (103) 
OPLS3e

>  <r_lp_Energy>  (103) 
238.711

>  <b_lp_Chiralities_Consistent>  (103) 
1

>  <s_lp_Variant>  (103) 
32:0-1

>  <s_i_glide_gridfile>  (103) 
pfpi4k_grid

>  <i_i_glide_lignum>  (103) 
5

>  <i_i_glide_rotatable_bonds>  (103) 
1

>  <r_i_docking_score>  (103) 
-3.72432

>  <r_i_glide_ligand_efficiency>  (103) 
-0.177348

>  <r_i_glide_ligand_efficiency_sa>  (103) 
-0.489291

>  <r_i_glide_ligand_efficiency_ln>  (103) 
-0.92083

>  <r_i_glide_gscore>  (103) 
-3.72432

>  <r_i_glide_lipo>  (103) 
-0.806599

>  <r_i_glide_hbond>  (103) 
0

>  <r_i_glide_metal>  (103) 
-0

>  <r_i_glide_rewards>  (103) 
-1.61863

>  <r_i_glide_evdw>  (103) 
-22.333

>  <r_i_glide_ecoul>  (103) 
-1.21623

>  <r_i_glide_erotb>  (103) 
0

>  <r_i_glide_esite>  (103) 
0

>  <r_i_glide_emodel>  (103) 
-29.1273

>  <r_i_glide_energy>  (103) 
-23.5492

>  <r_i_glide_einternal>  (103) 
0.0213501

>  <r_i_glide_intrahb_reward>  (103) 
-0

>  <i_i_glide_confnum>  (103) 
2

>  <i_i_glide_posenum>  (103) 
2

>  <r_i_glide_eff_state_penalty>  (103) 
0

>  <ligand_id>  (103) 
32

>  <original_smiles>  (103) 
O=C1OC2CCC13C1C=CC=CC1C1C4C5OC4(C13)C25O

>  <smiles>  (103) 
[H]OC12C3([H])OC(=O)C4(C([H])([H])C3([H])[H])C3([H])C([H])=C([H])C([H])=C([H])C3([H])C3([H])C5([H])C1([H])OC52C34[H]

$$$$
33:0:0
     RDKit          3D

 47 50  0  0  1  0  0  0  0  0999 V2000
    5.3743   -8.9533    2.8250 C   0  0  0  0  0  0  0  0  0  0  0  0
    4.9295   -7.5105    2.5301 C   0  0  2  0  0  0  0  0  0  0  0  0
    3.6259   -7.4622    1.7081 C   0  0  0  0  0  0  0  0  0  0  0  0
    3.2128   -6.0393    1.2522 C   0  0  0  0  0  0  0  0  0  0  0  0
    4.3653   -5.1355    0.7200 C   0  0  1  0  0  0  0  0  0  0  0  0
    3.8849   -3.6713    0.5321 C   0  0  1  0  0  0  0  0  0  0  0  0
    2.8598   -3.4784   -0.5894 C   0  0  0  0  0  0  0  0  0  0  0  0
    3.5485   -2.9506    1.8777 C   0  0  1  0  0  0  0  0  0  0  0  0
    2.0654   -2.6507    2.1315 C   0  0  0  0  0  0  0  0  0  0  0  0
    4.0513   -3.6694    3.0018 O   0  0  0  0  0  0  0  0  0  0  0  0
    5.3675   -4.1590    2.8198 C   0  0  2  0  0  0  0  0  0  0  0  0
    6.1813   -3.2180    2.0561 O   0  0  0  0  0  0  0  0  0  0  0  0
    6.8575   -4.3921    1.6387 C   0  0  2  0  0  0  0  0  0  0  0  0
    7.6445   -4.6723    0.4193 C   0  0  1  0  0  0  0  0  0  0  0  0
    8.7522   -3.6699    0.0721 C   0  0  0  0  0  0  0  0  0  0  0  0
    8.2134   -6.1207    0.6250 C   0  0  0  0  0  0  0  0  0  0  0  0
    7.4486   -7.0010    1.6826 C   0  0  0  0  0  0  0  0  0  0  0  0
    5.9227   -6.7084    1.6933 C   0  0  2  0  0  0  0  0  0  0  0  0
    5.5543   -5.2092    1.6968 C   0  0  2  0  0  0  0  0  0  0  0  0
    5.5547   -9.5196    1.9110 H   0  0  0  0  0  0  0  0  0  0  0  0
    4.6094   -9.4754    3.4006 H   0  0  0  0  0  0  0  0  0  0  0  0
    6.2888   -8.9747    3.4234 H   0  0  0  0  0  0  0  0  0  0  0  0
    4.7756   -7.0167    3.4899 H   0  0  0  0  0  0  0  0  0  0  0  0
    3.7418   -8.0983    0.8282 H   0  0  0  0  0  0  0  0  0  0  0  0
    2.8144   -7.8911    2.2852 H   0  0  0  0  0  0  0  0  0  0  0  0
    2.4638   -6.1389    0.4684 H   0  0  0  0  0  0  0  0  0  0  0  0
    2.7194   -5.5549    2.0968 H   0  0  0  0  0  0  0  0  0  0  0  0
    4.6668   -5.4800   -0.2711 H   0  0  0  0  0  0  0  0  0  0  0  0
    4.7530   -3.1320    0.1571 H   0  0  0  0  0  0  0  0  0  0  0  0
    1.9140   -3.9711   -0.3648 H   0  0  0  0  0  0  0  0  0  0  0  0
    3.2332   -3.8982   -1.5232 H   0  0  0  0  0  0  0  0  0  0  0  0
    2.6573   -2.4185   -0.7767 H   0  0  0  0  0  0  0  0  0  0  0  0
    4.0451   -1.9799    1.8945 H   0  0  0  0  0  0  0  0  0  0  0  0
    1.6660   -1.9700    1.3733 H   0  0  0  0  0  0  0  0  0  0  0  0
    1.9041   -2.1768    3.1063 H   0  0  0  0  0  0  0  0  0  0  0  0
    1.4742   -3.5685    2.1109 H   0  0  0  0  0  0  0  0  0  0  0  0
    5.8261   -4.4763    3.7563 H   0  0  0  0  0  0  0  0  0  0  0  0
    7.5229   -4.6676    2.4646 H   0  0  0  0  0  0  0  0  0  0  0  0
    6.9265   -4.6512   -0.4030 H   0  0  0  0  0  0  0  0  0  0  0  0
    9.5414   -3.6242    0.8247 H   0  0  0  0  0  0  0  0  0  0  0  0
    8.3658   -2.6637   -0.0962 H   0  0  0  0  0  0  0  0  0  0  0  0
    9.2136   -3.9827   -0.8653 H   0  0  0  0  0  0  0  0  0  0  0  0
    8.1914   -6.6408   -0.3206 H   0  0  0  0  0  0  0  0  0  0  0  0
    9.2816   -6.0812    0.8579 H   0  0  0  0  0  0  0  0  0  0  0  0
    7.6314   -8.0457    1.4463 H   0  0  0  0  0  0  0  0  0  0  0  0
    7.8869   -6.8396    2.6633 H   0  0  0  0  0  0  0  0  0  0  0  0
    5.7353   -7.0915    0.6898 H   0  0  0  0  0  0  0  0  0  0  0  0
  1  2  1  0
  1 20  1  0
  1 21  1  0
  1 22  1  0
  2 18  1  0
  2  3  1  0
  2 23  1  1
  3  4  1  0
  3 24  1  0
  3 25  1  0
  4  5  1  0
  4 26  1  0
  4 27  1  0
  5 19  1  0
  5  6  1  0
  5 28  1  6
  6  7  1  0
  6  8  1  0
  6 29  1  6
  7 30  1  0
  7 31  1  0
  7 32  1  0
  8  9  1  0
  8 10  1  0
  8 33  1  6
  9 34  1  0
  9 35  1  0
  9 36  1  0
 10 11  1  0
 19 11  1  1
 11 12  1  0
 11 37  1  1
 12 13  1  0
 13 19  1  0
 13 14  1  0
 13 38  1  1
 14 15  1  0
 14 16  1  0
 14 39  1  6
 15 40  1  0
 15 41  1  0
 15 42  1  0
 16 17  1  0
 16 43  1  0
 16 44  1  0
 17 18  1  0
 17 45  1  0
 17 46  1  0
 18 19  1  0
 18 47  1  6
M  END
>  <i_m_ct_stereo_status>  (104) 
1

>  <s_m_source_file>  (104) 
/var/tmp/pbs.5076255.sched01/tmp06yssb5m/4267g10r58.sdf

>  <i_m_source_file_index>  (104) 
6

>  <i_lp_mmshare_version>  (104) 
48012

>  <i_f3d_flags>  (104) 
0

>  <s_epik_input>  (104) 
W0NAQF0xMjNbQ0BIXTRbQ0gyXVtDSDJdW0NAQEhdKFtDSDNdKVtDQEBIXTNbQ0gyXVtDSDJdW0NASF0oW0NIM10pW0NIXTJPW0NASF0xT1tDQEhdKFtDSDNdKVtDQEBIXTRbQ0gzXQ==

>  <s_epik_cmdline>  (104) 
J2VwaWtfcHl0aG9uJywgJy1waHQnLCAnMi4wJywgJy1waCcsICc3LjAnLCAnLXRuJywgJzgnLCAnLW1hJywgJzIwMCcsICctaW1hZScsICc8aW5maWxlLm1hZT4nLCAnLW9tYWUnLCAnPG91dGZpbGUubWFlPic=

>  <r_lp_tautomer_probability>  (104) 
1

>  <r_epik_Ionization_Penalty>  (104) 
1.97601e-12

>  <r_epik_Ionization_Penalty_Charging>  (104) 
0

>  <r_epik_Ionization_Penalty_Neutral>  (104) 
1.97601e-12

>  <r_epik_State_Penalty>  (104) 
-0

>  <r_epik_Charging_Adjusted_Penalty>  (104) 
0

>  <i_epik_Tot_Q>  (104) 
0

>  <i_epik_Tot_abs_Q>  (104) 
0

>  <s_epik_Chemistry_Notes>  (104) 
This compound contains an acetal/aminal-like group ( X-CH(R)-Y where X, Y are N, S, or O) that may be acid/base labile, releasing an aldehyde.

>  <s_lp_Force_Field>  (104) 
OPLS3e

>  <r_lp_Energy>  (104) 
102.641

>  <b_lp_Chiralities_Consistent>  (104) 
1

>  <s_lp_Variant>  (104) 
33:0-1

>  <s_i_glide_gridfile>  (104) 
pfpi4k_grid

>  <i_i_glide_lignum>  (104) 
6

>  <i_i_glide_rotatable_bonds>  (104) 
0

>  <r_i_docking_score>  (104) 
-3.02586

>  <r_i_glide_ligand_efficiency>  (104) 
-0.159256

>  <r_i_glide_ligand_efficiency_sa>  (104) 
-0.424958

>  <r_i_glide_ligand_efficiency_ln>  (104) 
-0.76712

>  <r_i_glide_gscore>  (104) 
-3.02586

>  <r_i_glide_lipo>  (104) 
-0.533958

>  <r_i_glide_hbond>  (104) 
0

>  <r_i_glide_metal>  (104) 
-0

>  <r_i_glide_rewards>  (104) 
-1.63635

>  <r_i_glide_evdw>  (104) 
-16.1243

>  <r_i_glide_ecoul>  (104) 
-0.328918

>  <r_i_glide_erotb>  (104) 
0

>  <r_i_glide_esite>  (104) 
0

>  <r_i_glide_emodel>  (104) 
-18.5425

>  <r_i_glide_energy>  (104) 
-16.4532

>  <r_i_glide_einternal>  (104) 
0

>  <r_i_glide_intrahb_reward>  (104) 
-0

>  <i_i_glide_confnum>  (104) 
2

>  <i_i_glide_posenum>  (104) 
3

>  <r_i_glide_eff_state_penalty>  (104) 
0

>  <ligand_id>  (104) 
33

>  <original_smiles>  (104) 
CC1CCC2C(C)C(C)OC3OC4C(C)CCC1C324

>  <smiles>  (104) 
[H]C([H])([H])C1([H])OC2([H])OC3([H])C([H])(C([H])([H])[H])C([H])([H])C([H])([H])C4([H])C([H])(C([H])([H])[H])C([H])([H])C([H])([H])C([H])(C1([H])C([H])([H])[H])C234

$$$$
33:0:1
     RDKit          3D

 47 50  0  0  1  0  0  0  0  0999 V2000
    7.6790   -4.6372    1.2732 C   0  0  0  0  0  0  0  0  0  0  0  0
    6.5776   -4.0607    0.3715 C   0  0  2  0  0  0  0  0  0  0  0  0
    7.1773   -3.2080   -0.7637 C   0  0  0  0  0  0  0  0  0  0  0  0
    6.1072   -2.5243   -1.6375 C   0  0  0  0  0  0  0  0  0  0  0  0
    4.9007   -1.8699   -0.8973 C   0  0  1  0  0  0  0  0  0  0  0  0
    3.7916   -1.4326   -1.8897 C   0  0  1  0  0  0  0  0  0  0  0  0
    4.2066   -0.3406   -2.8771 C   0  0  0  0  0  0  0  0  0  0  0  0
    3.0880   -2.6193   -2.5815 C   0  0  1  0  0  0  0  0  0  0  0  0
    3.3952   -2.7910   -4.0742 C   0  0  0  0  0  0  0  0  0  0  0  0
    3.4232   -3.8298   -1.9234 O   0  0  0  0  0  0  0  0  0  0  0  0
    3.3543   -3.8250   -0.4979 C   0  0  2  0  0  0  0  0  0  0  0  0
    2.2461   -3.0405    0.0084 O   0  0  0  0  0  0  0  0  0  0  0  0
    3.1168   -2.7083    1.0621 C   0  0  2  0  0  0  0  0  0  0  0  0
    3.2719   -1.4969    1.9580 C   0  0  1  0  0  0  0  0  0  0  0  0
    1.9861   -0.9846    2.6284 C   0  0  0  0  0  0  0  0  0  0  0  0
    4.3557   -1.9274    3.0102 C   0  0  0  0  0  0  0  0  0  0  0  0
    5.2677   -3.1399    2.5748 C   0  0  0  0  0  0  0  0  0  0  0  0
    5.5899   -3.1067    1.0539 C   0  0  2  0  0  0  0  0  0  0  0  0
    4.3666   -2.8737    0.1532 C   0  0  2  0  0  0  0  0  0  0  0  0
    8.2999   -3.8466    1.6695 H   0  0  0  0  0  0  0  0  0  0  0  0
    8.3362   -5.3067    0.7209 H   0  0  0  0  0  0  0  0  0  0  0  0
    7.2548   -5.2069    2.1024 H   0  0  0  0  0  0  0  0  0  0  0  0
    6.0322   -4.9057   -0.0490 H   0  0  0  0  0  0  0  0  0  0  0  0
    7.8263   -2.4432   -0.3374 H   0  0  0  0  0  0  0  0  0  0  0  0
    7.8324   -3.7948   -1.4019 H   0  0  0  0  0  0  0  0  0  0  0  0
    6.6270   -1.7502   -2.1874 H   0  0  0  0  0  0  0  0  0  0  0  0
    5.7684   -3.2581   -2.3652 H   0  0  0  0  0  0  0  0  0  0  0  0
    5.2492   -0.9540   -0.4194 H   0  0  0  0  0  0  0  0  0  0  0  0
    3.0235   -0.9700   -1.2720 H   0  0  0  0  0  0  0  0  0  0  0  0
    4.9570   -0.6888   -3.5939 H   0  0  0  0  0  0  0  0  0  0  0  0
    4.6279    0.5002   -2.3473 H   0  0  0  0  0  0  0  0  0  0  0  0
    3.3656    0.0489   -3.4379 H   0  0  0  0  0  0  0  0  0  0  0  0
    2.0128   -2.4795   -2.4984 H   0  0  0  0  0  0  0  0  0  0  0  0
    3.0432   -1.9324   -4.6636 H   0  0  0  0  0  0  0  0  0  0  0  0
    2.8710   -3.6631   -4.4699 H   0  0  0  0  0  0  0  0  0  0  0  0
    4.4627   -2.9150   -4.2826 H   0  0  0  0  0  0  0  0  0  0  0  0
    3.3780   -4.8380   -0.0882 H   0  0  0  0  0  0  0  0  0  0  0  0
    2.9974   -3.5514    1.7564 H   0  0  0  0  0  0  0  0  0  0  0  0
    3.6687   -0.6731    1.3723 H   0  0  0  0  0  0  0  0  0  0  0  0
    1.5291   -1.7279    3.2756 H   0  0  0  0  0  0  0  0  0  0  0  0
    1.2540   -0.6606    1.8785 H   0  0  0  0  0  0  0  0  0  0  0  0
    2.2359   -0.1129    3.2373 H   0  0  0  0  0  0  0  0  0  0  0  0
    4.9888   -1.0562    3.2120 H   0  0  0  0  0  0  0  0  0  0  0  0
    3.8714   -2.1602    3.9514 H   0  0  0  0  0  0  0  0  0  0  0  0
    6.1888   -3.0919    3.1380 H   0  0  0  0  0  0  0  0  0  0  0  0
    4.7949   -4.0900    2.8409 H   0  0  0  0  0  0  0  0  0  0  0  0
    6.1542   -2.1775    1.1084 H   0  0  0  0  0  0  0  0  0  0  0  0
  1  2  1  0
  1 20  1  0
  1 21  1  0
  1 22  1  0
  2 18  1  0
  2  3  1  0
  2 23  1  6
  3  4  1  0
  3 24  1  0
  3 25  1  0
  4  5  1  0
  4 26  1  0
  4 27  1  0
  5 19  1  0
  5  6  1  0
  5 28  1  1
  6  7  1  0
  6  8  1  0
  6 29  1  1
  7 30  1  0
  7 31  1  0
  7 32  1  0
  8  9  1  0
  8 10  1  0
  8 33  1  6
  9 34  1  0
  9 35  1  0
  9 36  1  0
 10 11  1  0
 19 11  1  6
 11 12  1  0
 11 37  1  1
 12 13  1  0
 13 19  1  0
 13 14  1  0
 13 38  1  1
 14 15  1  0
 14 16  1  0
 14 39  1  6
 15 40  1  0
 15 41  1  0
 15 42  1  0
 16 17  1  0
 16 43  1  0
 16 44  1  0
 17 18  1  0
 17 45  1  0
 17 46  1  0
 18 19  1  0
 18 47  1  1
M  END
>  <i_m_ct_stereo_status>  (105) 
1

>  <s_m_source_file>  (105) 
/var/tmp/pbs.5076255.sched01/tmp06yssb5m/4267g10r58.sdf

>  <i_m_source_file_index>  (105) 
6

>  <i_lp_mmshare_version>  (105) 
48012

>  <i_f3d_flags>  (105) 
0

>  <s_epik_input>  (105) 
W0NAQF0xMjNbQ0BIXTRbQ0gyXVtDSDJdW0NAQEhdKFtDSDNdKVtDQEBIXTNbQ0gyXVtDSDJdW0NASF0oW0NIM10pW0NIXTJPW0NASF0xT1tDQEhdKFtDSDNdKVtDQEBIXTRbQ0gzXQ==

>  <s_epik_cmdline>  (105) 
J2VwaWtfcHl0aG9uJywgJy1waHQnLCAnMi4wJywgJy1waCcsICc3LjAnLCAnLXRuJywgJzgnLCAnLW1hJywgJzIwMCcsICctaW1hZScsICc8aW5maWxlLm1hZT4nLCAnLW9tYWUnLCAnPG91dGZpbGUubWFlPic=

>  <r_lp_tautomer_probability>  (105) 
1

>  <r_epik_Ionization_Penalty>  (105) 
1.97601e-12

>  <r_epik_Ionization_Penalty_Charging>  (105) 
0

>  <r_epik_Ionization_Penalty_Neutral>  (105) 
1.97601e-12

>  <r_epik_State_Penalty>  (105) 
-0

>  <r_epik_Charging_Adjusted_Penalty>  (105) 
0

>  <i_epik_Tot_Q>  (105) 
0

>  <i_epik_Tot_abs_Q>  (105) 
0

>  <s_epik_Chemistry_Notes>  (105) 
This compound contains an acetal/aminal-like group ( X-CH(R)-Y where X, Y are N, S, or O) that may be acid/base labile, releasing an aldehyde.

>  <s_lp_Force_Field>  (105) 
OPLS3e

>  <r_lp_Energy>  (105) 
102.641

>  <b_lp_Chiralities_Consistent>  (105) 
1

>  <s_lp_Variant>  (105) 
33:0-1

>  <s_i_glide_gridfile>  (105) 
pfpi4k_grid

>  <i_i_glide_lignum>  (105) 
6

>  <i_i_glide_rotatable_bonds>  (105) 
0

>  <r_i_docking_score>  (105) 
-2.9024

>  <r_i_glide_ligand_efficiency>  (105) 
-0.152758

>  <r_i_glide_ligand_efficiency_sa>  (105) 
-0.40762

>  <r_i_glide_ligand_efficiency_ln>  (105) 
-0.735821

>  <r_i_glide_gscore>  (105) 
-2.9024

>  <r_i_glide_lipo>  (105) 
-0.690092

>  <r_i_glide_hbond>  (105) 
-0.0220295

>  <r_i_glide_metal>  (105) 
-0

>  <r_i_glide_rewards>  (105) 
-1.60634

>  <r_i_glide_evdw>  (105) 
-19.3563

>  <r_i_glide_ecoul>  (105) 
2.62055

>  <r_i_glide_erotb>  (105) 
0

>  <r_i_glide_esite>  (105) 
-0.00920459

>  <r_i_glide_emodel>  (105) 
-18.6656

>  <r_i_glide_energy>  (105) 
-16.7357

>  <r_i_glide_einternal>  (105) 
0

>  <r_i_glide_intrahb_reward>  (105) 
-0

>  <i_i_glide_confnum>  (105) 
2

>  <i_i_glide_posenum>  (105) 
2

>  <r_i_glide_eff_state_penalty>  (105) 
0

>  <ligand_id>  (105) 
33

>  <original_smiles>  (105) 
CC1CCC2C(C)C(C)OC3OC4C(C)CCC1C324

>  <smiles>  (105) 
[H]C([H])([H])C1([H])OC2([H])OC3([H])C([H])(C([H])([H])[H])C([H])([H])C([H])([H])C4([H])C([H])(C([H])([H])[H])C([H])([H])C([H])([H])C([H])(C1([H])C([H])([H])[H])C234

$$$$
33:1:0
     RDKit          3D

 47 50  0  0  1  0  0  0  0  0999 V2000
    3.5595   -4.2404    3.3702 C   0  0  0  0  0  0  0  0  0  0  0  0
    3.6944   -3.6016    1.9748 C   0  0  2  0  0  0  0  0  0  0  0  0
    2.5447   -4.0421    1.1115 C   0  0  0  0  0  0  0  0  0  0  0  0
    2.5655   -3.3501   -0.2514 C   0  0  0  0  0  0  0  0  0  0  0  0
    3.8627   -3.5931   -1.0302 C   0  0  1  0  0  0  0  0  0  0  0  0
    3.8737   -2.8821   -2.4125 C   0  0  1  0  0  0  0  0  0  0  0  0
    2.5658   -3.0356   -3.2354 C   0  0  0  0  0  0  0  0  0  0  0  0
    4.4420   -1.4324   -2.3588 C   0  0  1  0  0  0  0  0  0  0  0  0
    3.6862   -0.3757   -3.1716 C   0  0  0  0  0  0  0  0  0  0  0  0
    4.5900   -0.9448   -1.0304 O   0  0  0  0  0  0  0  0  0  0  0  0
    5.3887   -1.7169   -0.1437 C   0  0  2  0  0  0  0  0  0  0  0  0
    6.7615   -1.8993   -0.5957 O   0  0  0  0  0  0  0  0  0  0  0  0
    6.4749   -3.3066   -0.8123 C   0  0  1  0  0  0  0  0  0  0  0  0
    7.4905   -4.2047   -0.1327 C   0  0  1  0  0  0  0  0  0  0  0  0
    8.9025   -4.1526   -0.7189 C   0  0  0  0  0  0  0  0  0  0  0  0
    7.5189   -4.1344    1.3711 C   0  0  0  0  0  0  0  0  0  0  0  0
    6.2136   -3.6854    2.0408 C   0  0  0  0  0  0  0  0  0  0  0  0
    4.9658   -3.9537    1.1967 C   0  0  2  0  0  0  0  0  0  0  0  0
    5.0804   -3.2148   -0.1703 C   0  0  2  0  0  0  0  0  0  0  0  0
    3.7202   -5.3174    3.3408 H   0  0  0  0  0  0  0  0  0  0  0  0
    2.5656   -4.0680    3.7855 H   0  0  0  0  0  0  0  0  0  0  0  0
    4.2597   -3.8043    4.0793 H   0  0  0  0  0  0  0  0  0  0  0  0
    3.6291   -2.5229    2.1046 H   0  0  0  0  0  0  0  0  0  0  0  0
    2.5433   -5.1225    0.9677 H   0  0  0  0  0  0  0  0  0  0  0  0
    1.6493   -3.7911    1.6688 H   0  0  0  0  0  0  0  0  0  0  0  0
    1.7121   -3.6963   -0.8367 H   0  0  0  0  0  0  0  0  0  0  0  0
    2.4398   -2.2769   -0.1057 H   0  0  0  0  0  0  0  0  0  0  0  0
    3.9042   -4.6548   -1.2237 H   0  0  0  0  0  0  0  0  0  0  0  0
    4.5874   -3.4389   -3.0231 H   0  0  0  0  0  0  0  0  0  0  0  0
    1.7553   -2.4360   -2.8197 H   0  0  0  0  0  0  0  0  0  0  0  0
    2.2138   -4.0689   -3.2704 H   0  0  0  0  0  0  0  0  0  0  0  0
    2.7040   -2.7283   -4.2746 H   0  0  0  0  0  0  0  0  0  0  0  0
    5.4469   -1.4710   -2.7577 H   0  0  0  0  0  0  0  0  0  0  0  0
    3.6548   -0.6103   -4.2362 H   0  0  0  0  0  0  0  0  0  0  0  0
    4.1768    0.5915   -3.0685 H   0  0  0  0  0  0  0  0  0  0  0  0
    2.6602   -0.2609   -2.8155 H   0  0  0  0  0  0  0  0  0  0  0  0
    5.3607   -1.2922    0.8565 H   0  0  0  0  0  0  0  0  0  0  0  0
    6.4137   -3.5301   -1.8745 H   0  0  0  0  0  0  0  0  0  0  0  0
    7.1292   -5.2393   -0.3061 H   0  0  0  0  0  0  0  0  0  0  0  0
    9.3949   -3.1909   -0.5352 H   0  0  0  0  0  0  0  0  0  0  0  0
    8.9445   -4.3367   -1.8037 H   0  0  0  0  0  0  0  0  0  0  0  0
    9.4449   -4.9555   -0.2338 H   0  0  0  0  0  0  0  0  0  0  0  0
    7.8183   -5.0957    1.7820 H   0  0  0  0  0  0  0  0  0  0  0  0
    8.3480   -3.4622    1.6137 H   0  0  0  0  0  0  0  0  0  0  0  0
    6.1509   -4.1829    3.0136 H   0  0  0  0  0  0  0  0  0  0  0  0
    6.2775   -2.6231    2.2577 H   0  0  0  0  0  0  0  0  0  0  0  0
    4.9487   -5.0297    1.0310 H   0  0  0  0  0  0  0  0  0  0  0  0
  1  2  1  0
  1 20  1  0
  1 21  1  0
  1 22  1  0
  2 18  1  0
  2  3  1  0
  2 23  1  1
  3  4  1  0
  3 24  1  0
  3 25  1  0
  4  5  1  0
  4 26  1  0
  4 27  1  0
  5 19  1  0
  5  6  1  0
  5 28  1  6
  6  7  1  0
  6  8  1  0
  6 29  1  6
  7 30  1  0
  7 31  1  0
  7 32  1  0
  8  9  1  0
  8 10  1  0
  8 33  1  6
  9 34  1  0
  9 35  1  0
  9 36  1  0
 10 11  1  0
 19 11  1  1
 11 12  1  0
 11 37  1  1
 12 13  1  0
 13 19  1  0
 13 14  1  0
 13 38  1  6
 14 15  1  0
 14 16  1  0
 14 39  1  1
 15 40  1  0
 15 41  1  0
 15 42  1  0
 16 17  1  0
 16 43  1  0
 16 44  1  0
 17 18  1  0
 17 45  1  0
 17 46  1  0
 18 19  1  0
 18 47  1  6
M  END
>  <i_m_ct_stereo_status>  (106) 
1

>  <s_m_source_file>  (106) 
/var/tmp/pbs.5076255.sched01/tmp06yssb5m/4267g10r58.sdf

>  <i_m_source_file_index>  (106) 
7

>  <i_lp_mmshare_version>  (106) 
48012

>  <i_f3d_flags>  (106) 
0

>  <s_epik_input>  (106) 
W0NAQF0xMjNbQ0BIXTRbQ0gyXVtDSDJdW0NAQEhdKFtDSDNdKVtDQEBIXTNbQ0gyXVtDSDJdW0NASF0oW0NIM10pW0NIXTJPW0NASF0xT1tDQEhdKFtDSDNdKVtDQEBIXTRbQ0gzXQ==

>  <s_epik_cmdline>  (106) 
J2VwaWtfcHl0aG9uJywgJy1waHQnLCAnMi4wJywgJy1waCcsICc3LjAnLCAnLXRuJywgJzgnLCAnLW1hJywgJzIwMCcsICctaW1hZScsICc8aW5maWxlLm1hZT4nLCAnLW9tYWUnLCAnPG91dGZpbGUubWFlPic=

>  <r_lp_tautomer_probability>  (106) 
1

>  <r_epik_Ionization_Penalty>  (106) 
1.97601e-12

>  <r_epik_Ionization_Penalty_Charging>  (106) 
0

>  <r_epik_Ionization_Penalty_Neutral>  (106) 
1.97601e-12

>  <r_epik_State_Penalty>  (106) 
-0

>  <r_epik_Charging_Adjusted_Penalty>  (106) 
0

>  <i_epik_Tot_Q>  (106) 
0

>  <i_epik_Tot_abs_Q>  (106) 
0

>  <s_epik_Chemistry_Notes>  (106) 
This compound contains an acetal/aminal-like group ( X-CH(R)-Y where X, Y are N, S, or O) that may be acid/base labile, releasing an aldehyde.

>  <s_lp_Force_Field>  (106) 
OPLS3e

>  <r_lp_Energy>  (106) 
55.1461

>  <b_lp_Chiralities_Consistent>  (106) 
1

>  <s_lp_Variant>  (106) 
33:0-2

>  <s_i_glide_gridfile>  (106) 
pfpi4k_grid

>  <i_i_glide_lignum>  (106) 
7

>  <i_i_glide_rotatable_bonds>  (106) 
0

>  <r_i_docking_score>  (106) 
-3.56298

>  <r_i_glide_ligand_efficiency>  (106) 
-0.187525

>  <r_i_glide_ligand_efficiency_sa>  (106) 
-0.500393

>  <r_i_glide_ligand_efficiency_ln>  (106) 
-0.903293

>  <r_i_glide_gscore>  (106) 
-3.56298

>  <r_i_glide_lipo>  (106) 
-0.735127

>  <r_i_glide_hbond>  (106) 
-0.16

>  <r_i_glide_metal>  (106) 
-0

>  <r_i_glide_rewards>  (106) 
-1.60634

>  <r_i_glide_evdw>  (106) 
-14.3894

>  <r_i_glide_ecoul>  (106) 
-2.22404

>  <r_i_glide_erotb>  (106) 
0

>  <r_i_glide_esite>  (106) 
-0.00843522

>  <r_i_glide_emodel>  (106) 
-20.5929

>  <r_i_glide_energy>  (106) 
-16.6135

>  <r_i_glide_einternal>  (106) 
0

>  <r_i_glide_intrahb_reward>  (106) 
-0

>  <i_i_glide_confnum>  (106) 
1

>  <i_i_glide_posenum>  (106) 
10

>  <r_i_glide_eff_state_penalty>  (106) 
0

>  <ligand_id>  (106) 
33

>  <original_smiles>  (106) 
CC1CCC2C(C)C(C)OC3OC4C(C)CCC1C324

>  <smiles>  (106) 
[H]C([H])([H])C1([H])OC2([H])OC3([H])C([H])(C([H])([H])[H])C([H])([H])C([H])([H])C4([H])C([H])(C([H])([H])[H])C([H])([H])C([H])([H])C([H])(C1([H])C([H])([H])[H])C234

$$$$
33:1:1
     RDKit          3D

 47 50  0  0  1  0  0  0  0  0999 V2000
    4.5965   -0.6212    3.6342 C   0  0  0  0  0  0  0  0  0  0  0  0
    4.6177   -1.3094    2.2580 C   0  0  2  0  0  0  0  0  0  0  0  0
    3.6621   -0.5988    1.2984 C   0  0  0  0  0  0  0  0  0  0  0  0
    3.7390   -1.2078   -0.0962 C   0  0  0  0  0  0  0  0  0  0  0  0
    3.4185   -2.7102   -0.1049 C   0  0  1  0  0  0  0  0  0  0  0  0
    3.5089   -3.3082   -1.5384 C   0  0  1  0  0  0  0  0  0  0  0  0
    2.7967   -2.4931   -2.6495 C   0  0  0  0  0  0  0  0  0  0  0  0
    4.9217   -3.8261   -1.9262 C   0  0  1  0  0  0  0  0  0  0  0  0
    5.3841   -3.4526   -3.3341 C   0  0  0  0  0  0  0  0  0  0  0  0
    5.9230   -3.3841   -1.0187 O   0  0  0  0  0  0  0  0  0  0  0  0
    5.7377   -3.7461    0.3434 C   0  0  2  0  0  0  0  0  0  0  0  0
    5.6555   -5.1833    0.5874 O   0  0  0  0  0  0  0  0  0  0  0  0
    4.2594   -5.0198    0.9324 C   0  0  1  0  0  0  0  0  0  0  0  0
    3.9158   -5.6787    2.2716 C   0  0  1  0  0  0  0  0  0  0  0  0
    3.9913   -7.2115    2.2600 C   0  0  0  0  0  0  0  0  0  0  0  0
    4.6790   -5.0901    3.4802 C   0  0  0  0  0  0  0  0  0  0  0  0
    5.0795   -3.6136    3.3171 C   0  0  0  0  0  0  0  0  0  0  0  0
    4.2426   -2.8099    2.2900 C   0  0  2  0  0  0  0  0  0  0  0  0
    4.3390   -3.4736    0.8865 C   0  0  2  0  0  0  0  0  0  0  0  0
    3.6567   -0.7925    4.1584 H   0  0  0  0  0  0  0  0  0  0  0  0
    4.7285    0.4575    3.5331 H   0  0  0  0  0  0  0  0  0  0  0  0
    5.4096   -0.9708    4.2692 H   0  0  0  0  0  0  0  0  0  0  0  0
    5.6291   -1.2003    1.8659 H   0  0  0  0  0  0  0  0  0  0  0  0
    2.6381   -0.6807    1.6642 H   0  0  0  0  0  0  0  0  0  0  0  0
    3.8823    0.4672    1.2443 H   0  0  0  0  0  0  0  0  0  0  0  0
    3.0144   -0.6765   -0.7247 H   0  0  0  0  0  0  0  0  0  0  0  0
    4.7234   -1.0258   -0.5250 H   0  0  0  0  0  0  0  0  0  0  0  0
    2.3813   -2.8166    0.2169 H   0  0  0  0  0  0  0  0  0  0  0  0
    2.8867   -4.2095   -1.5043 H   0  0  0  0  0  0  0  0  0  0  0  0
    3.3002   -1.5583   -2.8814 H   0  0  0  0  0  0  0  0  0  0  0  0
    1.7808   -2.2626   -2.3556 H   0  0  0  0  0  0  0  0  0  0  0  0
    2.6966   -3.0587   -3.5731 H   0  0  0  0  0  0  0  0  0  0  0  0
    4.9318   -4.9128   -1.8766 H   0  0  0  0  0  0  0  0  0  0  0  0
    4.7423   -3.8830   -4.1085 H   0  0  0  0  0  0  0  0  0  0  0  0
    6.3862   -3.8266   -3.5053 H   0  0  0  0  0  0  0  0  0  0  0  0
    5.4075   -2.3707   -3.4754 H   0  0  0  0  0  0  0  0  0  0  0  0
    6.5248   -3.3026    0.9448 H   0  0  0  0  0  0  0  0  0  0  0  0
    3.6254   -5.4079    0.1362 H   0  0  0  0  0  0  0  0  0  0  0  0
    2.8590   -5.4463    2.4674 H   0  0  0  0  0  0  0  0  0  0  0  0
    5.0140   -7.5643    2.1040 H   0  0  0  0  0  0  0  0  0  0  0  0
    3.3579   -7.6427    1.4775 H   0  0  0  0  0  0  0  0  0  0  0  0
    3.6468   -7.6143    3.2144 H   0  0  0  0  0  0  0  0  0  0  0  0
    4.0345   -5.1743    4.3524 H   0  0  0  0  0  0  0  0  0  0  0  0
    5.5640   -5.6962    3.7038 H   0  0  0  0  0  0  0  0  0  0  0  0
    5.0634   -3.1579    4.3120 H   0  0  0  0  0  0  0  0  0  0  0  0
    6.1201   -3.6038    3.0082 H   0  0  0  0  0  0  0  0  0  0  0  0
    3.2131   -2.8688    2.6396 H   0  0  0  0  0  0  0  0  0  0  0  0
  1  2  1  0
  1 20  1  0
  1 21  1  0
  1 22  1  0
  2 18  1  0
  2  3  1  0
  2 23  1  6
  3  4  1  0
  3 24  1  0
  3 25  1  0
  4  5  1  0
  4 26  1  0
  4 27  1  0
  5 19  1  0
  5  6  1  0
  5 28  1  1
  6  7  1  0
  6  8  1  0
  6 29  1  1
  7 30  1  0
  7 31  1  0
  7 32  1  0
  8  9  1  0
  8 10  1  0
  8 33  1  6
  9 34  1  0
  9 35  1  0
  9 36  1  0
 10 11  1  0
 19 11  1  6
 11 12  1  0
 11 37  1  1
 12 13  1  0
 13 19  1  0
 13 14  1  0
 13 38  1  6
 14 15  1  0
 14 16  1  0
 14 39  1  1
 15 40  1  0
 15 41  1  0
 15 42  1  0
 16 17  1  0
 16 43  1  0
 16 44  1  0
 17 18  1  0
 17 45  1  0
 17 46  1  0
 18 19  1  0
 18 47  1  1
M  END
>  <i_m_ct_stereo_status>  (107) 
1

>  <s_m_source_file>  (107) 
/var/tmp/pbs.5076255.sched01/tmp06yssb5m/4267g10r58.sdf

>  <i_m_source_file_index>  (107) 
7

>  <i_lp_mmshare_version>  (107) 
48012

>  <i_f3d_flags>  (107) 
0

>  <s_epik_input>  (107) 
W0NAQF0xMjNbQ0BIXTRbQ0gyXVtDSDJdW0NAQEhdKFtDSDNdKVtDQEBIXTNbQ0gyXVtDSDJdW0NASF0oW0NIM10pW0NIXTJPW0NASF0xT1tDQEhdKFtDSDNdKVtDQEBIXTRbQ0gzXQ==

>  <s_epik_cmdline>  (107) 
J2VwaWtfcHl0aG9uJywgJy1waHQnLCAnMi4wJywgJy1waCcsICc3LjAnLCAnLXRuJywgJzgnLCAnLW1hJywgJzIwMCcsICctaW1hZScsICc8aW5maWxlLm1hZT4nLCAnLW9tYWUnLCAnPG91dGZpbGUubWFlPic=

>  <r_lp_tautomer_probability>  (107) 
1

>  <r_epik_Ionization_Penalty>  (107) 
1.97601e-12

>  <r_epik_Ionization_Penalty_Charging>  (107) 
0

>  <r_epik_Ionization_Penalty_Neutral>  (107) 
1.97601e-12

>  <r_epik_State_Penalty>  (107) 
-0

>  <r_epik_Charging_Adjusted_Penalty>  (107) 
0

>  <i_epik_Tot_Q>  (107) 
0

>  <i_epik_Tot_abs_Q>  (107) 
0

>  <s_epik_Chemistry_Notes>  (107) 
This compound contains an acetal/aminal-like group ( X-CH(R)-Y where X, Y are N, S, or O) that may be acid/base labile, releasing an aldehyde.

>  <s_lp_Force_Field>  (107) 
OPLS3e

>  <r_lp_Energy>  (107) 
55.1461

>  <b_lp_Chiralities_Consistent>  (107) 
1

>  <s_lp_Variant>  (107) 
33:0-2

>  <s_i_glide_gridfile>  (107) 
pfpi4k_grid

>  <i_i_glide_lignum>  (107) 
7

>  <i_i_glide_rotatable_bonds>  (107) 
0

>  <r_i_docking_score>  (107) 
-3.38263

>  <r_i_glide_ligand_efficiency>  (107) 
-0.178033

>  <r_i_glide_ligand_efficiency_sa>  (107) 
-0.475064

>  <r_i_glide_ligand_efficiency_ln>  (107) 
-0.85757

>  <r_i_glide_gscore>  (107) 
-3.38263

>  <r_i_glide_lipo>  (107) 
-0.462838

>  <r_i_glide_hbond>  (107) 
0

>  <r_i_glide_metal>  (107) 
-0

>  <r_i_glide_rewards>  (107) 
-1.69692

>  <r_i_glide_evdw>  (107) 
-20.1727

>  <r_i_glide_ecoul>  (107) 
-1.42827

>  <r_i_glide_erotb>  (107) 
0

>  <r_i_glide_esite>  (107) 
0

>  <r_i_glide_emodel>  (107) 
-25.4742

>  <r_i_glide_energy>  (107) 
-21.6009

>  <r_i_glide_einternal>  (107) 
0

>  <r_i_glide_intrahb_reward>  (107) 
-0

>  <i_i_glide_confnum>  (107) 
1

>  <i_i_glide_posenum>  (107) 
38

>  <r_i_glide_eff_state_penalty>  (107) 
0

>  <ligand_id>  (107) 
33

>  <original_smiles>  (107) 
CC1CCC2C(C)C(C)OC3OC4C(C)CCC1C324

>  <smiles>  (107) 
[H]C([H])([H])C1([H])OC2([H])OC3([H])C([H])(C([H])([H])[H])C([H])([H])C([H])([H])C4([H])C([H])(C([H])([H])[H])C([H])([H])C([H])([H])C([H])(C1([H])C([H])([H])[H])C234

$$$$
33:1:2
     RDKit          3D

 47 50  0  0  1  0  0  0  0  0999 V2000
    2.6841   -5.0345    2.1429 C   0  0  0  0  0  0  0  0  0  0  0  0
    3.0083   -4.1245    0.9468 C   0  0  2  0  0  0  0  0  0  0  0  0
    2.2707   -4.6053   -0.3014 C   0  0  0  0  0  0  0  0  0  0  0  0
    2.4781   -3.6333   -1.4572 C   0  0  0  0  0  0  0  0  0  0  0  0
    3.9674   -3.4932   -1.8346 C   0  0  1  0  0  0  0  0  0  0  0  0
    4.1808   -2.5536   -3.0482 C   0  0  1  0  0  0  0  0  0  0  0  0
    3.1756   -2.7869   -4.1843 C   0  0  0  0  0  0  0  0  0  0  0  0
    4.3769   -1.0751   -2.6454 C   0  0  1  0  0  0  0  0  0  0  0  0
    3.6309   -0.0557   -3.5193 C   0  0  0  0  0  0  0  0  0  0  0  0
    4.0614   -0.8274   -1.2827 O   0  0  0  0  0  0  0  0  0  0  0  0
    4.7583   -1.5928   -0.3047 C   0  0  2  0  0  0  0  0  0  0  0  0
    6.2054   -1.4676   -0.3671 O   0  0  0  0  0  0  0  0  0  0  0  0
    6.3023   -2.8342   -0.8340 C   0  0  1  0  0  0  0  0  0  0  0  0
    7.2904   -3.6523   -0.0016 C   0  0  1  0  0  0  0  0  0  0  0  0
    8.7455   -3.2068   -0.1558 C   0  0  0  0  0  0  0  0  0  0  0  0
    6.8918   -3.8390    1.4600 C   0  0  0  0  0  0  0  0  0  0  0  0
    5.4071   -3.7498    1.7829 C   0  0  0  0  0  0  0  0  0  0  0  0
    4.5078   -4.0697    0.5740 C   0  0  2  0  0  0  0  0  0  0  0  0
    4.7992   -3.0911   -0.6097 C   0  0  2  0  0  0  0  0  0  0  0  0
    3.1030   -6.0334    2.0198 H   0  0  0  0  0  0  0  0  0  0  0  0
    1.6082   -5.1346    2.2755 H   0  0  0  0  0  0  0  0  0  0  0  0
    3.0677   -4.6216    3.0747 H   0  0  0  0  0  0  0  0  0  0  0  0
    2.6694   -3.1171    1.1999 H   0  0  0  0  0  0  0  0  0  0  0  0
    2.6377   -5.5928   -0.5615 H   0  0  0  0  0  0  0  0  0  0  0  0
    1.2123   -4.7540   -0.1676 H   0  0  0  0  0  0  0  0  0  0  0  0
    1.8865   -4.0011   -2.2913 H   0  0  0  0  0  0  0  0  0  0  0  0
    2.0704   -2.6593   -1.2130 H   0  0  0  0  0  0  0  0  0  0  0  0
    4.3140   -4.4795   -2.1475 H   0  0  0  0  0  0  0  0  0  0  0  0
    5.1244   -2.8618   -3.4913 H   0  0  0  0  0  0  0  0  0  0  0  0
    2.1600   -2.4816   -3.9209 H   0  0  0  0  0  0  0  0  0  0  0  0
    3.1384   -3.8456   -4.4292 H   0  0  0  0  0  0  0  0  0  0  0  0
    3.4546   -2.2502   -5.0900 H   0  0  0  0  0  0  0  0  0  0  0  0
    5.4252   -0.8386   -2.7340 H   0  0  0  0  0  0  0  0  0  0  0  0
    3.9172   -0.0926   -4.5760 H   0  0  0  0  0  0  0  0  0  0  0  0
    3.8573    0.9415   -3.1570 H   0  0  0  0  0  0  0  0  0  0  0  0
    2.5499   -0.1784   -3.4558 H   0  0  0  0  0  0  0  0  0  0  0  0
    4.3737   -1.3764    0.6917 H   0  0  0  0  0  0  0  0  0  0  0  0
    6.5737   -2.8528   -1.8854 H   0  0  0  0  0  0  0  0  0  0  0  0
    7.2445   -4.6681   -0.3674 H   0  0  0  0  0  0  0  0  0  0  0  0
    8.9290   -2.2034    0.2300 H   0  0  0  0  0  0  0  0  0  0  0  0
    9.0135   -3.2280   -1.2100 H   0  0  0  0  0  0  0  0  0  0  0  0
    9.3927   -3.9003    0.3839 H   0  0  0  0  0  0  0  0  0  0  0  0
    7.2888   -4.7950    1.8121 H   0  0  0  0  0  0  0  0  0  0  0  0
    7.3709   -3.0553    2.0103 H   0  0  0  0  0  0  0  0  0  0  0  0
    5.2114   -4.4131    2.6285 H   0  0  0  0  0  0  0  0  0  0  0  0
    5.1884   -2.7450    2.1391 H   0  0  0  0  0  0  0  0  0  0  0  0
    4.7805   -5.0826    0.2624 H   0  0  0  0  0  0  0  0  0  0  0  0
  1  2  1  0
  1 20  1  0
  1 21  1  0
  1 22  1  0
  2 18  1  0
  2  3  1  0
  2 23  1  1
  3  4  1  0
  3 24  1  0
  3 25  1  0
  4  5  1  0
  4 26  1  0
  4 27  1  0
  5 19  1  0
  5  6  1  0
  5 28  1  6
  6  7  1  0
  6  8  1  0
  6 29  1  6
  7 30  1  0
  7 31  1  0
  7 32  1  0
  8  9  1  0
  8 10  1  0
  8 33  1  1
  9 34  1  0
  9 35  1  0
  9 36  1  0
 10 11  1  0
 19 11  1  1
 11 12  1  0
 11 37  1  1
 12 13  1  0
 13 19  1  0
 13 14  1  0
 13 38  1  6
 14 15  1  0
 14 16  1  0
 14 39  1  6
 15 40  1  0
 15 41  1  0
 15 42  1  0
 16 17  1  0
 16 43  1  0
 16 44  1  0
 17 18  1  0
 17 45  1  0
 17 46  1  0
 18 19  1  0
 18 47  1  6
M  END
>  <i_m_ct_stereo_status>  (108) 
1

>  <s_m_source_file>  (108) 
/var/tmp/pbs.5076255.sched01/tmp06yssb5m/4267g10r58.sdf

>  <i_m_source_file_index>  (108) 
7

>  <i_lp_mmshare_version>  (108) 
48012

>  <i_f3d_flags>  (108) 
0

>  <s_epik_input>  (108) 
W0NAQF0xMjNbQ0BIXTRbQ0gyXVtDSDJdW0NAQEhdKFtDSDNdKVtDQEBIXTNbQ0gyXVtDSDJdW0NASF0oW0NIM10pW0NIXTJPW0NASF0xT1tDQEhdKFtDSDNdKVtDQEBIXTRbQ0gzXQ==

>  <s_epik_cmdline>  (108) 
J2VwaWtfcHl0aG9uJywgJy1waHQnLCAnMi4wJywgJy1waCcsICc3LjAnLCAnLXRuJywgJzgnLCAnLW1hJywgJzIwMCcsICctaW1hZScsICc8aW5maWxlLm1hZT4nLCAnLW9tYWUnLCAnPG91dGZpbGUubWFlPic=

>  <r_lp_tautomer_probability>  (108) 
1

>  <r_epik_Ionization_Penalty>  (108) 
1.97601e-12

>  <r_epik_Ionization_Penalty_Charging>  (108) 
0

>  <r_epik_Ionization_Penalty_Neutral>  (108) 
1.97601e-12

>  <r_epik_State_Penalty>  (108) 
-0

>  <r_epik_Charging_Adjusted_Penalty>  (108) 
0

>  <i_epik_Tot_Q>  (108) 
0

>  <i_epik_Tot_abs_Q>  (108) 
0

>  <s_epik_Chemistry_Notes>  (108) 
This compound contains an acetal/aminal-like group ( X-CH(R)-Y where X, Y are N, S, or O) that may be acid/base labile, releasing an aldehyde.

>  <s_lp_Force_Field>  (108) 
OPLS3e

>  <r_lp_Energy>  (108) 
55.1461

>  <b_lp_Chiralities_Consistent>  (108) 
1

>  <s_lp_Variant>  (108) 
33:0-2

>  <s_i_glide_gridfile>  (108) 
pfpi4k_grid

>  <i_i_glide_lignum>  (108) 
7

>  <i_i_glide_rotatable_bonds>  (108) 
0

>  <r_i_docking_score>  (108) 
-2.97932

>  <r_i_glide_ligand_efficiency>  (108) 
-0.156806

>  <r_i_glide_ligand_efficiency_sa>  (108) 
-0.418422

>  <r_i_glide_ligand_efficiency_ln>  (108) 
-0.755322

>  <r_i_glide_gscore>  (108) 
-2.97932

>  <r_i_glide_lipo>  (108) 
-0.585402

>  <r_i_glide_hbond>  (108) 
-0.0614684

>  <r_i_glide_metal>  (108) 
-0

>  <r_i_glide_rewards>  (108) 
-1.60634

>  <r_i_glide_evdw>  (108) 
-13.7921

>  <r_i_glide_ecoul>  (108) 
-0.105097

>  <r_i_glide_erotb>  (108) 
0

>  <r_i_glide_esite>  (108) 
-0.0207387

>  <r_i_glide_emodel>  (108) 
-17.0928

>  <r_i_glide_energy>  (108) 
-13.8972

>  <r_i_glide_einternal>  (108) 
0

>  <r_i_glide_intrahb_reward>  (108) 
-0

>  <i_i_glide_confnum>  (108) 
2

>  <i_i_glide_posenum>  (108) 
30

>  <r_i_glide_eff_state_penalty>  (108) 
0

>  <ligand_id>  (108) 
33

>  <original_smiles>  (108) 
CC1CCC2C(C)C(C)OC3OC4C(C)CCC1C324

>  <smiles>  (108) 
[H]C([H])([H])C1([H])OC2([H])OC3([H])C([H])(C([H])([H])[H])C([H])([H])C([H])([H])C4([H])C([H])(C([H])([H])[H])C([H])([H])C([H])([H])C([H])(C1([H])C([H])([H])[H])C234

$$$$
34:0:0
     RDKit          3D

 27 28  0  0  1  0  0  0  0  0999 V2000
   -1.0219    3.9120    3.9400 C   0  0  0  0  0  0  0  0  0  0  0  0
   -0.7644    2.4309    3.8664 C   0  0  0  0  0  0  0  0  0  0  0  0
   -0.3630    1.8539    2.6630 N   0  0  0  0  0  0  0  0  0  0  0  0
   -0.1814    0.5669    2.6948 N   0  0  0  0  0  0  0  0  0  0  0  0
   -0.5295   -0.0340    4.2049 S   0  0  0  0  0  0  0  0  0  0  0  0
   -0.9110    1.5029    4.8608 C   0  0  0  0  0  0  0  0  0  0  0  0
   -1.2777    1.5317    6.2983 C   0  0  0  0  0  0  0  0  0  0  0  0
   -1.6881    0.5438    6.8829 O   0  0  0  0  0  0  0  0  0  0  0  0
   -1.0921    2.7040    6.9012 N   0  0  0  0  0  0  0  0  0  0  0  0
   -1.3277    2.9906    8.3167 C   0  0  0  0  0  0  0  0  0  0  0  0
   -2.7933    2.7274    8.7194 C   0  0  0  0  0  0  0  0  0  0  0  0
   -3.2704    3.9587    9.4832 C   0  0  0  0  0  0  0  0  0  0  0  0
   -2.0195    4.7892    9.7558 C   0  0  0  0  0  0  0  0  0  0  0  0
   -1.0892    4.4778    8.5897 C   0  0  0  0  0  0  0  0  0  0  0  0
   -1.0606    4.2879    4.9612 H   0  0  0  0  0  0  0  0  0  0  0  0
   -1.9980    4.1524    3.5013 H   0  0  0  0  0  0  0  0  0  0  0  0
   -0.2337    4.4876    3.4377 H   0  0  0  0  0  0  0  0  0  0  0  0
   -0.6418    3.4252    6.3600 H   0  0  0  0  0  0  0  0  0  0  0  0
   -0.6583    2.3992    8.9551 H   0  0  0  0  0  0  0  0  0  0  0  0
   -3.4511    2.5819    7.8633 H   0  0  0  0  0  0  0  0  0  0  0  0
   -2.8490    1.8262    9.3288 H   0  0  0  0  0  0  0  0  0  0  0  0
   -3.9667    4.5349    8.8735 H   0  0  0  0  0  0  0  0  0  0  0  0
   -3.7845    3.6695   10.3968 H   0  0  0  0  0  0  0  0  0  0  0  0
   -2.2317    5.8543    9.8545 H   0  0  0  0  0  0  0  0  0  0  0  0
   -1.5514    4.4441   10.6777 H   0  0  0  0  0  0  0  0  0  0  0  0
   -0.0423    4.7076    8.8011 H   0  0  0  0  0  0  0  0  0  0  0  0
   -1.3849    5.0809    7.7287 H   0  0  0  0  0  0  0  0  0  0  0  0
  1  2  1  0
  1 15  1  0
  1 16  1  0
  1 17  1  0
  2  6  2  0
  2  3  1  0
  3  4  2  0
  4  5  1  0
  5  6  1  0
  6  7  1  0
  7  8  2  0
  7  9  1  0
  9 10  1  0
  9 18  1  0
 10 14  1  0
 10 11  1  0
 10 19  1  0
 11 12  1  0
 11 20  1  0
 11 21  1  0
 12 13  1  0
 12 22  1  0
 12 23  1  0
 13 14  1  0
 13 24  1  0
 13 25  1  0
 14 26  1  0
 14 27  1  0
M  END
>  <i_m_ct_stereo_status>  (109) 
1

>  <s_m_source_file>  (109) 
/var/tmp/pbs.5076255.sched01/tmp06yssb5m/4267g10r58.sdf

>  <i_m_source_file_index>  (109) 
8

>  <i_lp_mmshare_version>  (109) 
48012

>  <i_f3d_flags>  (109) 
0

>  <s_epik_input>  (109) 
W0NIM11jMW5uc2MxQyg9TylbTkhdW0NIXTJbQ0gyXVtDSDJdW0NIMl1bQ0gyXTI=

>  <s_epik_cmdline>  (109) 
J2VwaWtfcHl0aG9uJywgJy1waHQnLCAnMi4wJywgJy1waCcsICc3LjAnLCAnLXRuJywgJzgnLCAnLW1hJywgJzIwMCcsICctaW1hZScsICc8aW5maWxlLm1hZT4nLCAnLW9tYWUnLCAnPG91dGZpbGUubWFlPic=

>  <r_lp_tautomer_probability>  (109) 
1

>  <r_epik_Ionization_Penalty>  (109) 
7.66717e-06

>  <r_epik_Ionization_Penalty_Charging>  (109) 
0

>  <r_epik_Ionization_Penalty_Neutral>  (109) 
7.66717e-06

>  <r_epik_State_Penalty>  (109) 
-0

>  <r_epik_Charging_Adjusted_Penalty>  (109) 
0

>  <i_epik_Tot_Q>  (109) 
0

>  <i_epik_Tot_abs_Q>  (109) 
0

>  <s_lp_Force_Field>  (109) 
OPLS3e

>  <r_lp_Energy>  (109) 
15.3318

>  <b_lp_Chiralities_Consistent>  (109) 
1

>  <s_lp_Variant>  (109) 
34:0-1

>  <s_i_glide_gridfile>  (109) 
pfpi4k_grid

>  <i_i_glide_lignum>  (109) 
8

>  <i_i_glide_rotatable_bonds>  (109) 
3

>  <r_i_docking_score>  (109) 
-2.31767

>  <r_i_glide_ligand_efficiency>  (109) 
-0.165548

>  <r_i_glide_ligand_efficiency_sa>  (109) 
-0.398993

>  <r_i_glide_ligand_efficiency_ln>  (109) 
-0.636886

>  <r_i_glide_gscore>  (109) 
-2.31767

>  <r_i_glide_lipo>  (109) 
-0.0447365

>  <r_i_glide_hbond>  (109) 
-0.16

>  <r_i_glide_metal>  (109) 
-0

>  <r_i_glide_rewards>  (109) 
-1.96851

>  <r_i_glide_evdw>  (109) 
-15.8811

>  <r_i_glide_ecoul>  (109) 
-2.20545

>  <r_i_glide_erotb>  (109) 
1.11753

>  <r_i_glide_esite>  (109) 
-0.137076

>  <r_i_glide_emodel>  (109) 
-19.9387

>  <r_i_glide_energy>  (109) 
-18.0866

>  <r_i_glide_einternal>  (109) 
1.28148

>  <r_i_glide_intrahb_reward>  (109) 
-0

>  <i_i_glide_confnum>  (109) 
1

>  <i_i_glide_posenum>  (109) 
36

>  <r_i_glide_eff_state_penalty>  (109) 
0

>  <ligand_id>  (109) 
34

>  <original_smiles>  (109) 
Cc1nnsc1C(=O)NC1CCCC1

>  <smiles>  (109) 
[H]N(C(=O)c1snnc1C([H])([H])[H])C1([H])C([H])([H])C([H])([H])C([H])([H])C1([H])[H]

$$$$
34:0:1
     RDKit          3D

 27 28  0  0  1  0  0  0  0  0999 V2000
    6.5365   -4.4953    0.6047 C   0  0  0  0  0  0  0  0  0  0  0  0
    5.0655   -4.3787    0.4289 C   0  0  0  0  0  0  0  0  0  0  0  0
    4.2027   -5.1569    1.2389 N   0  0  0  0  0  0  0  0  0  0  0  0
    2.9342   -4.9883    1.0007 N   0  0  0  0  0  0  0  0  0  0  0  0
    2.6966   -3.8542   -0.2014 S   0  0  0  0  0  0  0  0  0  0  0  0
    4.3792   -3.5843   -0.4486 C   0  0  0  0  0  0  0  0  0  0  0  0
    4.7857   -2.5876   -1.4844 C   0  0  0  0  0  0  0  0  0  0  0  0
    5.9732   -2.2528   -1.6316 O   0  0  0  0  0  0  0  0  0  0  0  0
    3.8063   -2.0745   -2.2451 N   0  0  0  0  0  0  0  0  0  0  0  0
    4.0207   -1.0951   -3.2934 C   0  0  0  0  0  0  0  0  0  0  0  0
    3.1064    0.0879   -3.1703 C   0  0  0  0  0  0  0  0  0  0  0  0
    2.5560    0.4720   -4.5449 C   0  0  0  0  0  0  0  0  0  0  0  0
    3.4191   -0.3286   -5.4798 C   0  0  0  0  0  0  0  0  0  0  0  0
    3.7455   -1.6090   -4.6816 C   0  0  0  0  0  0  0  0  0  0  0  0
    7.0851   -3.6580    0.1409 H   0  0  0  0  0  0  0  0  0  0  0  0
    6.9010   -5.4068    0.1301 H   0  0  0  0  0  0  0  0  0  0  0  0
    6.8182   -4.5070    1.6555 H   0  0  0  0  0  0  0  0  0  0  0  0
    2.8407   -2.3264   -2.0499 H   0  0  0  0  0  0  0  0  0  0  0  0
    5.0232   -0.6841   -3.2810 H   0  0  0  0  0  0  0  0  0  0  0  0
    2.2910   -0.1580   -2.4845 H   0  0  0  0  0  0  0  0  0  0  0  0
    3.8090    0.8655   -2.7633 H   0  0  0  0  0  0  0  0  0  0  0  0
    1.5273    0.1902   -4.7465 H   0  0  0  0  0  0  0  0  0  0  0  0
    2.6370    1.5450   -4.7423 H   0  0  0  0  0  0  0  0  0  0  0  0
    3.0019   -0.4674   -6.4647 H   0  0  0  0  0  0  0  0  0  0  0  0
    4.2233    0.3353   -5.6806 H   0  0  0  0  0  0  0  0  0  0  0  0
    4.6076   -2.1052   -5.0416 H   0  0  0  0  0  0  0  0  0  0  0  0
    2.9210   -2.3186   -4.6646 H   0  0  0  0  0  0  0  0  0  0  0  0
  1  2  1  0
  1 15  1  0
  1 16  1  0
  1 17  1  0
  2  6  2  0
  2  3  1  0
  3  4  2  0
  4  5  1  0
  5  6  1  0
  6  7  1  0
  7  8  2  0
  7  9  1  0
  9 10  1  0
  9 18  1  0
 10 14  1  0
 10 11  1  0
 10 19  1  0
 11 12  1  0
 11 20  1  0
 11 21  1  0
 12 13  1  0
 12 22  1  0
 12 23  1  0
 13 14  1  0
 13 24  1  0
 13 25  1  0
 14 26  1  0
 14 27  1  0
M  END
>  <i_m_ct_stereo_status>  (110) 
1

>  <s_m_source_file>  (110) 
/var/tmp/pbs.5076255.sched01/tmp06yssb5m/4267g10r58.sdf

>  <i_m_source_file_index>  (110) 
8

>  <i_lp_mmshare_version>  (110) 
48012

>  <i_f3d_flags>  (110) 
0

>  <s_epik_input>  (110) 
W0NIM11jMW5uc2MxQyg9TylbTkhdW0NIXTJbQ0gyXVtDSDJdW0NIMl1bQ0gyXTI=

>  <s_epik_cmdline>  (110) 
J2VwaWtfcHl0aG9uJywgJy1waHQnLCAnMi4wJywgJy1waCcsICc3LjAnLCAnLXRuJywgJzgnLCAnLW1hJywgJzIwMCcsICctaW1hZScsICc8aW5maWxlLm1hZT4nLCAnLW9tYWUnLCAnPG91dGZpbGUubWFlPic=

>  <r_lp_tautomer_probability>  (110) 
1

>  <r_epik_Ionization_Penalty>  (110) 
7.66717e-06

>  <r_epik_Ionization_Penalty_Charging>  (110) 
0

>  <r_epik_Ionization_Penalty_Neutral>  (110) 
7.66717e-06

>  <r_epik_State_Penalty>  (110) 
-0

>  <r_epik_Charging_Adjusted_Penalty>  (110) 
0

>  <i_epik_Tot_Q>  (110) 
0

>  <i_epik_Tot_abs_Q>  (110) 
0

>  <s_lp_Force_Field>  (110) 
OPLS3e

>  <r_lp_Energy>  (110) 
15.3318

>  <b_lp_Chiralities_Consistent>  (110) 
1

>  <s_lp_Variant>  (110) 
34:0-1

>  <s_i_glide_gridfile>  (110) 
pfpi4k_grid

>  <i_i_glide_lignum>  (110) 
8

>  <i_i_glide_rotatable_bonds>  (110) 
3

>  <r_i_docking_score>  (110) 
-2.08422

>  <r_i_glide_ligand_efficiency>  (110) 
-0.148873

>  <r_i_glide_ligand_efficiency_sa>  (110) 
-0.358805

>  <r_i_glide_ligand_efficiency_ln>  (110) 
-0.572737

>  <r_i_glide_gscore>  (110) 
-2.08422

>  <r_i_glide_lipo>  (110) 
-0.334305

>  <r_i_glide_hbond>  (110) 
-0.00426812

>  <r_i_glide_metal>  (110) 
-0

>  <r_i_glide_rewards>  (110) 
-2.01367

>  <r_i_glide_evdw>  (110) 
-11.7545

>  <r_i_glide_ecoul>  (110) 
-1.40513

>  <r_i_glide_erotb>  (110) 
1.11753

>  <r_i_glide_esite>  (110) 
-0.0510174

>  <r_i_glide_emodel>  (110) 
-13.4368

>  <r_i_glide_energy>  (110) 
-13.1596

>  <r_i_glide_einternal>  (110) 
3.09768

>  <r_i_glide_intrahb_reward>  (110) 
-0

>  <i_i_glide_confnum>  (110) 
2

>  <i_i_glide_posenum>  (110) 
39

>  <r_i_glide_eff_state_penalty>  (110) 
0

>  <ligand_id>  (110) 
34

>  <original_smiles>  (110) 
Cc1nnsc1C(=O)NC1CCCC1

>  <smiles>  (110) 
[H]N(C(=O)c1snnc1C([H])([H])[H])C1([H])C([H])([H])C([H])([H])C([H])([H])C1([H])[H]

$$$$
34:0:2
     RDKit          3D

 27 28  0  0  1  0  0  0  0  0999 V2000
    5.6017   -3.4640    1.6643 C   0  0  0  0  0  0  0  0  0  0  0  0
    4.3317   -3.8638    0.9781 C   0  0  0  0  0  0  0  0  0  0  0  0
    3.4571   -4.7670    1.6240 N   0  0  0  0  0  0  0  0  0  0  0  0
    2.3988   -5.0544    0.9318 N   0  0  0  0  0  0  0  0  0  0  0  0
    2.3366   -4.1999   -0.4940 S   0  0  0  0  0  0  0  0  0  0  0  0
    3.8669   -3.4406   -0.2342 C   0  0  0  0  0  0  0  0  0  0  0  0
    4.4120   -2.5304   -1.2919 C   0  0  0  0  0  0  0  0  0  0  0  0
    5.5866   -2.1650   -1.2845 O   0  0  0  0  0  0  0  0  0  0  0  0
    3.5438   -2.1258   -2.2387 N   0  0  0  0  0  0  0  0  0  0  0  0
    3.8994   -1.1779   -3.2875 C   0  0  0  0  0  0  0  0  0  0  0  0
    3.1180    0.1224   -3.1535 C   0  0  0  0  0  0  0  0  0  0  0  0
    2.5891    0.5525   -4.5285 C   0  0  0  0  0  0  0  0  0  0  0  0
    3.3095   -0.3428   -5.4617 C   0  0  0  0  0  0  0  0  0  0  0  0
    3.5357   -1.6606   -4.6723 C   0  0  0  0  0  0  0  0  0  0  0  0
    6.0416   -2.5696    1.2147 H   0  0  0  0  0  0  0  0  0  0  0  0
    6.3337   -4.2644    1.5794 H   0  0  0  0  0  0  0  0  0  0  0  0
    5.4297   -3.2452    2.7181 H   0  0  0  0  0  0  0  0  0  0  0  0
    2.5757   -2.4111   -2.1925 H   0  0  0  0  0  0  0  0  0  0  0  0
    4.9590   -0.9172   -3.3034 H   0  0  0  0  0  0  0  0  0  0  0  0
    2.2556   -0.0369   -2.5161 H   0  0  0  0  0  0  0  0  0  0  0  0
    3.8221    0.8506   -2.7634 H   0  0  0  0  0  0  0  0  0  0  0  0
    1.5252    0.4072   -4.6876 H   0  0  0  0  0  0  0  0  0  0  0  0
    2.7820    1.6081   -4.7436 H   0  0  0  0  0  0  0  0  0  0  0  0
    2.8374   -0.3204   -6.4290 H   0  0  0  0  0  0  0  0  0  0  0  0
    4.2201    0.1665   -5.6675 H   0  0  0  0  0  0  0  0  0  0  0  0
    4.3505   -2.2839   -5.0220 H   0  0  0  0  0  0  0  0  0  0  0  0
    2.6277   -2.2655   -4.6350 H   0  0  0  0  0  0  0  0  0  0  0  0
  1  2  1  0
  1 15  1  0
  1 16  1  0
  1 17  1  0
  2  6  2  0
  2  3  1  0
  3  4  2  0
  4  5  1  0
  5  6  1  0
  6  7  1  0
  7  8  2  0
  7  9  1  0
  9 10  1  0
  9 18  1  0
 10 14  1  0
 10 11  1  0
 10 19  1  0
 11 12  1  0
 11 20  1  0
 11 21  1  0
 12 13  1  0
 12 22  1  0
 12 23  1  0
 13 14  1  0
 13 24  1  0
 13 25  1  0
 14 26  1  0
 14 27  1  0
M  END
>  <i_m_ct_stereo_status>  (111) 
1

>  <s_m_source_file>  (111) 
/var/tmp/pbs.5076255.sched01/tmp06yssb5m/4267g10r58.sdf

>  <i_m_source_file_index>  (111) 
8

>  <i_lp_mmshare_version>  (111) 
48012

>  <i_f3d_flags>  (111) 
0

>  <s_epik_input>  (111) 
W0NIM11jMW5uc2MxQyg9TylbTkhdW0NIXTJbQ0gyXVtDSDJdW0NIMl1bQ0gyXTI=

>  <s_epik_cmdline>  (111) 
J2VwaWtfcHl0aG9uJywgJy1waHQnLCAnMi4wJywgJy1waCcsICc3LjAnLCAnLXRuJywgJzgnLCAnLW1hJywgJzIwMCcsICctaW1hZScsICc8aW5maWxlLm1hZT4nLCAnLW9tYWUnLCAnPG91dGZpbGUubWFlPic=

>  <r_lp_tautomer_probability>  (111) 
1

>  <r_epik_Ionization_Penalty>  (111) 
7.66717e-06

>  <r_epik_Ionization_Penalty_Charging>  (111) 
0

>  <r_epik_Ionization_Penalty_Neutral>  (111) 
7.66717e-06

>  <r_epik_State_Penalty>  (111) 
-0

>  <r_epik_Charging_Adjusted_Penalty>  (111) 
0

>  <i_epik_Tot_Q>  (111) 
0

>  <i_epik_Tot_abs_Q>  (111) 
0

>  <s_lp_Force_Field>  (111) 
OPLS3e

>  <r_lp_Energy>  (111) 
15.3318

>  <b_lp_Chiralities_Consistent>  (111) 
1

>  <s_lp_Variant>  (111) 
34:0-1

>  <s_i_glide_gridfile>  (111) 
pfpi4k_grid

>  <i_i_glide_lignum>  (111) 
8

>  <i_i_glide_rotatable_bonds>  (111) 
3

>  <r_i_docking_score>  (111) 
-1.71005

>  <r_i_glide_ligand_efficiency>  (111) 
-0.122146

>  <r_i_glide_ligand_efficiency_sa>  (111) 
-0.29439

>  <r_i_glide_ligand_efficiency_ln>  (111) 
-0.469915

>  <r_i_glide_gscore>  (111) 
-1.71005

>  <r_i_glide_lipo>  (111) 
-0.229146

>  <r_i_glide_hbond>  (111) 
0

>  <r_i_glide_metal>  (111) 
-0

>  <r_i_glide_rewards>  (111) 
-2.01724

>  <r_i_glide_evdw>  (111) 
-6.23395

>  <r_i_glide_ecoul>  (111) 
-1.181

>  <r_i_glide_erotb>  (111) 
1.11753

>  <r_i_glide_esite>  (111) 
-0.0923466

>  <r_i_glide_emodel>  (111) 
-7.57847

>  <r_i_glide_energy>  (111) 
-7.41495

>  <r_i_glide_einternal>  (111) 
2.90772

>  <r_i_glide_intrahb_reward>  (111) 
-0

>  <i_i_glide_confnum>  (111) 
2

>  <i_i_glide_posenum>  (111) 
29

>  <r_i_glide_eff_state_penalty>  (111) 
0

>  <ligand_id>  (111) 
34

>  <original_smiles>  (111) 
Cc1nnsc1C(=O)NC1CCCC1

>  <smiles>  (111) 
[H]N(C(=O)c1snnc1C([H])([H])[H])C1([H])C([H])([H])C([H])([H])C([H])([H])C1([H])[H]

$$$$
35:0:0
     RDKit          3D

 58 64  0  0  1  0  0  0  0  0999 V2000
    4.7234   -4.4415   -4.5844 C   0  0  0  0  0  0  0  0  0  0  0  0
    5.5271   -3.8267   -3.5634 O   0  0  0  0  0  0  0  0  0  0  0  0
    4.7787   -3.5937   -2.3658 C   0  0  2  0  0  0  0  0  0  0  0  0
    3.8753   -2.2439   -2.6128 C   0  0  0  0  0  0  0  0  0  0  0  0
    3.8354   -1.0022   -1.9838 C   0  0  0  0  0  0  0  0  0  0  0  0
    4.6224   -0.3512   -0.6936 C   0  0  2  0  0  0  0  0  0  0  0  0
    5.4195   -0.5610    0.8161 C   0  0  1  0  0  0  0  0  0  0  0  0
    4.1962   -1.1603    1.1880 C   0  0  0  0  0  0  0  0  0  0  0  0
    4.5591   -1.7147   -0.1874 C   0  0  2  0  0  0  0  0  0  0  0  0
    5.8089   -2.3077   -0.9764 C   0  0  1  0  0  0  0  0  0  0  0  0
    7.2043   -2.1954   -0.8022 O   0  0  0  0  0  0  0  0  0  0  0  0
    7.0659   -3.4680   -0.3356 C   0  0  1  0  0  0  0  0  0  0  0  0
    6.8755   -3.1473    1.1719 C   0  0  1  0  0  0  0  0  0  0  0  0
    6.6194   -1.5193    1.4620 C   0  0  0  0  0  0  0  0  0  0  0  0
    5.8167   -4.2581    1.5785 C   0  0  1  0  0  0  0  0  0  0  0  0
    4.9610   -3.7560    2.6045 O   0  0  0  0  0  0  0  0  0  0  0  0
    4.2213   -4.6021    3.4793 C   0  0  0  0  0  0  0  0  0  0  0  0
    3.0253   -5.3282    2.8491 C   0  0  0  0  0  0  0  0  0  0  0  0
    3.2739   -6.0711    1.5256 C   0  0  0  0  0  0  0  0  0  0  0  0
    3.5754   -5.1424    0.3185 C   0  0  1  0  0  0  0  0  0  0  0  0
    2.5647   -4.1389    0.3370 O   0  0  0  0  0  0  0  0  0  0  0  0
    1.7806   -3.9860   -0.8542 C   0  0  0  0  0  0  0  0  0  0  0  0
    5.0793   -4.6607    0.2256 C   0  0  2  0  0  0  0  0  0  0  0  0
    5.6423   -5.9433   -0.0646 O   0  0  0  0  0  0  0  0  0  0  0  0
    6.7485   -6.3283    0.7389 C   0  0  0  0  0  0  0  0  0  0  0  0
    6.5091   -5.5889    2.0228 C   0  0  1  0  0  0  0  0  0  0  0  0
    7.7349   -5.4686    2.7151 O   0  0  0  0  0  0  0  0  0  0  0  0
    5.6487   -3.7613   -0.9806 C   0  0  2  0  0  0  0  0  0  0  0  0
    5.3369   -4.6336   -5.4629 H   0  0  0  0  0  0  0  0  0  0  0  0
    3.8770   -3.8147   -4.8605 H   0  0  0  0  0  0  0  0  0  0  0  0
    4.3124   -5.4132   -4.3072 H   0  0  0  0  0  0  0  0  0  0  0  0
    4.0714   -4.3839   -2.2827 H   0  0  0  0  0  0  0  0  0  0  0  0
    3.1970   -2.3079   -3.4502 H   0  0  0  0  0  0  0  0  0  0  0  0
    3.1272   -0.3035   -2.3825 H   0  0  0  0  0  0  0  0  0  0  0  0
    5.4719    0.0089   -1.2557 H   0  0  0  0  0  0  0  0  0  0  0  0
    5.4893    0.4232    1.2651 H   0  0  0  0  0  0  0  0  0  0  0  0
    4.2516   -1.7718    2.0640 H   0  0  0  0  0  0  0  0  0  0  0  0
    3.3278   -0.5021    1.2069 H   0  0  0  0  0  0  0  0  0  0  0  0
    3.6513   -2.3109   -0.2519 H   0  0  0  0  0  0  0  0  0  0  0  0
    6.0373   -1.8566   -1.9568 H   0  0  0  0  0  0  0  0  0  0  0  0
    7.8753   -4.1234   -0.6451 H   0  0  0  0  0  0  0  0  0  0  0  0
    7.8245   -3.3717    1.6496 H   0  0  0  0  0  0  0  0  0  0  0  0
    7.5768   -1.0370    1.2484 H   0  0  0  0  0  0  0  0  0  0  0  0
    6.5453   -1.4300    2.5384 H   0  0  0  0  0  0  0  0  0  0  0  0
    4.8537   -5.2654    4.0669 H   0  0  0  0  0  0  0  0  0  0  0  0
    3.8078   -3.9328    4.2286 H   0  0  0  0  0  0  0  0  0  0  0  0
    2.6574   -6.0480    3.5783 H   0  0  0  0  0  0  0  0  0  0  0  0
    2.2022   -4.6283    2.7197 H   0  0  0  0  0  0  0  0  0  0  0  0
    4.0174   -6.8590    1.6446 H   0  0  0  0  0  0  0  0  0  0  0  0
    2.3590   -6.6112    1.2917 H   0  0  0  0  0  0  0  0  0  0  0  0
    3.4144   -5.7802   -0.5487 H   0  0  0  0  0  0  0  0  0  0  0  0
    1.1106   -3.0899   -0.6966 H   0  0  0  0  0  0  0  0  0  0  0  0
    1.1940   -4.8909   -1.0923 H   0  0  0  0  0  0  0  0  0  0  0  0
    2.3638   -3.7930   -1.7023 H   0  0  0  0  0  0  0  0  0  0  0  0
    6.7678   -7.4066    0.8919 H   0  0  0  0  0  0  0  0  0  0  0  0
    7.6998   -6.0682    0.2790 H   0  0  0  0  0  0  0  0  0  0  0  0
    5.8685   -6.2603    2.5871 H   0  0  0  0  0  0  0  0  0  0  0  0
    8.1015   -6.3316    2.8488 H   0  0  0  0  0  0  0  0  0  0  0  0
  1  2  1  0
  1 29  1  0
  1 30  1  0
  1 31  1  0
  2  3  1  0
  3 28  1  0
  3  4  1  0
  3 32  1  1
  4  5  2  0
  4 33  1  0
  5  6  1  0
  5 34  1  0
  6  9  1  0
  6  7  1  0
  6 35  1  1
  7 14  1  0
  7  8  1  0
  7 36  1  1
  8  9  1  0
  8 37  1  0
  8 38  1  0
  9 10  1  0
  9 39  1  6
 10 28  1  0
 10 11  1  0
 10 40  1  6
 11 12  1  0
 12 28  1  0
 12 13  1  0
 12 41  1  1
 13 14  1  0
 13 15  1  0
 13 42  1  1
 14 43  1  0
 14 44  1  0
 15 23  1  0
 15 26  1  0
 15 16  1  1
 16 17  1  0
 17 18  1  0
 17 45  1  0
 17 46  1  0
 18 19  1  0
 18 47  1  0
 18 48  1  0
 19 20  1  0
 19 49  1  0
 19 50  1  0
 20 21  1  0
 20 23  1  0
 20 51  1  6
 21 22  1  0
 22 52  1  0
 22 53  1  0
 22 54  1  0
 23 24  1  6
 28 23  1  1
 24 25  1  0
 25 26  1  0
 25 55  1  0
 25 56  1  0
 26 27  1  0
 26 57  1  1
 27 58  1  0
M  END
>  <i_m_ct_stereo_status>  (112) 
1

>  <s_m_source_file>  (112) 
/var/tmp/pbs.5076255.sched01/tmp06yssb5m/4267g10r58.sdf

>  <i_m_source_file_index>  (112) 
9

>  <i_lp_mmshare_version>  (112) 
48012

>  <i_f3d_flags>  (112) 
0

>  <s_epik_input>  (112) 
W0NIM11PW0NAQEhdMVtDSF09W0NIXVtDSF0oW0NAQEhdKFtDSDJdMilbQ0gyXVtDQEBIXTNbQ0BASF00TzUpW0NASF0yW0NAQEhdNVtDQEBdMTRbQ0BAXShbQ0BAXTM2NykoW0NASF0oT1tDSDNdKVtDSDJdW0NIMl1bQ0gyXU82KU9bQ0gyXVtDQEhdN1tPSF0=

>  <s_epik_cmdline>  (112) 
J2VwaWtfcHl0aG9uJywgJy1waHQnLCAnMi4wJywgJy1waCcsICc3LjAnLCAnLXRuJywgJzgnLCAnLW1hJywgJzIwMCcsICctaW1hZScsICc8aW5maWxlLm1hZT4nLCAnLW9tYWUnLCAnPG91dGZpbGUubWFlPic=

>  <r_lp_tautomer_probability>  (112) 
1

>  <r_epik_Ionization_Penalty>  (112) 
1.21401e-06

>  <r_epik_Ionization_Penalty_Charging>  (112) 
0

>  <r_epik_Ionization_Penalty_Neutral>  (112) 
1.21401e-06

>  <r_epik_State_Penalty>  (112) 
-0

>  <r_epik_Charging_Adjusted_Penalty>  (112) 
0

>  <i_epik_Tot_Q>  (112) 
0

>  <i_epik_Tot_abs_Q>  (112) 
0

>  <s_lp_Force_Field>  (112) 
OPLS3e

>  <r_lp_Energy>  (112) 
377.204

>  <b_lp_Chiralities_Consistent>  (112) 
1

>  <s_lp_Variant>  (112) 
35:0-1

>  <s_i_glide_gridfile>  (112) 
pfpi4k_grid

>  <i_i_glide_lignum>  (112) 
9

>  <i_i_glide_rotatable_bonds>  (112) 
3

>  <r_i_docking_score>  (112) 
-2.5088

>  <r_i_glide_ligand_efficiency>  (112) 
-0.0895998

>  <r_i_glide_ligand_efficiency_sa>  (112) 
-0.272078

>  <r_i_glide_ligand_efficiency_ln>  (112) 
-0.579104

>  <r_i_glide_gscore>  (112) 
-2.5088

>  <r_i_glide_lipo>  (112) 
-0.771756

>  <r_i_glide_hbond>  (112) 
-0.16

>  <r_i_glide_metal>  (112) 
-0

>  <r_i_glide_rewards>  (112) 
-0.746795

>  <r_i_glide_evdw>  (112) 
-11.0463

>  <r_i_glide_ecoul>  (112) 
-1.85286

>  <r_i_glide_erotb>  (112) 
0

>  <r_i_glide_esite>  (112) 
0

>  <r_i_glide_emodel>  (112) 
-11.4735

>  <r_i_glide_energy>  (112) 
-12.8991

>  <r_i_glide_einternal>  (112) 
1.71283

>  <r_i_glide_intrahb_reward>  (112) 
-0

>  <i_i_glide_confnum>  (112) 
2

>  <i_i_glide_posenum>  (112) 
6

>  <r_i_glide_eff_state_penalty>  (112) 
0

>  <ligand_id>  (112) 
35

>  <original_smiles>  (112) 
COC1C=CC2C3CC2C2OC4C(C3)C35OCCCC(OC)C3(OCC5O)C124

>  <smiles>  (112) 
[H]OC1([H])C([H])([H])OC23C([H])(OC([H])([H])[H])C([H])([H])C([H])([H])C([H])([H])OC12C1([H])C([H])([H])C2([H])C([H])([H])C4([H])C5([H])OC1([H])C53C([H])(OC([H])([H])[H])C([H])=C([H])C24[H]

$$$$
35:0:1
     RDKit          3D

 58 64  0  0  1  0  0  0  0  0999 V2000
    1.6901   -2.9574   -2.8374 C   0  0  0  0  0  0  0  0  0  0  0  0
    2.8375   -3.5396   -2.2425 O   0  0  0  0  0  0  0  0  0  0  0  0
    3.2122   -2.9561   -1.0007 C   0  0  2  0  0  0  0  0  0  0  0  0
    4.1174   -1.6373   -1.3896 C   0  0  0  0  0  0  0  0  0  0  0  0
    5.4516   -1.2956   -1.1362 C   0  0  0  0  0  0  0  0  0  0  0  0
    6.6996   -2.0187   -0.3371 C   0  0  2  0  0  0  0  0  0  0  0  0
    7.2386   -3.0804    0.9147 C   0  0  1  0  0  0  0  0  0  0  0  0
    6.4713   -2.2058    1.7215 C   0  0  0  0  0  0  0  0  0  0  0  0
    5.6232   -2.4973    0.5020 C   0  0  2  0  0  0  0  0  0  0  0  0
    5.1366   -3.7286   -0.3672 C   0  0  1  0  0  0  0  0  0  0  0  0
    5.6911   -5.0010   -0.5932 O   0  0  0  0  0  0  0  0  0  0  0  0
    4.6515   -5.3971    0.1934 C   0  0  1  0  0  0  0  0  0  0  0  0
    5.4145   -5.3671    1.5455 C   0  0  1  0  0  0  0  0  0  0  0  0
    6.9159   -4.6219    1.4562 C   0  0  0  0  0  0  0  0  0  0  0  0
    4.2457   -4.8477    2.4830 C   0  0  1  0  0  0  0  0  0  0  0  0
    4.8066   -4.0565    3.5360 O   0  0  0  0  0  0  0  0  0  0  0  0
    4.1432   -3.7986    4.7726 C   0  0  0  0  0  0  0  0  0  0  0  0
    2.9506   -2.8366    4.6891 C   0  0  0  0  0  0  0  0  0  0  0  0
    1.9073   -3.1027    3.5893 C   0  0  0  0  0  0  0  0  0  0  0  0
    2.4179   -2.8614    2.1421 C   0  0  1  0  0  0  0  0  0  0  0  0
    3.0799   -1.5924    2.1536 O   0  0  0  0  0  0  0  0  0  0  0  0
    2.5757   -0.5802    1.2903 C   0  0  0  0  0  0  0  0  0  0  0  0
    3.2024   -4.0919    1.5346 C   0  0  2  0  0  0  0  0  0  0  0  0
    2.1152   -5.0395    1.3820 O   0  0  0  0  0  0  0  0  0  0  0  0
    2.3542   -6.3032    2.0009 C   0  0  0  0  0  0  0  0  0  0  0  0
    3.3994   -6.0179    3.0600 C   0  0  1  0  0  0  0  0  0  0  0  0
    4.1092   -7.1836    3.4423 O   0  0  0  0  0  0  0  0  0  0  0  0
    3.7738   -4.0710    0.0561 C   0  0  2  0  0  0  0  0  0  0  0  0
    1.4608   -3.4021   -3.8022 H   0  0  0  0  0  0  0  0  0  0  0  0
    1.8259   -1.8908   -3.0007 H   0  0  0  0  0  0  0  0  0  0  0  0
    0.8345   -3.1211   -2.1798 H   0  0  0  0  0  0  0  0  0  0  0  0
    2.3171   -2.5793   -0.5298 H   0  0  0  0  0  0  0  0  0  0  0  0
    3.5852   -0.9107   -1.9766 H   0  0  0  0  0  0  0  0  0  0  0  0
    5.7490   -0.3319   -1.5066 H   0  0  0  0  0  0  0  0  0  0  0  0
    7.1580   -2.5530   -1.1591 H   0  0  0  0  0  0  0  0  0  0  0  0
    8.3053   -2.8919    1.0363 H   0  0  0  0  0  0  0  0  0  0  0  0
    6.1396   -2.5865    2.6696 H   0  0  0  0  0  0  0  0  0  0  0  0
    6.8238   -1.1796    1.8029 H   0  0  0  0  0  0  0  0  0  0  0  0
    4.8215   -1.8708    0.8682 H   0  0  0  0  0  0  0  0  0  0  0  0
    5.2708   -3.6112   -1.4632 H   0  0  0  0  0  0  0  0  0  0  0  0
    4.2012   -6.3193   -0.1596 H   0  0  0  0  0  0  0  0  0  0  0  0
    5.6838   -6.3908    1.8025 H   0  0  0  0  0  0  0  0  0  0  0  0
    7.5582   -5.2998    0.8839 H   0  0  0  0  0  0  0  0  0  0  0  0
    7.3258   -4.7205    2.4608 H   0  0  0  0  0  0  0  0  0  0  0  0
    3.9167   -4.7082    5.3257 H   0  0  0  0  0  0  0  0  0  0  0  0
    4.8838   -3.3096    5.3992 H   0  0  0  0  0  0  0  0  0  0  0  0
    2.4439   -2.8655    5.6523 H   0  0  0  0  0  0  0  0  0  0  0  0
    3.3121   -1.8165    4.5990 H   0  0  0  0  0  0  0  0  0  0  0  0
    1.4474   -4.0820    3.7066 H   0  0  0  0  0  0  0  0  0  0  0  0
    1.0933   -2.4012    3.7582 H   0  0  0  0  0  0  0  0  0  0  0  0
    1.5113   -2.7337    1.5504 H   0  0  0  0  0  0  0  0  0  0  0  0
    3.1980    0.3151    1.4021 H   0  0  0  0  0  0  0  0  0  0  0  0
    1.5446   -0.3042    1.5282 H   0  0  0  0  0  0  0  0  0  0  0  0
    2.5920   -0.9128    0.2858 H   0  0  0  0  0  0  0  0  0  0  0  0
    1.4443   -6.7099    2.4386 H   0  0  0  0  0  0  0  0  0  0  0  0
    2.7100   -7.0235    1.2703 H   0  0  0  0  0  0  0  0  0  0  0  0
    2.8181   -5.7382    3.9317 H   0  0  0  0  0  0  0  0  0  0  0  0
    4.5353   -7.5591    2.6833 H   0  0  0  0  0  0  0  0  0  0  0  0
  1  2  1  0
  1 29  1  0
  1 30  1  0
  1 31  1  0
  2  3  1  0
  3 28  1  0
  3  4  1  0
  3 32  1  1
  4  5  2  0
  4 33  1  0
  5  6  1  0
  5 34  1  0
  6  9  1  0
  6  7  1  0
  6 35  1  1
  7 14  1  0
  7  8  1  0
  7 36  1  1
  8  9  1  0
  8 37  1  0
  8 38  1  0
  9 10  1  0
  9 39  1  1
 10 28  1  0
 10 11  1  0
 10 40  1  6
 11 12  1  0
 12 28  1  0
 12 13  1  0
 12 41  1  6
 13 14  1  0
 13 15  1  0
 13 42  1  1
 14 43  1  0
 14 44  1  0
 15 23  1  0
 15 26  1  0
 15 16  1  1
 16 17  1  0
 17 18  1  0
 17 45  1  0
 17 46  1  0
 18 19  1  0
 18 47  1  0
 18 48  1  0
 19 20  1  0
 19 49  1  0
 19 50  1  0
 20 21  1  0
 20 23  1  0
 20 51  1  6
 21 22  1  0
 22 52  1  0
 22 53  1  0
 22 54  1  0
 23 24  1  6
 28 23  1  1
 24 25  1  0
 25 26  1  0
 25 55  1  0
 25 56  1  0
 26 27  1  0
 26 57  1  1
 27 58  1  0
M  END
>  <i_m_ct_stereo_status>  (113) 
1

>  <s_m_source_file>  (113) 
/var/tmp/pbs.5076255.sched01/tmp06yssb5m/4267g10r58.sdf

>  <i_m_source_file_index>  (113) 
9

>  <i_lp_mmshare_version>  (113) 
48012

>  <i_f3d_flags>  (113) 
0

>  <s_epik_input>  (113) 
W0NIM11PW0NAQEhdMVtDSF09W0NIXVtDSF0oW0NAQEhdKFtDSDJdMilbQ0gyXVtDQEBIXTNbQ0BASF00TzUpW0NASF0yW0NAQEhdNVtDQEBdMTRbQ0BAXShbQ0BAXTM2NykoW0NASF0oT1tDSDNdKVtDSDJdW0NIMl1bQ0gyXU82KU9bQ0gyXVtDQEhdN1tPSF0=

>  <s_epik_cmdline>  (113) 
J2VwaWtfcHl0aG9uJywgJy1waHQnLCAnMi4wJywgJy1waCcsICc3LjAnLCAnLXRuJywgJzgnLCAnLW1hJywgJzIwMCcsICctaW1hZScsICc8aW5maWxlLm1hZT4nLCAnLW9tYWUnLCAnPG91dGZpbGUubWFlPic=

>  <r_lp_tautomer_probability>  (113) 
1

>  <r_epik_Ionization_Penalty>  (113) 
1.21401e-06

>  <r_epik_Ionization_Penalty_Charging>  (113) 
0

>  <r_epik_Ionization_Penalty_Neutral>  (113) 
1.21401e-06

>  <r_epik_State_Penalty>  (113) 
-0

>  <r_epik_Charging_Adjusted_Penalty>  (113) 
0

>  <i_epik_Tot_Q>  (113) 
0

>  <i_epik_Tot_abs_Q>  (113) 
0

>  <s_lp_Force_Field>  (113) 
OPLS3e

>  <r_lp_Energy>  (113) 
377.204

>  <b_lp_Chiralities_Consistent>  (113) 
1

>  <s_lp_Variant>  (113) 
35:0-1

>  <s_i_glide_gridfile>  (113) 
pfpi4k_grid

>  <i_i_glide_lignum>  (113) 
9

>  <i_i_glide_rotatable_bonds>  (113) 
3

>  <r_i_docking_score>  (113) 
-2.14505

>  <r_i_glide_ligand_efficiency>  (113) 
-0.0766089

>  <r_i_glide_ligand_efficiency_sa>  (113) 
-0.23263

>  <r_i_glide_ligand_efficiency_ln>  (113) 
-0.49514

>  <r_i_glide_gscore>  (113) 
-2.14505

>  <r_i_glide_lipo>  (113) 
-0.501986

>  <r_i_glide_hbond>  (113) 
-0.0196571

>  <r_i_glide_metal>  (113) 
-0

>  <r_i_glide_rewards>  (113) 
-0.746795

>  <r_i_glide_evdw>  (113) 
-13.4147

>  <r_i_glide_ecoul>  (113) 
-1.37249

>  <r_i_glide_erotb>  (113) 
0

>  <r_i_glide_esite>  (113) 
0

>  <r_i_glide_emodel>  (113) 
-13.7109

>  <r_i_glide_energy>  (113) 
-14.7872

>  <r_i_glide_einternal>  (113) 
1.45978

>  <r_i_glide_intrahb_reward>  (113) 
-0

>  <i_i_glide_confnum>  (113) 
2

>  <i_i_glide_posenum>  (113) 
11

>  <r_i_glide_eff_state_penalty>  (113) 
0

>  <ligand_id>  (113) 
35

>  <original_smiles>  (113) 
COC1C=CC2C3CC2C2OC4C(C3)C35OCCCC(OC)C3(OCC5O)C124

>  <smiles>  (113) 
[H]OC1([H])C([H])([H])OC23C([H])(OC([H])([H])[H])C([H])([H])C([H])([H])C([H])([H])OC12C1([H])C([H])([H])C2([H])C([H])([H])C4([H])C5([H])OC1([H])C53C([H])(OC([H])([H])[H])C([H])=C([H])C24[H]

$$$$
35:1:0
     RDKit          3D

 58 64  0  0  1  0  0  0  0  0999 V2000
    2.2030   -2.2132    4.7176 C   0  0  0  0  0  0  0  0  0  0  0  0
    3.2253   -2.6193    3.8174 O   0  0  0  0  0  0  0  0  0  0  0  0
    2.9374   -3.7814    3.0451 C   0  0  2  0  0  0  0  0  0  0  0  0
    2.9953   -5.1297    3.9646 C   0  0  0  0  0  0  0  0  0  0  0  0
    3.5845   -6.4110    3.8659 C   0  0  0  0  0  0  0  0  0  0  0  0
    4.3043   -7.2533    2.6730 C   0  0  2  0  0  0  0  0  0  0  0  0
    5.7531   -7.1789    1.7565 C   0  0  1  0  0  0  0  0  0  0  0  0
    4.7430   -7.5644    0.6742 C   0  0  0  0  0  0  0  0  0  0  0  0
    3.7726   -6.6394    1.4285 C   0  0  2  0  0  0  0  0  0  0  0  0
    4.0894   -5.1378    1.2931 C   0  0  1  0  0  0  0  0  0  0  0  0
    5.0386   -5.0482    2.4915 O   0  0  0  0  0  0  0  0  0  0  0  0
    5.4066   -3.8535    2.1978 C   0  0  1  0  0  0  0  0  0  0  0  0
    6.3953   -4.2484    1.1317 C   0  0  1  0  0  0  0  0  0  0  0  0
    6.7326   -5.9152    1.1561 C   0  0  0  0  0  0  0  0  0  0  0  0
    5.6220   -3.3986   -0.0219 C   0  0  1  0  0  0  0  0  0  0  0  0
    5.4102   -4.2512   -1.1537 O   0  0  0  0  0  0  0  0  0  0  0  0
    5.3322   -3.7021   -2.4631 C   0  0  0  0  0  0  0  0  0  0  0  0
    3.9933   -3.0457   -2.8026 C   0  0  0  0  0  0  0  0  0  0  0  0
    3.3887   -2.0515   -1.7821 C   0  0  0  0  0  0  0  0  0  0  0  0
    3.0081   -2.6781   -0.4188 C   0  0  1  0  0  0  0  0  0  0  0  0
    2.2564   -3.8863   -0.6258 O   0  0  0  0  0  0  0  0  0  0  0  0
    1.1324   -3.8586   -1.5176 C   0  0  0  0  0  0  0  0  0  0  0  0
    4.2064   -2.8299    0.5843 C   0  0  2  0  0  0  0  0  0  0  0  0
    4.5137   -1.5002    1.0460 O   0  0  0  0  0  0  0  0  0  0  0  0
    5.8748   -1.1400    0.8022 C   0  0  0  0  0  0  0  0  0  0  0  0
    6.3392   -2.0587   -0.3236 C   0  0  1  0  0  0  0  0  0  0  0  0
    7.7489   -2.1256   -0.4189 O   0  0  0  0  0  0  0  0  0  0  0  0
    3.9556   -3.7479    1.8076 C   0  0  2  0  0  0  0  0  0  0  0  0
    2.5061   -1.2843    5.2028 H   0  0  0  0  0  0  0  0  0  0  0  0
    2.0269   -2.9442    5.5078 H   0  0  0  0  0  0  0  0  0  0  0  0
    1.2610   -2.0240    4.1990 H   0  0  0  0  0  0  0  0  0  0  0  0
    1.9174   -3.6956    2.6766 H   0  0  0  0  0  0  0  0  0  0  0  0
    2.5359   -4.9665    4.9236 H   0  0  0  0  0  0  0  0  0  0  0  0
    3.4701   -7.0213    4.7513 H   0  0  0  0  0  0  0  0  0  0  0  0
    3.9925   -8.2992    2.7892 H   0  0  0  0  0  0  0  0  0  0  0  0
    6.3555   -8.0506    2.0033 H   0  0  0  0  0  0  0  0  0  0  0  0
    4.9684   -7.1819   -0.3244 H   0  0  0  0  0  0  0  0  0  0  0  0
    4.4656   -8.6282    0.6620 H   0  0  0  0  0  0  0  0  0  0  0  0
    2.7360   -6.9425    1.2319 H   0  0  0  0  0  0  0  0  0  0  0  0
    3.0112   -5.0708    1.3048 H   0  0  0  0  0  0  0  0  0  0  0  0
    5.7533   -3.3017    3.0686 H   0  0  0  0  0  0  0  0  0  0  0  0
    7.3465   -3.7745    1.3506 H   0  0  0  0  0  0  0  0  0  0  0  0
    7.6481   -5.9829    1.7387 H   0  0  0  0  0  0  0  0  0  0  0  0
    7.0560   -6.1806    0.1536 H   0  0  0  0  0  0  0  0  0  0  0  0
    6.1827   -3.0794   -2.7329 H   0  0  0  0  0  0  0  0  0  0  0  0
    5.3959   -4.5650   -3.1207 H   0  0  0  0  0  0  0  0  0  0  0  0
    4.0552   -2.5580   -3.7773 H   0  0  0  0  0  0  0  0  0  0  0  0
    3.3244   -3.8787   -2.9765 H   0  0  0  0  0  0  0  0  0  0  0  0
    3.9955   -1.1599   -1.6579 H   0  0  0  0  0  0  0  0  0  0  0  0
    2.4835   -1.6555   -2.2358 H   0  0  0  0  0  0  0  0  0  0  0  0
    2.3461   -1.9965    0.1095 H   0  0  0  0  0  0  0  0  0  0  0  0
    0.6439   -4.8354   -1.4778 H   0  0  0  0  0  0  0  0  0  0  0  0
    1.3795   -3.6538   -2.5511 H   0  0  0  0  0  0  0  0  0  0  0  0
    0.4017   -3.0990   -1.2326 H   0  0  0  0  0  0  0  0  0  0  0  0
    5.9741   -0.0855    0.5373 H   0  0  0  0  0  0  0  0  0  0  0  0
    6.4627   -1.3065    1.7060 H   0  0  0  0  0  0  0  0  0  0  0  0
    5.9971   -1.5916   -1.2388 H   0  0  0  0  0  0  0  0  0  0  0  0
    8.1008   -2.4653    0.3909 H   0  0  0  0  0  0  0  0  0  0  0  0
  1  2  1  0
  1 29  1  0
  1 30  1  0
  1 31  1  0
  2  3  1  0
  3 28  1  0
  3  4  1  0
  3 32  1  6
  4  5  2  0
  4 33  1  0
  5  6  1  0
  5 34  1  0
  6  9  1  0
  6  7  1  0
  6 35  1  1
  7 14  1  0
  7  8  1  0
  7 36  1  1
  8  9  1  0
  8 37  1  0
  8 38  1  0
  9 10  1  0
  9 39  1  6
 10 28  1  0
 10 11  1  0
 10 40  1  6
 11 12  1  0
 12 28  1  0
 12 13  1  0
 12 41  1  1
 13 14  1  0
 13 15  1  0
 13 42  1  1
 14 43  1  0
 14 44  1  0
 15 23  1  0
 15 26  1  0
 15 16  1  6
 16 17  1  0
 17 18  1  0
 17 45  1  0
 17 46  1  0
 18 19  1  0
 18 47  1  0
 18 48  1  0
 19 20  1  0
 19 49  1  0
 19 50  1  0
 20 21  1  0
 20 23  1  0
 20 51  1  1
 21 22  1  0
 22 52  1  0
 22 53  1  0
 22 54  1  0
 23 24  1  1
 28 23  1  6
 24 25  1  0
 25 26  1  0
 25 55  1  0
 25 56  1  0
 26 27  1  0
 26 57  1  6
 27 58  1  0
M  END
>  <i_m_ct_stereo_status>  (114) 
1

>  <s_m_source_file>  (114) 
/var/tmp/pbs.5076255.sched01/tmp06yssb5m/4267g10r58.sdf

>  <i_m_source_file_index>  (114) 
10

>  <i_lp_mmshare_version>  (114) 
48012

>  <i_f3d_flags>  (114) 
0

>  <s_epik_input>  (114) 
W0NIM11PW0NAQEhdMVtDSF09W0NIXVtDSF0oW0NAQEhdKFtDSDJdMilbQ0gyXVtDQEBIXTNbQ0BASF00TzUpW0NASF0yW0NAQEhdNVtDQEBdMTRbQ0BAXShbQ0BAXTM2NykoW0NASF0oT1tDSDNdKVtDSDJdW0NIMl1bQ0gyXU82KU9bQ0gyXVtDQEhdN1tPSF0=

>  <s_epik_cmdline>  (114) 
J2VwaWtfcHl0aG9uJywgJy1waHQnLCAnMi4wJywgJy1waCcsICc3LjAnLCAnLXRuJywgJzgnLCAnLW1hJywgJzIwMCcsICctaW1hZScsICc8aW5maWxlLm1hZT4nLCAnLW9tYWUnLCAnPG91dGZpbGUubWFlPic=

>  <r_lp_tautomer_probability>  (114) 
1

>  <r_epik_Ionization_Penalty>  (114) 
1.21401e-06

>  <r_epik_Ionization_Penalty_Charging>  (114) 
0

>  <r_epik_Ionization_Penalty_Neutral>  (114) 
1.21401e-06

>  <r_epik_State_Penalty>  (114) 
-0

>  <r_epik_Charging_Adjusted_Penalty>  (114) 
0

>  <i_epik_Tot_Q>  (114) 
0

>  <i_epik_Tot_abs_Q>  (114) 
0

>  <s_lp_Force_Field>  (114) 
OPLS3e

>  <r_lp_Energy>  (114) 
333.189

>  <b_lp_Chiralities_Consistent>  (114) 
1

>  <s_lp_Variant>  (114) 
35:0-2

>  <s_i_glide_gridfile>  (114) 
pfpi4k_grid

>  <i_i_glide_lignum>  (114) 
10

>  <i_i_glide_rotatable_bonds>  (114) 
3

>  <r_i_docking_score>  (114) 
-2.74414

>  <r_i_glide_ligand_efficiency>  (114) 
-0.0980049

>  <r_i_glide_ligand_efficiency_sa>  (114) 
-0.2976

>  <r_i_glide_ligand_efficiency_ln>  (114) 
-0.633427

>  <r_i_glide_gscore>  (114) 
-2.74414

>  <r_i_glide_lipo>  (114) 
-0.722315

>  <r_i_glide_hbond>  (114) 
0

>  <r_i_glide_metal>  (114) 
-0

>  <r_i_glide_rewards>  (114) 
-0.746795

>  <r_i_glide_evdw>  (114) 
-19.5131

>  <r_i_glide_ecoul>  (114) 
-1.99579

>  <r_i_glide_erotb>  (114) 
0

>  <r_i_glide_esite>  (114) 
0

>  <r_i_glide_emodel>  (114) 
-22.5191

>  <r_i_glide_energy>  (114) 
-21.5089

>  <r_i_glide_einternal>  (114) 
3.65925

>  <r_i_glide_intrahb_reward>  (114) 
-0

>  <i_i_glide_confnum>  (114) 
2

>  <i_i_glide_posenum>  (114) 
15

>  <r_i_glide_eff_state_penalty>  (114) 
0

>  <ligand_id>  (114) 
35

>  <original_smiles>  (114) 
COC1C=CC2C3CC2C2OC4C(C3)C35OCCCC(OC)C3(OCC5O)C124

>  <smiles>  (114) 
[H]OC1([H])C([H])([H])OC23C([H])(OC([H])([H])[H])C([H])([H])C([H])([H])C([H])([H])OC12C1([H])C([H])([H])C2([H])C([H])([H])C4([H])C5([H])OC1([H])C53C([H])(OC([H])([H])[H])C([H])=C([H])C24[H]

$$$$
35:1:1
     RDKit          3D

 58 64  0  0  1  0  0  0  0  0999 V2000
    8.6927   -5.7618    2.4952 C   0  0  0  0  0  0  0  0  0  0  0  0
    8.5056   -4.6453    1.6387 O   0  0  0  0  0  0  0  0  0  0  0  0
    7.5088   -4.7990    0.6361 C   0  0  2  0  0  0  0  0  0  0  0  0
    7.8789   -3.8406   -0.6248 C   0  0  0  0  0  0  0  0  0  0  0  0
    7.1814   -2.9791   -1.5023 C   0  0  0  0  0  0  0  0  0  0  0  0
    5.5997   -2.6708   -1.7901 C   0  0  2  0  0  0  0  0  0  0  0  0
    4.2788   -1.9447   -0.9721 C   0  0  1  0  0  0  0  0  0  0  0  0
    3.5878   -3.1431   -1.6322 C   0  0  0  0  0  0  0  0  0  0  0  0
    4.8964   -3.9015   -1.3358 C   0  0  2  0  0  0  0  0  0  0  0  0
    5.1218   -4.2301    0.1558 C   0  0  1  0  0  0  0  0  0  0  0  0
    5.8340   -2.9284    0.5120 O   0  0  0  0  0  0  0  0  0  0  0  0
    5.8108   -3.1692    1.7751 C   0  0  1  0  0  0  0  0  0  0  0  0
    4.3858   -2.7338    1.9889 C   0  0  1  0  0  0  0  0  0  0  0  0
    3.7684   -1.8701    0.6572 C   0  0  0  0  0  0  0  0  0  0  0  0
    3.9178   -4.1958    2.5353 C   0  0  1  0  0  0  0  0  0  0  0  0
    2.7518   -4.6087    1.8008 O   0  0  0  0  0  0  0  0  0  0  0  0
    1.8407   -5.5289    2.3886 C   0  0  0  0  0  0  0  0  0  0  0  0
    2.2804   -7.0017    2.3764 C   0  0  0  0  0  0  0  0  0  0  0  0
    3.6803   -7.3325    2.9246 C   0  0  0  0  0  0  0  0  0  0  0  0
    4.8309   -6.7549    2.0759 C   0  0  1  0  0  0  0  0  0  0  0  0
    4.5974   -7.0228    0.7012 O   0  0  0  0  0  0  0  0  0  0  0  0
    4.6169   -8.3932    0.3339 C   0  0  0  0  0  0  0  0  0  0  0  0
    5.1613   -5.2523    2.3475 C   0  0  2  0  0  0  0  0  0  0  0  0
    5.8117   -5.2604    3.6240 O   0  0  0  0  0  0  0  0  0  0  0  0
    5.2261   -4.3647    4.5550 C   0  0  0  0  0  0  0  0  0  0  0  0
    3.7856   -4.2076    4.0840 C   0  0  1  0  0  0  0  0  0  0  0  0
    3.1634   -3.0693    4.6542 O   0  0  0  0  0  0  0  0  0  0  0  0
    6.0503   -4.5672    1.2750 C   0  0  2  0  0  0  0  0  0  0  0  0
    9.3644   -5.4751    3.3023 H   0  0  0  0  0  0  0  0  0  0  0  0
    9.1133   -6.6064    1.9539 H   0  0  0  0  0  0  0  0  0  0  0  0
    7.7822   -6.1175    2.9525 H   0  0  0  0  0  0  0  0  0  0  0  0
    7.5967   -5.8145    0.2497 H   0  0  0  0  0  0  0  0  0  0  0  0
    8.9482   -3.8374   -0.7887 H   0  0  0  0  0  0  0  0  0  0  0  0
    7.8136   -2.4777   -2.2184 H   0  0  0  0  0  0  0  0  0  0  0  0
    5.4985   -2.5225   -2.8711 H   0  0  0  0  0  0  0  0  0  0  0  0
    3.9892   -1.0361   -1.5106 H   0  0  0  0  0  0  0  0  0  0  0  0
    2.7301   -3.5468   -1.0902 H   0  0  0  0  0  0  0  0  0  0  0  0
    3.3579   -3.0103   -2.6955 H   0  0  0  0  0  0  0  0  0  0  0  0
    5.0131   -4.7329   -2.0464 H   0  0  0  0  0  0  0  0  0  0  0  0
    5.5617   -5.1201   -0.2786 H   0  0  0  0  0  0  0  0  0  0  0  0
    6.6138   -2.6554    2.2946 H   0  0  0  0  0  0  0  0  0  0  0  0
    4.3731   -2.0174    2.8077 H   0  0  0  0  0  0  0  0  0  0  0  0
    3.9182   -0.8286    0.9355 H   0  0  0  0  0  0  0  0  0  0  0  0
    2.6841   -1.9855    0.6824 H   0  0  0  0  0  0  0  0  0  0  0  0
    1.4949   -5.2035    3.3688 H   0  0  0  0  0  0  0  0  0  0  0  0
    0.9522   -5.4741    1.7627 H   0  0  0  0  0  0  0  0  0  0  0  0
    1.5489   -7.5733    2.9482 H   0  0  0  0  0  0  0  0  0  0  0  0
    2.1949   -7.3746    1.3555 H   0  0  0  0  0  0  0  0  0  0  0  0
    3.7893   -7.0651    3.9714 H   0  0  0  0  0  0  0  0  0  0  0  0
    3.7749   -8.4187    2.9371 H   0  0  0  0  0  0  0  0  0  0  0  0
    5.7383   -7.2993    2.3348 H   0  0  0  0  0  0  0  0  0  0  0  0
    4.4738   -8.4332   -0.7394 H   0  0  0  0  0  0  0  0  0  0  0  0
    3.8155   -8.9824    0.7793 H   0  0  0  0  0  0  0  0  0  0  0  0
    5.5718   -8.8690    0.5599 H   0  0  0  0  0  0  0  0  0  0  0  0
    5.2926   -4.7596    5.5685 H   0  0  0  0  0  0  0  0  0  0  0  0
    5.7662   -3.4165    4.5403 H   0  0  0  0  0  0  0  0  0  0  0  0
    3.2698   -5.0777    4.4673 H   0  0  0  0  0  0  0  0  0  0  0  0
    3.6467   -2.2991    4.4044 H   0  0  0  0  0  0  0  0  0  0  0  0
  1  2  1  0
  1 29  1  0
  1 30  1  0
  1 31  1  0
  2  3  1  0
  3 28  1  0
  3  4  1  0
  3 32  1  6
  4  5  2  0
  4 33  1  0
  5  6  1  0
  5 34  1  0
  6  9  1  0
  6  7  1  0
  6 35  1  6
  7 14  1  0
  7  8  1  0
  7 36  1  6
  8  9  1  0
  8 37  1  0
  8 38  1  0
  9 10  1  0
  9 39  1  6
 10 28  1  0
 10 11  1  0
 10 40  1  1
 11 12  1  0
 12 28  1  0
 12 13  1  0
 12 41  1  1
 13 14  1  0
 13 15  1  0
 13 42  1  1
 14 43  1  0
 14 44  1  0
 15 23  1  0
 15 26  1  0
 15 16  1  6
 16 17  1  0
 17 18  1  0
 17 45  1  0
 17 46  1  0
 18 19  1  0
 18 47  1  0
 18 48  1  0
 19 20  1  0
 19 49  1  0
 19 50  1  0
 20 21  1  0
 20 23  1  0
 20 51  1  1
 21 22  1  0
 22 52  1  0
 22 53  1  0
 22 54  1  0
 23 24  1  1
 28 23  1  1
 24 25  1  0
 25 26  1  0
 25 55  1  0
 25 56  1  0
 26 27  1  0
 26 57  1  6
 27 58  1  0
M  END
>  <i_m_ct_stereo_status>  (115) 
1

>  <s_m_source_file>  (115) 
/var/tmp/pbs.5076255.sched01/tmp06yssb5m/4267g10r58.sdf

>  <i_m_source_file_index>  (115) 
10

>  <i_lp_mmshare_version>  (115) 
48012

>  <i_f3d_flags>  (115) 
0

>  <s_epik_input>  (115) 
W0NIM11PW0NAQEhdMVtDSF09W0NIXVtDSF0oW0NAQEhdKFtDSDJdMilbQ0gyXVtDQEBIXTNbQ0BASF00TzUpW0NASF0yW0NAQEhdNVtDQEBdMTRbQ0BAXShbQ0BAXTM2NykoW0NASF0oT1tDSDNdKVtDSDJdW0NIMl1bQ0gyXU82KU9bQ0gyXVtDQEhdN1tPSF0=

>  <s_epik_cmdline>  (115) 
J2VwaWtfcHl0aG9uJywgJy1waHQnLCAnMi4wJywgJy1waCcsICc3LjAnLCAnLXRuJywgJzgnLCAnLW1hJywgJzIwMCcsICctaW1hZScsICc8aW5maWxlLm1hZT4nLCAnLW9tYWUnLCAnPG91dGZpbGUubWFlPic=

>  <r_lp_tautomer_probability>  (115) 
1

>  <r_epik_Ionization_Penalty>  (115) 
1.21401e-06

>  <r_epik_Ionization_Penalty_Charging>  (115) 
0

>  <r_epik_Ionization_Penalty_Neutral>  (115) 
1.21401e-06

>  <r_epik_State_Penalty>  (115) 
-0

>  <r_epik_Charging_Adjusted_Penalty>  (115) 
0

>  <i_epik_Tot_Q>  (115) 
0

>  <i_epik_Tot_abs_Q>  (115) 
0

>  <s_lp_Force_Field>  (115) 
OPLS3e

>  <r_lp_Energy>  (115) 
333.189

>  <b_lp_Chiralities_Consistent>  (115) 
1

>  <s_lp_Variant>  (115) 
35:0-2

>  <s_i_glide_gridfile>  (115) 
pfpi4k_grid

>  <i_i_glide_lignum>  (115) 
10

>  <i_i_glide_rotatable_bonds>  (115) 
3

>  <r_i_docking_score>  (115) 
-2.18661

>  <r_i_glide_ligand_efficiency>  (115) 
-0.0780931

>  <r_i_glide_ligand_efficiency_sa>  (115) 
-0.237137

>  <r_i_glide_ligand_efficiency_ln>  (115) 
-0.504733

>  <r_i_glide_gscore>  (115) 
-2.18661

>  <r_i_glide_lipo>  (115) 
-0.482994

>  <r_i_glide_hbond>  (115) 
0

>  <r_i_glide_metal>  (115) 
-0

>  <r_i_glide_rewards>  (115) 
-0.746795

>  <r_i_glide_evdw>  (115) 
-19.1859

>  <r_i_glide_ecoul>  (115) 
0.0165021

>  <r_i_glide_erotb>  (115) 
0

>  <r_i_glide_esite>  (115) 
0

>  <r_i_glide_emodel>  (115) 
-20.3401

>  <r_i_glide_energy>  (115) 
-19.1694

>  <r_i_glide_einternal>  (115) 
2.26317

>  <r_i_glide_intrahb_reward>  (115) 
-0

>  <i_i_glide_confnum>  (115) 
2

>  <i_i_glide_posenum>  (115) 
27

>  <r_i_glide_eff_state_penalty>  (115) 
0

>  <ligand_id>  (115) 
35

>  <original_smiles>  (115) 
COC1C=CC2C3CC2C2OC4C(C3)C35OCCCC(OC)C3(OCC5O)C124

>  <smiles>  (115) 
[H]OC1([H])C([H])([H])OC23C([H])(OC([H])([H])[H])C([H])([H])C([H])([H])C([H])([H])OC12C1([H])C([H])([H])C2([H])C([H])([H])C4([H])C5([H])OC1([H])C53C([H])(OC([H])([H])[H])C([H])=C([H])C24[H]

$$$$
35:1:2
     RDKit          3D

 58 64  0  0  1  0  0  0  0  0999 V2000
    9.3583   -4.1610    1.1533 C   0  0  0  0  0  0  0  0  0  0  0  0
    7.9744   -3.9899    1.3788 O   0  0  0  0  0  0  0  0  0  0  0  0
    7.1185   -4.3806    0.3297 C   0  0  2  0  0  0  0  0  0  0  0  0
    7.3767   -3.4496   -0.9866 C   0  0  0  0  0  0  0  0  0  0  0  0
    6.5819   -2.7484   -1.9087 C   0  0  0  0  0  0  0  0  0  0  0  0
    4.9926   -2.6496   -2.2223 C   0  0  2  0  0  0  0  0  0  0  0  0
    3.5677   -2.0877   -1.4552 C   0  0  1  0  0  0  0  0  0  0  0  0
    3.0669   -3.3978   -2.0680 C   0  0  0  0  0  0  0  0  0  0  0  0
    4.4632   -3.9372   -1.7151 C   0  0  2  0  0  0  0  0  0  0  0  0
    4.6902   -4.1639   -0.2065 C   0  0  1  0  0  0  0  0  0  0  0  0
    5.2240   -2.7599    0.1018 O   0  0  0  0  0  0  0  0  0  0  0  0
    5.1998   -2.9513    1.3758 C   0  0  1  0  0  0  0  0  0  0  0  0
    3.7246   -2.7076    1.5431 C   0  0  1  0  0  0  0  0  0  0  0  0
    3.0327   -2.0074    0.1639 C   0  0  0  0  0  0  0  0  0  0  0  0
    3.4527   -4.1932    2.1510 C   0  0  1  0  0  0  0  0  0  0  0  0
    2.3687   -4.7965    1.4234 O   0  0  0  0  0  0  0  0  0  0  0  0
    1.5610   -5.7930    2.0434 C   0  0  0  0  0  0  0  0  0  0  0  0
    2.1911   -7.1884    2.1253 C   0  0  0  0  0  0  0  0  0  0  0  0
    3.6151   -7.2939    2.7141 C   0  0  0  0  0  0  0  0  0  0  0  0
    4.7079   -6.6186    1.8545 C   0  0  1  0  0  0  0  0  0  0  0  0
    4.5346   -6.9850    0.4935 O   0  0  0  0  0  0  0  0  0  0  0  0
    4.6281   -8.3734    0.2077 C   0  0  0  0  0  0  0  0  0  0  0  0
    4.8387   -5.0707    2.0379 C   0  0  2  0  0  0  0  0  0  0  0  0
    5.4885   -4.9010    3.3068 O   0  0  0  0  0  0  0  0  0  0  0  0
    4.7294   -4.0810    4.1953 C   0  0  0  0  0  0  0  0  0  0  0  0
    3.2883   -4.1492    3.6918 C   0  0  1  0  0  0  0  0  0  0  0  0
    2.4836   -3.0932    4.1871 O   0  0  0  0  0  0  0  0  0  0  0  0
    5.6348   -4.3256    0.9348 C   0  0  2  0  0  0  0  0  0  0  0  0
    9.8679   -3.9346    2.0800 H   0  0  0  0  0  0  0  0  0  0  0  0
    9.7568   -3.4652    0.4117 H   0  0  0  0  0  0  0  0  0  0  0  0
    9.5986   -5.1924    0.8867 H   0  0  0  0  0  0  0  0  0  0  0  0
    7.3660   -5.4124    0.0786 H   0  0  0  0  0  0  0  0  0  0  0  0
    8.4218   -3.3198   -1.1977 H   0  0  0  0  0  0  0  0  0  0  0  0
    7.1853   -2.2692   -2.6635 H   0  0  0  0  0  0  0  0  0  0  0  0
    4.8921   -2.5739   -3.3108 H   0  0  0  0  0  0  0  0  0  0  0  0
    3.1678   -1.2581   -2.0407 H   0  0  0  0  0  0  0  0  0  0  0  0
    2.2622   -3.8904   -1.5154 H   0  0  0  0  0  0  0  0  0  0  0  0
    2.8515   -3.3555   -3.1423 H   0  0  0  0  0  0  0  0  0  0  0  0
    4.7432   -4.7607   -2.3765 H   0  0  0  0  0  0  0  0  0  0  0  0
    5.2544   -5.0185   -0.5788 H   0  0  0  0  0  0  0  0  0  0  0  0
    5.9118   -2.3108    1.8969 H   0  0  0  0  0  0  0  0  0  0  0  0
    3.5862   -1.9602    2.3217 H   0  0  0  0  0  0  0  0  0  0  0  0
    3.0065   -0.9398    0.3843 H   0  0  0  0  0  0  0  0  0  0  0  0
    1.9980   -2.3301    0.2114 H   0  0  0  0  0  0  0  0  0  0  0  0
    1.1447   -5.4686    2.9950 H   0  0  0  0  0  0  0  0  0  0  0  0
    0.6939   -5.8971    1.3931 H   0  0  0  0  0  0  0  0  0  0  0  0
    1.5308   -7.8282    2.7110 H   0  0  0  0  0  0  0  0  0  0  0  0
    2.1641   -7.6142    1.1241 H   0  0  0  0  0  0  0  0  0  0  0  0
    3.6619   -6.9636    3.7475 H   0  0  0  0  0  0  0  0  0  0  0  0
    3.8530   -8.3541    2.7908 H   0  0  0  0  0  0  0  0  0  0  0  0
    5.6721   -7.0326    2.1531 H   0  0  0  0  0  0  0  0  0  0  0  0
    4.5440   -8.4624   -0.8663 H   0  0  0  0  0  0  0  0  0  0  0  0
    3.8308   -8.9799    0.6371 H   0  0  0  0  0  0  0  0  0  0  0  0
    5.5855   -8.7979    0.5121 H   0  0  0  0  0  0  0  0  0  0  0  0
    4.8231   -4.4238    5.2263 H   0  0  0  0  0  0  0  0  0  0  0  0
    5.1152   -3.0617    4.1568 H   0  0  0  0  0  0  0  0  0  0  0  0
    2.8797   -5.0597    4.1114 H   0  0  0  0  0  0  0  0  0  0  0  0
    2.7837   -2.2760    3.8227 H   0  0  0  0  0  0  0  0  0  0  0  0
  1  2  1  0
  1 29  1  0
  1 30  1  0
  1 31  1  0
  2  3  1  0
  3 28  1  0
  3  4  1  0
  3 32  1  6
  4  5  2  0
  4 33  1  0
  5  6  1  0
  5 34  1  0
  6  9  1  0
  6  7  1  0
  6 35  1  6
  7 14  1  0
  7  8  1  0
  7 36  1  6
  8  9  1  0
  8 37  1  0
  8 38  1  0
  9 10  1  0
  9 39  1  6
 10 28  1  0
 10 11  1  0
 10 40  1  1
 11 12  1  0
 12 28  1  0
 12 13  1  0
 12 41  1  1
 13 14  1  0
 13 15  1  0
 13 42  1  1
 14 43  1  0
 14 44  1  0
 15 23  1  0
 15 26  1  0
 15 16  1  6
 16 17  1  0
 17 18  1  0
 17 45  1  0
 17 46  1  0
 18 19  1  0
 18 47  1  0
 18 48  1  0
 19 20  1  0
 19 49  1  0
 19 50  1  0
 20 21  1  0
 20 23  1  0
 20 51  1  1
 21 22  1  0
 22 52  1  0
 22 53  1  0
 22 54  1  0
 23 24  1  1
 28 23  1  1
 24 25  1  0
 25 26  1  0
 25 55  1  0
 25 56  1  0
 26 27  1  0
 26 57  1  1
 27 58  1  0
M  END
>  <i_m_ct_stereo_status>  (116) 
1

>  <s_m_source_file>  (116) 
/var/tmp/pbs.5076255.sched01/tmp06yssb5m/4267g10r58.sdf

>  <i_m_source_file_index>  (116) 
10

>  <i_lp_mmshare_version>  (116) 
48012

>  <i_f3d_flags>  (116) 
0

>  <s_epik_input>  (116) 
W0NIM11PW0NAQEhdMVtDSF09W0NIXVtDSF0oW0NAQEhdKFtDSDJdMilbQ0gyXVtDQEBIXTNbQ0BASF00TzUpW0NASF0yW0NAQEhdNVtDQEBdMTRbQ0BAXShbQ0BAXTM2NykoW0NASF0oT1tDSDNdKVtDSDJdW0NIMl1bQ0gyXU82KU9bQ0gyXVtDQEhdN1tPSF0=

>  <s_epik_cmdline>  (116) 
J2VwaWtfcHl0aG9uJywgJy1waHQnLCAnMi4wJywgJy1waCcsICc3LjAnLCAnLXRuJywgJzgnLCAnLW1hJywgJzIwMCcsICctaW1hZScsICc8aW5maWxlLm1hZT4nLCAnLW9tYWUnLCAnPG91dGZpbGUubWFlPic=

>  <r_lp_tautomer_probability>  (116) 
1

>  <r_epik_Ionization_Penalty>  (116) 
1.21401e-06

>  <r_epik_Ionization_Penalty_Charging>  (116) 
0

>  <r_epik_Ionization_Penalty_Neutral>  (116) 
1.21401e-06

>  <r_epik_State_Penalty>  (116) 
-0

>  <r_epik_Charging_Adjusted_Penalty>  (116) 
0

>  <i_epik_Tot_Q>  (116) 
0

>  <i_epik_Tot_abs_Q>  (116) 
0

>  <s_lp_Force_Field>  (116) 
OPLS3e

>  <r_lp_Energy>  (116) 
333.189

>  <b_lp_Chiralities_Consistent>  (116) 
1

>  <s_lp_Variant>  (116) 
35:0-2

>  <s_i_glide_gridfile>  (116) 
pfpi4k_grid

>  <i_i_glide_lignum>  (116) 
10

>  <i_i_glide_rotatable_bonds>  (116) 
3

>  <r_i_docking_score>  (116) 
-2.01902

>  <r_i_glide_ligand_efficiency>  (116) 
-0.0721078

>  <r_i_glide_ligand_efficiency_sa>  (116) 
-0.218962

>  <r_i_glide_ligand_efficiency_ln>  (116) 
-0.466049

>  <r_i_glide_gscore>  (116) 
-2.01902

>  <r_i_glide_lipo>  (116) 
-0.568657

>  <r_i_glide_hbond>  (116) 
0

>  <r_i_glide_metal>  (116) 
-0

>  <r_i_glide_rewards>  (116) 
-0.746795

>  <r_i_glide_evdw>  (116) 
-15.7694

>  <r_i_glide_ecoul>  (116) 
0.566031

>  <r_i_glide_erotb>  (116) 
0

>  <r_i_glide_esite>  (116) 
0

>  <r_i_glide_emodel>  (116) 
-16.7536

>  <r_i_glide_energy>  (116) 
-15.2034

>  <r_i_glide_einternal>  (116) 
1.09101

>  <r_i_glide_intrahb_reward>  (116) 
-0

>  <i_i_glide_confnum>  (116) 
1

>  <i_i_glide_posenum>  (116) 
7

>  <r_i_glide_eff_state_penalty>  (116) 
0

>  <ligand_id>  (116) 
35

>  <original_smiles>  (116) 
COC1C=CC2C3CC2C2OC4C(C3)C35OCCCC(OC)C3(OCC5O)C124

>  <smiles>  (116) 
[H]OC1([H])C([H])([H])OC23C([H])(OC([H])([H])[H])C([H])([H])C([H])([H])C([H])([H])OC12C1([H])C([H])([H])C2([H])C([H])([H])C4([H])C5([H])OC1([H])C53C([H])(OC([H])([H])[H])C([H])=C([H])C24[H]

$$$$
36:0:0
     RDKit          3D

 93 99  0  0  1  0  0  0  0  0999 V2000
    1.5250   -6.8371    8.5641 C   0  0  0  0  0  0  0  0  0  0  0  0
    0.9518   -6.5343    7.3039 O   0  0  0  0  0  0  0  0  0  0  0  0
    1.2656   -7.4470    6.3021 C   0  0  2  0  0  0  0  0  0  0  0  0
    2.5998   -7.4971    5.9364 O   0  0  0  0  0  0  0  0  0  0  0  0
    3.1726   -6.3263    5.3953 C   0  0  0  0  0  0  0  0  0  0  0  0
    2.6663   -5.7228    4.0067 C   0  0  2  0  0  0  0  0  0  0  0  0
    1.3034   -5.6739    3.6370 O   0  0  0  0  0  0  0  0  0  0  0  0
    0.3455   -5.6923    4.5977 C   0  0  1  0  0  0  0  0  0  0  0  0
    0.3978   -7.1868    5.0632 C   0  0  1  0  0  0  0  0  0  0  0  0
    0.8341   -8.1705    3.8657 C   0  0  0  0  0  0  0  0  0  0  0  0
    0.7667   -9.6452    4.3179 C   0  0  0  0  0  0  0  0  0  0  0  0
   -0.1582   -8.0727    2.6786 C   0  0  0  0  0  0  0  0  0  0  0  0
    2.2203   -8.0652    3.3778 O   0  0  0  0  0  0  0  0  0  0  0  0
    2.9039   -6.8558    2.9114 C   0  0  0  0  0  0  0  0  0  0  0  0
    2.4364   -6.6396    1.4383 C   0  0  0  0  0  0  0  0  0  0  0  0
    4.3842   -7.2828    2.7974 C   0  0  0  0  0  0  0  0  0  0  0  0
    0.5604   -4.3691    5.3538 C   0  0  1  0  0  0  0  0  0  0  0  0
    1.6808   -4.2030    6.1958 O   0  0  0  0  0  0  0  0  0  0  0  0
    1.7859   -3.4856    4.9674 C   0  0  2  0  0  0  0  0  0  0  0  0
    1.8902   -1.9665    5.3569 C   0  0  2  0  0  0  0  0  0  0  0  0
    1.3184   -1.6570    6.7657 C   0  0  0  0  0  0  0  0  0  0  0  0
    1.1699   -0.1425    6.8370 C   0  0  1  0  0  0  0  0  0  0  0  0
    2.4438    0.4080    7.1413 O   0  0  0  0  0  0  0  0  0  0  0  0
    0.6612    0.2116    5.4234 C   0  0  1  0  0  0  0  0  0  0  0  0
   -0.8801    0.4404    5.4012 C   0  0  0  0  0  0  0  0  0  0  0  0
   -1.9927   -1.2094    5.6220 Br  0  0  0  0  0  0  0  0  0  0  0  0
    1.1249    1.5168    5.1139 O   0  0  0  0  0  0  0  0  0  0  0  0
    1.8768    1.5613    3.9129 C   0  0  0  0  0  0  0  0  0  0  0  0
    0.9357    2.0558    2.7851 C   0  0  0  0  0  0  0  0  0  0  0  0
    2.9740    2.6181    4.1572 C   0  0  0  0  0  0  0  0  0  0  0  0
    2.4374    0.1101    3.8130 C   0  0  2  0  0  0  0  0  0  0  0  0
    3.0859   -0.3316    2.4628 C   0  0  1  0  0  0  0  0  0  0  0  0
    3.2957    0.7424    1.5699 O   0  0  0  0  0  0  0  0  0  0  0  0
    4.4113   -1.1880    2.5519 C   0  0  1  0  0  0  0  0  0  0  0  0
    5.4846   -0.2580    2.5282 O   0  0  0  0  0  0  0  0  0  0  0  0
    4.7471   -2.0610    3.8133 C   0  0  0  0  0  0  0  0  0  0  0  0
    4.3507   -3.5694    4.1064 C   0  0  1  0  0  0  0  0  0  0  0  0
    5.0111   -3.8747    5.4774 C   0  0  0  0  0  0  0  0  0  0  0  0
    2.8610   -4.1069    3.9247 C   0  0  1  0  0  0  0  0  0  0  0  0
    2.5324   -3.7590    2.4543 C   0  0  0  0  0  0  0  0  0  0  0  0
    1.3227   -0.8213    4.4307 C   0  0  1  0  0  0  0  0  0  0  0  0
    0.2919   -1.3745    3.4123 C   0  0  0  0  0  0  0  0  0  0  0  0
    1.2149   -6.0857    9.2894 H   0  0  0  0  0  0  0  0  0  0  0  0
    2.6130   -6.8262    8.5133 H   0  0  0  0  0  0  0  0  0  0  0  0
    1.2009   -7.8095    8.9369 H   0  0  0  0  0  0  0  0  0  0  0  0
    1.0327   -8.4378    6.6991 H   0  0  0  0  0  0  0  0  0  0  0  0
    3.2713   -5.6540    6.2295 H   0  0  0  0  0  0  0  0  0  0  0  0
    4.2058   -6.6156    5.2681 H   0  0  0  0  0  0  0  0  0  0  0  0
   -0.5907   -5.5737    4.0679 H   0  0  0  0  0  0  0  0  0  0  0  0
   -0.6186   -7.4455    5.3633 H   0  0  0  0  0  0  0  0  0  0  0  0
   -0.1860   -9.8791    4.7877 H   0  0  0  0  0  0  0  0  0  0  0  0
    1.5559   -9.8931    5.0278 H   0  0  0  0  0  0  0  0  0  0  0  0
    0.8900  -10.3238    3.4727 H   0  0  0  0  0  0  0  0  0  0  0  0
   -1.1550   -8.3957    2.9819 H   0  0  0  0  0  0  0  0  0  0  0  0
    0.1557   -8.7149    1.8541 H   0  0  0  0  0  0  0  0  0  0  0  0
   -0.2662   -7.0681    2.2792 H   0  0  0  0  0  0  0  0  0  0  0  0
    3.1556   -6.0610    0.8580 H   0  0  0  0  0  0  0  0  0  0  0  0
    1.4654   -6.1647    1.3257 H   0  0  0  0  0  0  0  0  0  0  0  0
    2.3605   -7.6072    0.9399 H   0  0  0  0  0  0  0  0  0  0  0  0
    5.0441   -6.4255    2.6617 H   0  0  0  0  0  0  0  0  0  0  0  0
    4.5337   -7.9472    1.9456 H   0  0  0  0  0  0  0  0  0  0  0  0
    4.7295   -7.8511    3.6603 H   0  0  0  0  0  0  0  0  0  0  0  0
   -0.3452   -3.8935    5.7209 H   0  0  0  0  0  0  0  0  0  0  0  0
    2.9274   -1.7864    5.5348 H   0  0  0  0  0  0  0  0  0  0  0  0
    0.3316   -2.0986    6.9007 H   0  0  0  0  0  0  0  0  0  0  0  0
    1.9645   -2.0320    7.5640 H   0  0  0  0  0  0  0  0  0  0  0  0
    0.4880    0.1732    7.6266 H   0  0  0  0  0  0  0  0  0  0  0  0
    3.0345    0.2269    6.4255 H   0  0  0  0  0  0  0  0  0  0  0  0
   -1.1586    1.1137    6.2128 H   0  0  0  0  0  0  0  0  0  0  0  0
   -1.2048    0.9165    4.4796 H   0  0  0  0  0  0  0  0  0  0  0  0
    1.4921    2.5657    1.9983 H   0  0  0  0  0  0  0  0  0  0  0  0
    0.2081    2.7792    3.1586 H   0  0  0  0  0  0  0  0  0  0  0  0
    0.3884    1.2639    2.2879 H   0  0  0  0  0  0  0  0  0  0  0  0
    3.6312    2.7031    3.2967 H   0  0  0  0  0  0  0  0  0  0  0  0
    3.5926    2.3773    5.0224 H   0  0  0  0  0  0  0  0  0  0  0  0
    2.5487    3.6096    4.3225 H   0  0  0  0  0  0  0  0  0  0  0  0
    3.2557    0.1411    4.5305 H   0  0  0  0  0  0  0  0  0  0  0  0
    2.3340   -0.8250    1.8665 H   0  0  0  0  0  0  0  0  0  0  0  0
    3.9058    1.3501    1.9664 H   0  0  0  0  0  0  0  0  0  0  0  0
    4.5215   -1.7898    1.6469 H   0  0  0  0  0  0  0  0  0  0  0  0
    6.2970   -0.7134    2.4098 H   0  0  0  0  0  0  0  0  0  0  0  0
    5.8190   -2.1948    3.7126 H   0  0  0  0  0  0  0  0  0  0  0  0
    4.7169   -1.4412    4.7062 H   0  0  0  0  0  0  0  0  0  0  0  0
    4.9331   -4.1438    3.3831 H   0  0  0  0  0  0  0  0  0  0  0  0
    4.3468   -3.6561    6.3138 H   0  0  0  0  0  0  0  0  0  0  0  0
    5.9124   -3.2827    5.6394 H   0  0  0  0  0  0  0  0  0  0  0  0
    5.3634   -4.8994    5.5524 H   0  0  0  0  0  0  0  0  0  0  0  0
    2.5601   -2.7213    2.2969 H   0  0  0  0  0  0  0  0  0  0  0  0
    1.5475   -4.0508    2.0984 H   0  0  0  0  0  0  0  0  0  0  0  0
    3.2909   -4.1492    1.7784 H   0  0  0  0  0  0  0  0  0  0  0  0
   -0.2781   -0.5859    2.9422 H   0  0  0  0  0  0  0  0  0  0  0  0
   -0.3934   -2.0550    3.8834 H   0  0  0  0  0  0  0  0  0  0  0  0
    0.7176   -1.9064    2.5737 H   0  0  0  0  0  0  0  0  0  0  0  0
  1  2  1  0
  1 43  1  0
  1 44  1  0
  1 45  1  0
  2  3  1  0
  3  9  1  0
  3  4  1  0
  3 46  1  1
  4  5  1  0
  6  5  1  1
  5 47  1  0
  5 48  1  0
  6 14  1  0
  6 39  1  0
  6  7  1  0
  7  8  1  0
  8  9  1  0
  8 17  1  0
  8 49  1  6
  9 10  1  0
  9 50  1  1
 10 11  1  0
 10 12  1  0
 10 13  1  0
 11 51  1  0
 11 52  1  0
 11 53  1  0
 12 54  1  0
 12 55  1  0
 12 56  1  0
 13 14  1  0
 14 15  1  0
 14 16  1  0
 15 57  1  0
 15 58  1  0
 15 59  1  0
 16 60  1  0
 16 61  1  0
 16 62  1  0
 17 19  1  0
 17 18  1  0
 17 63  1  1
 19 18  1  1
 19 39  1  0
 19 20  1  0
 20 41  1  0
 20 21  1  0
 20 64  1  1
 21 22  1  0
 21 65  1  0
 21 66  1  0
 22 23  1  0
 22 24  1  0
 22 67  1  1
 23 68  1  0
 24 41  1  0
 24 25  1  1
 24 27  1  0
 25 26  1  0
 25 69  1  0
 25 70  1  0
 27 28  1  0
 28 29  1  0
 28 30  1  0
 28 31  1  0
 29 71  1  0
 29 72  1  0
 29 73  1  0
 30 74  1  0
 30 75  1  0
 30 76  1  0
 31 32  1  0
 31 41  1  0
 31 77  1  1
 32 33  1  0
 32 34  1  0
 32 78  1  6
 33 79  1  0
 34 35  1  0
 34 36  1  0
 34 80  1  6
 35 81  1  0
 36 37  1  0
 36 82  1  0
 36 83  1  0
 37 38  1  0
 37 39  1  0
 37 84  1  6
 38 85  1  0
 38 86  1  0
 38 87  1  0
 39 40  1  6
 40 88  1  0
 40 89  1  0
 40 90  1  0
 41 42  1  6
 42 91  1  0
 42 92  1  0
 42 93  1  0
M  END
>  <i_m_ct_stereo_status>  (117) 
1

>  <s_m_source_file>  (117) 
/var/tmp/pbs.5076255.sched01/tmp06yssb5m/4267g10r58.sdf

>  <i_m_source_file_index>  (117) 
11

>  <i_lp_mmshare_version>  (117) 
48012

>  <i_f3d_flags>  (117) 
0

>  <s_epik_input>  (117) 
W0NIM11DMShbQ0gzXSlPQyhbQ0gzXSkoW0NIM10pW0NAQEhdKFtDQEhdKE9bQ0gzXSlPW0NIMl0yKVtDQEhdKE8zKVtDQEBIXShPNClbQ0BAXTQoW0NAQF01KFtDQEBdMTIzKVtDSDNdKVtDQEhdNltDQEBdNyhbQ0gzXSlbQ0BAXShbQ0gyXUJyKShbQ0BASF0oW0NIMl02KVtPSF0pT0MoW0NIM10pKFtDSDNdKVtDQEBIXTdbQ0BASF0oW09IXSlbQ0BASF0oW09IXSlbQ0gyXVtDQEhdNVtDSDNd

>  <s_epik_cmdline>  (117) 
J2VwaWtfcHl0aG9uJywgJy1waHQnLCAnMi4wJywgJy1waCcsICc3LjAnLCAnLXRuJywgJzgnLCAnLW1hJywgJzIwMCcsICctaW1hZScsICc8aW5maWxlLm1hZT4nLCAnLW9tYWUnLCAnPG91dGZpbGUubWFlPic=

>  <r_lp_tautomer_probability>  (117) 
1

>  <r_epik_Ionization_Penalty>  (117) 
3.68665e-07

>  <r_epik_Ionization_Penalty_Charging>  (117) 
0

>  <r_epik_Ionization_Penalty_Neutral>  (117) 
3.68665e-07

>  <r_epik_State_Penalty>  (117) 
-0

>  <r_epik_Charging_Adjusted_Penalty>  (117) 
0

>  <i_epik_Tot_Q>  (117) 
0

>  <i_epik_Tot_abs_Q>  (117) 
0

>  <s_epik_Chemistry_Notes>  (117) 
This compound contains an acetal/aminal-like group ( X-CH(R)-Y where X, Y are N, S, or O) that may be acid/base labile, releasing an aldehyde.

>  <s_lp_Force_Field>  (117) 
OPLS3e

>  <r_lp_Energy>  (117) 
169.183

>  <b_lp_Chiralities_Consistent>  (117) 
1

>  <s_lp_Variant>  (117) 
36:0-1

>  <s_i_glide_gridfile>  (117) 
pfpi4k_grid

>  <i_i_glide_lignum>  (117) 
11

>  <i_i_glide_rotatable_bonds>  (117) 
5

>  <r_i_docking_score>  (117) 
-1.89251

>  <r_i_glide_ligand_efficiency>  (117) 
-0.0450597

>  <r_i_glide_ligand_efficiency_sa>  (117) 
-0.156629

>  <r_i_glide_ligand_efficiency_ln>  (117) 
-0.39946

>  <r_i_glide_gscore>  (117) 
-1.89251

>  <r_i_glide_lipo>  (117) 
-0.0961236

>  <r_i_glide_hbond>  (117) 
0

>  <r_i_glide_metal>  (117) 
-0

>  <r_i_glide_rewards>  (117) 
0

>  <r_i_glide_evdw>  (117) 
-22.2509

>  <r_i_glide_ecoul>  (117) 
-4.51384

>  <r_i_glide_erotb>  (117) 
0

>  <r_i_glide_esite>  (117) 
-0.00676169

>  <r_i_glide_emodel>  (117) 
-27.8062

>  <r_i_glide_energy>  (117) 
-26.7648

>  <r_i_glide_einternal>  (117) 
2.95234

>  <r_i_glide_intrahb_reward>  (117) 
-0

>  <i_i_glide_confnum>  (117) 
1

>  <i_i_glide_posenum>  (117) 
33

>  <r_i_glide_eff_state_penalty>  (117) 
0

>  <ligand_id>  (117) 
36

>  <original_smiles>  (117) 
COC1OCC23OC(C1C(C)(C)OC2(C)C)C1OC12C1CC(O)C4(CBr)OC(C)(C)C(C(O)C(O)CC(C)C23C)C14C

>  <smiles>  (117) 
[H]OC1([H])C([H])([H])C([H])(C([H])([H])[H])C2(C([H])([H])[H])C3(OC3([H])C3([H])OC24C([H])([H])OC([H])(OC([H])([H])[H])C3([H])C(C([H])([H])[H])(C([H])([H])[H])OC4(C([H])([H])[H])C([H])([H])[H])C2([H])C([H])([H])C([H])(O[H])C3(C([H])([H])Br)OC(C([H])([H])[H])(C([H])([H])[H])C([H])(C1([H])O[H])C23C([H])([H])[H]

$$$$
36:0:1
     RDKit          3D

 93 99  0  0  1  0  0  0  0  0999 V2000
    3.0406   -7.9471    8.4203 C   0  0  0  0  0  0  0  0  0  0  0  0
    2.1194   -7.5996    7.3974 O   0  0  0  0  0  0  0  0  0  0  0  0
    2.0791   -8.4983    6.3358 C   0  0  2  0  0  0  0  0  0  0  0  0
    3.2131   -8.5297    5.5453 O   0  0  0  0  0  0  0  0  0  0  0  0
    3.5604   -7.3467    4.8611 C   0  0  0  0  0  0  0  0  0  0  0  0
    2.6141   -6.7308    3.7324 C   0  0  2  0  0  0  0  0  0  0  0  0
    1.2008   -6.7025    3.8404 O   0  0  0  0  0  0  0  0  0  0  0  0
    0.6158   -6.7405    5.0667 C   0  0  1  0  0  0  0  0  0  0  0  0
    0.8426   -8.2418    5.4641 C   0  0  1  0  0  0  0  0  0  0  0  0
    0.8660   -9.2094    4.1791 C   0  0  0  0  0  0  0  0  0  0  0  0
    0.9699  -10.6892    4.6134 C   0  0  0  0  0  0  0  0  0  0  0  0
   -0.4619   -9.1128    3.3899 C   0  0  0  0  0  0  0  0  0  0  0  0
    2.0113   -9.0732    3.2607 O   0  0  0  0  0  0  0  0  0  0  0  0
    2.4830   -7.8489    2.6100 C   0  0  0  0  0  0  0  0  0  0  0  0
    1.5503   -7.6212    1.3882 C   0  0  0  0  0  0  0  0  0  0  0  0
    3.8387   -8.2593    1.9922 C   0  0  0  0  0  0  0  0  0  0  0  0
    1.0725   -5.4221    5.7253 C   0  0  1  0  0  0  0  0  0  0  0  0
    2.4069   -5.2463    6.1346 O   0  0  0  0  0  0  0  0  0  0  0  0
    2.0944   -4.5103    4.9594 C   0  0  2  0  0  0  0  0  0  0  0  0
    2.2854   -2.9908    5.3079 C   0  0  2  0  0  0  0  0  0  0  0  0
    2.1986   -2.6939    6.8190 C   0  0  0  0  0  0  0  0  0  0  0  0
    2.0975   -1.1798    6.9334 C   0  0  1  0  0  0  0  0  0  0  0  0
    3.4014   -0.6573    6.7659 O   0  0  0  0  0  0  0  0  0  0  0  0
    1.1280   -0.8028    5.8007 C   0  0  1  0  0  0  0  0  0  0  0  0
   -0.2922   -0.7279    6.4286 C   0  0  0  0  0  0  0  0  0  0  0  0
   -1.7386   -0.1393    5.1873 Br  0  0  0  0  0  0  0  0  0  0  0  0
    1.4150    0.5181    5.3493 O   0  0  0  0  0  0  0  0  0  0  0  0
    1.7733    0.5497    3.9778 C   0  0  0  0  0  0  0  0  0  0  0  0
    0.5227    1.0494    3.2166 C   0  0  0  0  0  0  0  0  0  0  0  0
    2.8924    1.6064    3.8526 C   0  0  0  0  0  0  0  0  0  0  0  0
    2.2660   -0.9091    3.7062 C   0  0  2  0  0  0  0  0  0  0  0  0
    2.4254   -1.3542    2.2320 C   0  0  1  0  0  0  0  0  0  0  0  0
    2.3093   -0.2458    1.3637 O   0  0  0  0  0  0  0  0  0  0  0  0
    3.7240   -2.1714    1.8242 C   0  0  1  0  0  0  0  0  0  0  0  0
    4.7154   -1.2356    1.4186 O   0  0  0  0  0  0  0  0  0  0  0  0
    4.4929   -3.0480    2.8815 C   0  0  0  0  0  0  0  0  0  0  0  0
    4.2164   -4.5618    3.2835 C   0  0  1  0  0  0  0  0  0  0  0  0
    5.2985   -4.8715    4.3489 C   0  0  0  0  0  0  0  0  0  0  0  0
    2.7562   -5.1115    3.6071 C   0  0  1  0  0  0  0  0  0  0  0  0
    1.9476   -4.7589    2.3436 C   0  0  0  0  0  0  0  0  0  0  0  0
    1.4305   -1.8402    4.6525 C   0  0  1  0  0  0  0  0  0  0  0  0
    0.0866   -2.3829    4.0836 C   0  0  0  0  0  0  0  0  0  0  0  0
    2.9909   -7.2029    9.2149 H   0  0  0  0  0  0  0  0  0  0  0  0
    4.0611   -7.9665    8.0382 H   0  0  0  0  0  0  0  0  0  0  0  0
    2.8118   -8.9178    8.8646 H   0  0  0  0  0  0  0  0  0  0  0  0
    2.0112   -9.4937    6.7766 H   0  0  0  0  0  0  0  0  0  0  0  0
    3.9318   -6.6841    5.6228 H   0  0  0  0  0  0  0  0  0  0  0  0
    4.4901   -7.6190    4.3857 H   0  0  0  0  0  0  0  0  0  0  0  0
   -0.4514   -6.6246    4.8682 H   0  0  0  0  0  0  0  0  0  0  0  0
   -0.0081   -8.5178    6.0884 H   0  0  0  0  0  0  0  0  0  0  0  0
    0.2290  -10.9448    5.3716 H   0  0  0  0  0  0  0  0  0  0  0  0
    1.9548  -10.9319    5.0126 H   0  0  0  0  0  0  0  0  0  0  0  0
    0.8105  -11.3557    3.7669 H   0  0  0  0  0  0  0  0  0  0  0  0
   -1.2940   -9.4424    4.0086 H   0  0  0  0  0  0  0  0  0  0  0  0
   -0.4408   -9.7503    2.5057 H   0  0  0  0  0  0  0  0  0  0  0  0
   -0.7104   -8.1061    3.0651 H   0  0  0  0  0  0  0  0  0  0  0  0
    2.0144   -7.0024    0.6242 H   0  0  0  0  0  0  0  0  0  0  0  0
    0.5769   -7.1908    1.6110 H   0  0  0  0  0  0  0  0  0  0  0  0
    1.3715   -8.5887    0.9229 H   0  0  0  0  0  0  0  0  0  0  0  0
    4.4047   -7.3947    1.6455 H   0  0  0  0  0  0  0  0  0  0  0  0
    3.6929   -8.9162    1.1330 H   0  0  0  0  0  0  0  0  0  0  0  0
    4.4619   -8.8339    2.6773 H   0  0  0  0  0  0  0  0  0  0  0  0
    0.3390   -4.9672    6.3765 H   0  0  0  0  0  0  0  0  0  0  0  0
    3.3232   -2.8024    5.1411 H   0  0  0  0  0  0  0  0  0  0  0  0
    1.3106   -3.1368    7.2617 H   0  0  0  0  0  0  0  0  0  0  0  0
    3.0536   -3.0788    7.3700 H   0  0  0  0  0  0  0  0  0  0  0  0
    1.7240   -0.8598    7.9071 H   0  0  0  0  0  0  0  0  0  0  0  0
    3.9069   -0.9034    7.5234 H   0  0  0  0  0  0  0  0  0  0  0  0
   -0.5961   -1.6859    6.8320 H   0  0  0  0  0  0  0  0  0  0  0  0
   -0.2495   -0.0077    7.2481 H   0  0  0  0  0  0  0  0  0  0  0  0
    0.7984    1.5706    2.3006 H   0  0  0  0  0  0  0  0  0  0  0  0
   -0.0358    1.7686    3.8162 H   0  0  0  0  0  0  0  0  0  0  0  0
   -0.1604    0.2501    2.9547 H   0  0  0  0  0  0  0  0  0  0  0  0
    3.2352    1.7056    2.8221 H   0  0  0  0  0  0  0  0  0  0  0  0
    3.7592    1.3647    4.4698 H   0  0  0  0  0  0  0  0  0  0  0  0
    2.5343    2.5897    4.1612 H   0  0  0  0  0  0  0  0  0  0  0  0
    3.2766   -0.8811    4.1059 H   0  0  0  0  0  0  0  0  0  0  0  0
    1.5078   -1.8475    1.9277 H   0  0  0  0  0  0  0  0  0  0  0  0
    1.8197   -0.5188    0.6065 H   0  0  0  0  0  0  0  0  0  0  0  0
    3.5279   -2.7646    0.9321 H   0  0  0  0  0  0  0  0  0  0  0  0
    4.8414   -0.6211    2.1236 H   0  0  0  0  0  0  0  0  0  0  0  0
    5.4843   -3.1496    2.4298 H   0  0  0  0  0  0  0  0  0  0  0  0
    4.7398   -2.4367    3.7459 H   0  0  0  0  0  0  0  0  0  0  0  0
    4.5208   -5.1200    2.3978 H   0  0  0  0  0  0  0  0  0  0  0  0
    4.9460   -4.6695    5.3583 H   0  0  0  0  0  0  0  0  0  0  0  0
    6.1929   -4.2686    4.2090 H   0  0  0  0  0  0  0  0  0  0  0  0
    5.6615   -5.8904    4.2821 H   0  0  0  0  0  0  0  0  0  0  0  0
    1.8960   -3.7244    2.2057 H   0  0  0  0  0  0  0  0  0  0  0  0
    0.9104   -5.0704    2.3451 H   0  0  0  0  0  0  0  0  0  0  0  0
    2.4400   -5.1314    1.4519 H   0  0  0  0  0  0  0  0  0  0  0  0
   -0.5715   -1.5914    3.7522 H   0  0  0  0  0  0  0  0  0  0  0  0
   -0.4377   -2.9558    4.8512 H   0  0  0  0  0  0  0  0  0  0  0  0
    0.2035   -3.1222    3.2967 H   0  0  0  0  0  0  0  0  0  0  0  0
  1  2  1  0
  1 43  1  0
  1 44  1  0
  1 45  1  0
  2  3  1  0
  3  9  1  0
  3  4  1  0
  3 46  1  1
  4  5  1  0
  6  5  1  1
  5 47  1  0
  5 48  1  0
  6 14  1  0
  6 39  1  0
  6  7  1  0
  7  8  1  0
  8  9  1  0
  8 17  1  0
  8 49  1  6
  9 10  1  0
  9 50  1  1
 10 11  1  0
 10 12  1  0
 10 13  1  0
 11 51  1  0
 11 52  1  0
 11 53  1  0
 12 54  1  0
 12 55  1  0
 12 56  1  0
 13 14  1  0
 14 15  1  0
 14 16  1  0
 15 57  1  0
 15 58  1  0
 15 59  1  0
 16 60  1  0
 16 61  1  0
 16 62  1  0
 17 19  1  0
 17 18  1  0
 17 63  1  1
 19 18  1  1
 19 39  1  0
 19 20  1  0
 20 41  1  0
 20 21  1  0
 20 64  1  6
 21 22  1  0
 21 65  1  0
 21 66  1  0
 22 23  1  0
 22 24  1  0
 22 67  1  1
 23 68  1  0
 24 41  1  0
 24 25  1  1
 24 27  1  0
 25 26  1  0
 25 69  1  0
 25 70  1  0
 27 28  1  0
 28 29  1  0
 28 30  1  0
 28 31  1  0
 29 71  1  0
 29 72  1  0
 29 73  1  0
 30 74  1  0
 30 75  1  0
 30 76  1  0
 31 32  1  0
 31 41  1  0
 31 77  1  1
 32 33  1  0
 32 34  1  0
 32 78  1  6
 33 79  1  0
 34 35  1  0
 34 36  1  0
 34 80  1  6
 35 81  1  0
 36 37  1  0
 36 82  1  0
 36 83  1  0
 37 38  1  0
 37 39  1  0
 37 84  1  6
 38 85  1  0
 38 86  1  0
 38 87  1  0
 39 40  1  6
 40 88  1  0
 40 89  1  0
 40 90  1  0
 41 42  1  6
 42 91  1  0
 42 92  1  0
 42 93  1  0
M  END
>  <i_m_ct_stereo_status>  (118) 
1

>  <s_m_source_file>  (118) 
/var/tmp/pbs.5076255.sched01/tmp06yssb5m/4267g10r58.sdf

>  <i_m_source_file_index>  (118) 
11

>  <i_lp_mmshare_version>  (118) 
48012

>  <i_f3d_flags>  (118) 
0

>  <s_epik_input>  (118) 
W0NIM11DMShbQ0gzXSlPQyhbQ0gzXSkoW0NIM10pW0NAQEhdKFtDQEhdKE9bQ0gzXSlPW0NIMl0yKVtDQEhdKE8zKVtDQEBIXShPNClbQ0BAXTQoW0NAQF01KFtDQEBdMTIzKVtDSDNdKVtDQEhdNltDQEBdNyhbQ0gzXSlbQ0BAXShbQ0gyXUJyKShbQ0BASF0oW0NIMl02KVtPSF0pT0MoW0NIM10pKFtDSDNdKVtDQEBIXTdbQ0BASF0oW09IXSlbQ0BASF0oW09IXSlbQ0gyXVtDQEhdNVtDSDNd

>  <s_epik_cmdline>  (118) 
J2VwaWtfcHl0aG9uJywgJy1waHQnLCAnMi4wJywgJy1waCcsICc3LjAnLCAnLXRuJywgJzgnLCAnLW1hJywgJzIwMCcsICctaW1hZScsICc8aW5maWxlLm1hZT4nLCAnLW9tYWUnLCAnPG91dGZpbGUubWFlPic=

>  <r_lp_tautomer_probability>  (118) 
1

>  <r_epik_Ionization_Penalty>  (118) 
3.68665e-07

>  <r_epik_Ionization_Penalty_Charging>  (118) 
0

>  <r_epik_Ionization_Penalty_Neutral>  (118) 
3.68665e-07

>  <r_epik_State_Penalty>  (118) 
-0

>  <r_epik_Charging_Adjusted_Penalty>  (118) 
0

>  <i_epik_Tot_Q>  (118) 
0

>  <i_epik_Tot_abs_Q>  (118) 
0

>  <s_epik_Chemistry_Notes>  (118) 
This compound contains an acetal/aminal-like group ( X-CH(R)-Y where X, Y are N, S, or O) that may be acid/base labile, releasing an aldehyde.

>  <s_lp_Force_Field>  (118) 
OPLS3e

>  <r_lp_Energy>  (118) 
169.183

>  <b_lp_Chiralities_Consistent>  (118) 
1

>  <s_lp_Variant>  (118) 
36:0-1

>  <s_i_glide_gridfile>  (118) 
pfpi4k_grid

>  <i_i_glide_lignum>  (118) 
11

>  <i_i_glide_rotatable_bonds>  (118) 
5

>  <r_i_docking_score>  (118) 
-1.83498

>  <r_i_glide_ligand_efficiency>  (118) 
-0.04369

>  <r_i_glide_ligand_efficiency_sa>  (118) 
-0.151868

>  <r_i_glide_ligand_efficiency_ln>  (118) 
-0.387317

>  <r_i_glide_gscore>  (118) 
-1.83498

>  <r_i_glide_lipo>  (118) 
-0.081796

>  <r_i_glide_hbond>  (118) 
0

>  <r_i_glide_metal>  (118) 
-0

>  <r_i_glide_rewards>  (118) 
0

>  <r_i_glide_evdw>  (118) 
-25.1489

>  <r_i_glide_ecoul>  (118) 
-3.17013

>  <r_i_glide_erotb>  (118) 
0

>  <r_i_glide_esite>  (118) 
-0.0202205

>  <r_i_glide_emodel>  (118) 
-27.2904

>  <r_i_glide_energy>  (118) 
-28.319

>  <r_i_glide_einternal>  (118) 
5.56721

>  <r_i_glide_intrahb_reward>  (118) 
-0

>  <i_i_glide_confnum>  (118) 
1

>  <i_i_glide_posenum>  (118) 
30

>  <r_i_glide_eff_state_penalty>  (118) 
0

>  <ligand_id>  (118) 
36

>  <original_smiles>  (118) 
COC1OCC23OC(C1C(C)(C)OC2(C)C)C1OC12C1CC(O)C4(CBr)OC(C)(C)C(C(O)C(O)CC(C)C23C)C14C

>  <smiles>  (118) 
[H]OC1([H])C([H])([H])C([H])(C([H])([H])[H])C2(C([H])([H])[H])C3(OC3([H])C3([H])OC24C([H])([H])OC([H])(OC([H])([H])[H])C3([H])C(C([H])([H])[H])(C([H])([H])[H])OC4(C([H])([H])[H])C([H])([H])[H])C2([H])C([H])([H])C([H])(O[H])C3(C([H])([H])Br)OC(C([H])([H])[H])(C([H])([H])[H])C([H])(C1([H])O[H])C23C([H])([H])[H]

$$$$
36:0:2
     RDKit          3D

 93 99  0  0  1  0  0  0  0  0999 V2000
    2.2064   -8.6806    7.7303 C   0  0  0  0  0  0  0  0  0  0  0  0
    1.4504   -7.9577    6.7712 O   0  0  0  0  0  0  0  0  0  0  0  0
    1.4194   -8.5428    5.5097 C   0  0  2  0  0  0  0  0  0  0  0  0
    2.6182   -8.5219    4.8207 O   0  0  0  0  0  0  0  0  0  0  0  0
    3.1650   -7.2602    4.4991 C   0  0  0  0  0  0  0  0  0  0  0  0
    2.4107   -6.2574    3.5068 C   0  0  2  0  0  0  0  0  0  0  0  0
    1.0055   -6.0682    3.5314 O   0  0  0  0  0  0  0  0  0  0  0  0
    0.3002   -6.3389    4.6565 C   0  0  1  0  0  0  0  0  0  0  0  0
    0.3137   -7.9082    4.6535 C   0  0  1  0  0  0  0  0  0  0  0  0
    0.3571   -8.5062    3.1590 C   0  0  0  0  0  0  0  0  0  0  0  0
    0.2575  -10.0477    3.1793 C   0  0  0  0  0  0  0  0  0  0  0  0
   -0.8754   -8.0387    2.3449 C   0  0  0  0  0  0  0  0  0  0  0  0
    1.5938   -8.2972    2.3828 O   0  0  0  0  0  0  0  0  0  0  0  0
    2.2660   -7.0243    2.1162 C   0  0  0  0  0  0  0  0  0  0  0  0
    1.4819   -6.3658    0.9394 C   0  0  0  0  0  0  0  0  0  0  0  0
    3.6322   -7.4394    1.5187 C   0  0  0  0  0  0  0  0  0  0  0  0
    0.8180   -5.2985    5.6690 C   0  0  1  0  0  0  0  0  0  0  0  0
    2.1211   -5.4239    6.2095 O   0  0  0  0  0  0  0  0  0  0  0  0
    2.0192   -4.3693    5.2437 C   0  0  2  0  0  0  0  0  0  0  0  0
    2.3400   -3.0308    5.9970 C   0  0  2  0  0  0  0  0  0  0  0  0
    2.1370   -3.1154    7.5234 C   0  0  0  0  0  0  0  0  0  0  0  0
    2.1902   -1.6908    8.0393 C   0  0  1  0  0  0  0  0  0  0  0  0
    3.5467   -1.2978    8.1602 O   0  0  0  0  0  0  0  0  0  0  0  0
    1.4080   -0.9053    6.9708 C   0  0  1  0  0  0  0  0  0  0  0  0
   -0.0583   -0.7779    7.4701 C   0  0  0  0  0  0  0  0  0  0  0  0
   -1.2200    0.3563    6.3025 Br  0  0  0  0  0  0  0  0  0  0  0  0
    1.8933    0.4319    6.9030 O   0  0  0  0  0  0  0  0  0  0  0  0
    2.3739    0.7682    5.6127 C   0  0  0  0  0  0  0  0  0  0  0  0
    1.2640    1.6017    4.9387 C   0  0  0  0  0  0  0  0  0  0  0  0
    3.6095    1.6600    5.8581 C   0  0  0  0  0  0  0  0  0  0  0  0
    2.7240   -0.6179    4.9921 C   0  0  2  0  0  0  0  0  0  0  0  0
    2.9935   -0.6794    3.4571 C   0  0  1  0  0  0  0  0  0  0  0  0
    3.1037    0.6013    2.8668 O   0  0  0  0  0  0  0  0  0  0  0  0
    4.2249   -1.5522    2.9598 C   0  0  1  0  0  0  0  0  0  0  0  0
    5.3564   -0.6903    2.8858 O   0  0  0  0  0  0  0  0  0  0  0  0
    4.7678   -2.7657    3.8033 C   0  0  0  0  0  0  0  0  0  0  0  0
    4.2876   -4.2800    3.7644 C   0  0  1  0  0  0  0  0  0  0  0  0
    5.2127   -4.9931    4.7832 C   0  0  0  0  0  0  0  0  0  0  0  0
    2.7427   -4.6959    3.8304 C   0  0  1  0  0  0  0  0  0  0  0  0
    2.1101   -3.9213    2.6526 C   0  0  0  0  0  0  0  0  0  0  0  0
    1.7002   -1.6404    5.6069 C   0  0  1  0  0  0  0  0  0  0  0  0
    0.3742   -1.8431    4.8236 C   0  0  0  0  0  0  0  0  0  0  0  0
    2.1606   -8.1641    8.6889 H   0  0  0  0  0  0  0  0  0  0  0  0
    3.2538   -8.7488    7.4345 H   0  0  0  0  0  0  0  0  0  0  0  0
    1.8187   -9.6902    7.8817 H   0  0  0  0  0  0  0  0  0  0  0  0
    1.1876   -9.5987    5.6626 H   0  0  0  0  0  0  0  0  0  0  0  0
    3.5260   -6.8653    5.4337 H   0  0  0  0  0  0  0  0  0  0  0  0
    4.1045   -7.5278    4.0369 H   0  0  0  0  0  0  0  0  0  0  0  0
   -0.7233   -6.0356    4.4256 H   0  0  0  0  0  0  0  0  0  0  0  0
   -0.6206   -8.2189    5.1244 H   0  0  0  0  0  0  0  0  0  0  0  0
   -0.5881  -10.3765    3.7805 H   0  0  0  0  0  0  0  0  0  0  0  0
    1.1610  -10.5128    3.5745 H   0  0  0  0  0  0  0  0  0  0  0  0
    0.1179  -10.4484    2.1752 H   0  0  0  0  0  0  0  0  0  0  0  0
   -1.7969   -8.4093    2.7961 H   0  0  0  0  0  0  0  0  0  0  0  0
   -0.8401   -8.4127    1.3224 H   0  0  0  0  0  0  0  0  0  0  0  0
   -0.9713   -6.9588    2.2864 H   0  0  0  0  0  0  0  0  0  0  0  0
    2.1017   -5.6750    0.3678 H   0  0  0  0  0  0  0  0  0  0  0  0
    0.5791   -5.8533    1.2387 H   0  0  0  0  0  0  0  0  0  0  0  0
    1.1434   -7.1252    0.2382 H   0  0  0  0  0  0  0  0  0  0  0  0
    4.3241   -6.5982    1.4673 H   0  0  0  0  0  0  0  0  0  0  0  0
    3.5216   -7.8246    0.5066 H   0  0  0  0  0  0  0  0  0  0  0  0
    4.1101   -8.2478    2.0723 H   0  0  0  0  0  0  0  0  0  0  0  0
    0.0829   -4.9306    6.3704 H   0  0  0  0  0  0  0  0  0  0  0  0
    3.4085   -2.9457    5.9587 H   0  0  0  0  0  0  0  0  0  0  0  0
    1.1647   -3.5404    7.7723 H   0  0  0  0  0  0  0  0  0  0  0  0
    2.8834   -3.7394    8.0139 H   0  0  0  0  0  0  0  0  0  0  0  0
    1.7423   -1.5950    9.0271 H   0  0  0  0  0  0  0  0  0  0  0  0
    3.9343   -1.2977    7.2996 H   0  0  0  0  0  0  0  0  0  0  0  0
   -0.5273   -1.7532    7.5646 H   0  0  0  0  0  0  0  0  0  0  0  0
   -0.0500   -0.3188    8.4619 H   0  0  0  0  0  0  0  0  0  0  0  0
    1.6855    2.2948    4.2110 H   0  0  0  0  0  0  0  0  0  0  0  0
    0.7299    2.2075    5.6716 H   0  0  0  0  0  0  0  0  0  0  0  0
    0.5238    0.9966    4.4293 H   0  0  0  0  0  0  0  0  0  0  0  0
    4.0669    1.9709    4.9188 H   0  0  0  0  0  0  0  0  0  0  0  0
    4.3718    1.1546    6.4515 H   0  0  0  0  0  0  0  0  0  0  0  0
    3.3310    2.5682    6.3963 H   0  0  0  0  0  0  0  0  0  0  0  0
    3.6815   -0.8342    5.4538 H   0  0  0  0  0  0  0  0  0  0  0  0
    2.0590   -0.9590    2.9832 H   0  0  0  0  0  0  0  0  0  0  0  0
    2.9588    0.5113    1.9344 H   0  0  0  0  0  0  0  0  0  0  0  0
    4.0489   -1.8736    1.9327 H   0  0  0  0  0  0  0  0  0  0  0  0
    5.5000   -0.3200    3.7448 H   0  0  0  0  0  0  0  0  0  0  0  0
    5.7816   -2.8835    3.4097 H   0  0  0  0  0  0  0  0  0  0  0  0
    4.9930   -2.4330    4.8138 H   0  0  0  0  0  0  0  0  0  0  0  0
    4.6168   -4.6328    2.7881 H   0  0  0  0  0  0  0  0  0  0  0  0
    4.7864   -5.0101    5.7863 H   0  0  0  0  0  0  0  0  0  0  0  0
    6.1843   -4.5011    4.8724 H   0  0  0  0  0  0  0  0  0  0  0  0
    5.4656   -6.0036    4.4780 H   0  0  0  0  0  0  0  0  0  0  0  0
    2.2033   -2.8862    2.7901 H   0  0  0  0  0  0  0  0  0  0  0  0
    1.0431   -4.0657    2.4991 H   0  0  0  0  0  0  0  0  0  0  0  0
    2.6313   -4.1249    1.7241 H   0  0  0  0  0  0  0  0  0  0  0  0
   -0.1622   -0.9297    4.6574 H   0  0  0  0  0  0  0  0  0  0  0  0
   -0.2945   -2.5176    5.3600 H   0  0  0  0  0  0  0  0  0  0  0  0
    0.4992   -2.3416    3.8699 H   0  0  0  0  0  0  0  0  0  0  0  0
  1  2  1  0
  1 43  1  0
  1 44  1  0
  1 45  1  0
  2  3  1  0
  3  9  1  0
  3  4  1  0
  3 46  1  1
  4  5  1  0
  6  5  1  1
  5 47  1  0
  5 48  1  0
  6 14  1  0
  6 39  1  0
  6  7  1  0
  7  8  1  0
  8  9  1  0
  8 17  1  0
  8 49  1  6
  9 10  1  0
  9 50  1  1
 10 11  1  0
 10 12  1  0
 10 13  1  0
 11 51  1  0
 11 52  1  0
 11 53  1  0
 12 54  1  0
 12 55  1  0
 12 56  1  0
 13 14  1  0
 14 15  1  0
 14 16  1  0
 15 57  1  0
 15 58  1  0
 15 59  1  0
 16 60  1  0
 16 61  1  0
 16 62  1  0
 17 19  1  0
 17 18  1  0
 17 63  1  1
 19 18  1  1
 19 39  1  0
 19 20  1  0
 20 41  1  0
 20 21  1  0
 20 64  1  1
 21 22  1  0
 21 65  1  0
 21 66  1  0
 22 23  1  0
 22 24  1  0
 22 67  1  1
 23 68  1  0
 24 41  1  0
 24 25  1  1
 24 27  1  0
 25 26  1  0
 25 69  1  0
 25 70  1  0
 27 28  1  0
 28 29  1  0
 28 30  1  0
 28 31  1  0
 29 71  1  0
 29 72  1  0
 29 73  1  0
 30 74  1  0
 30 75  1  0
 30 76  1  0
 31 32  1  0
 31 41  1  0
 31 77  1  1
 32 33  1  0
 32 34  1  0
 32 78  1  6
 33 79  1  0
 34 35  1  0
 34 36  1  0
 34 80  1  6
 35 81  1  0
 36 37  1  0
 36 82  1  0
 36 83  1  0
 37 38  1  0
 37 39  1  0
 37 84  1  6
 38 85  1  0
 38 86  1  0
 38 87  1  0
 39 40  1  6
 40 88  1  0
 40 89  1  0
 40 90  1  0
 41 42  1  6
 42 91  1  0
 42 92  1  0
 42 93  1  0
M  END
>  <i_m_ct_stereo_status>  (119) 
1

>  <s_m_source_file>  (119) 
/var/tmp/pbs.5076255.sched01/tmp06yssb5m/4267g10r58.sdf

>  <i_m_source_file_index>  (119) 
11

>  <i_lp_mmshare_version>  (119) 
48012

>  <i_f3d_flags>  (119) 
0

>  <s_epik_input>  (119) 
W0NIM11DMShbQ0gzXSlPQyhbQ0gzXSkoW0NIM10pW0NAQEhdKFtDQEhdKE9bQ0gzXSlPW0NIMl0yKVtDQEhdKE8zKVtDQEBIXShPNClbQ0BAXTQoW0NAQF01KFtDQEBdMTIzKVtDSDNdKVtDQEhdNltDQEBdNyhbQ0gzXSlbQ0BAXShbQ0gyXUJyKShbQ0BASF0oW0NIMl02KVtPSF0pT0MoW0NIM10pKFtDSDNdKVtDQEBIXTdbQ0BASF0oW09IXSlbQ0BASF0oW09IXSlbQ0gyXVtDQEhdNVtDSDNd

>  <s_epik_cmdline>  (119) 
J2VwaWtfcHl0aG9uJywgJy1waHQnLCAnMi4wJywgJy1waCcsICc3LjAnLCAnLXRuJywgJzgnLCAnLW1hJywgJzIwMCcsICctaW1hZScsICc8aW5maWxlLm1hZT4nLCAnLW9tYWUnLCAnPG91dGZpbGUubWFlPic=

>  <r_lp_tautomer_probability>  (119) 
1

>  <r_epik_Ionization_Penalty>  (119) 
3.68665e-07

>  <r_epik_Ionization_Penalty_Charging>  (119) 
0

>  <r_epik_Ionization_Penalty_Neutral>  (119) 
3.68665e-07

>  <r_epik_State_Penalty>  (119) 
-0

>  <r_epik_Charging_Adjusted_Penalty>  (119) 
0

>  <i_epik_Tot_Q>  (119) 
0

>  <i_epik_Tot_abs_Q>  (119) 
0

>  <s_epik_Chemistry_Notes>  (119) 
This compound contains an acetal/aminal-like group ( X-CH(R)-Y where X, Y are N, S, or O) that may be acid/base labile, releasing an aldehyde.

>  <s_lp_Force_Field>  (119) 
OPLS3e

>  <r_lp_Energy>  (119) 
169.183

>  <b_lp_Chiralities_Consistent>  (119) 
1

>  <s_lp_Variant>  (119) 
36:0-1

>  <s_i_glide_gridfile>  (119) 
pfpi4k_grid

>  <i_i_glide_lignum>  (119) 
11

>  <i_i_glide_rotatable_bonds>  (119) 
5

>  <r_i_docking_score>  (119) 
-1.25679

>  <r_i_glide_ligand_efficiency>  (119) 
-0.0299237

>  <r_i_glide_ligand_efficiency_sa>  (119) 
-0.104015

>  <r_i_glide_ligand_efficiency_ln>  (119) 
-0.265277

>  <r_i_glide_gscore>  (119) 
-1.25679

>  <r_i_glide_lipo>  (119) 
-0.105549

>  <r_i_glide_hbond>  (119) 
0

>  <r_i_glide_metal>  (119) 
-0

>  <r_i_glide_rewards>  (119) 
0

>  <r_i_glide_evdw>  (119) 
-23.2996

>  <r_i_glide_ecoul>  (119) 
0.225584

>  <r_i_glide_erotb>  (119) 
0

>  <r_i_glide_esite>  (119) 
-0.0201022

>  <r_i_glide_emodel>  (119) 
-21.4309

>  <r_i_glide_energy>  (119) 
-23.074

>  <r_i_glide_einternal>  (119) 
4.64799

>  <r_i_glide_intrahb_reward>  (119) 
-0

>  <i_i_glide_confnum>  (119) 
1

>  <i_i_glide_posenum>  (119) 
3

>  <r_i_glide_eff_state_penalty>  (119) 
0

>  <ligand_id>  (119) 
36

>  <original_smiles>  (119) 
COC1OCC23OC(C1C(C)(C)OC2(C)C)C1OC12C1CC(O)C4(CBr)OC(C)(C)C(C(O)C(O)CC(C)C23C)C14C

>  <smiles>  (119) 
[H]OC1([H])C([H])([H])C([H])(C([H])([H])[H])C2(C([H])([H])[H])C3(OC3([H])C3([H])OC24C([H])([H])OC([H])(OC([H])([H])[H])C3([H])C(C([H])([H])[H])(C([H])([H])[H])OC4(C([H])([H])[H])C([H])([H])[H])C2([H])C([H])([H])C([H])(O[H])C3(C([H])([H])Br)OC(C([H])([H])[H])(C([H])([H])[H])C([H])(C1([H])O[H])C23C([H])([H])[H]

$$$$
39:0:0
     RDKit          3D

 29 34  0  0  1  0  0  0  0  0999 V2000
    4.9349   -2.5999   -2.7397 C   0  0  0  0  0  0  0  0  0  0  0  0
    4.7232   -3.7016   -1.7494 C   0  0  0  0  0  0  0  0  0  0  0  0
    4.7993   -3.1129    0.1058 C   0  0  1  0  0  0  0  0  0  0  0  0
    4.3696   -1.6709    0.5849 C   0  0  1  0  0  0  0  0  0  0  0  0
    5.6182   -0.7431    0.8139 C   0  0  0  0  0  0  0  0  0  0  0  0
    6.7460   -1.6903    0.4830 C   0  0  2  0  0  0  0  0  0  0  0  0
    6.6562   -2.3194   -0.9158 C   0  0  2  0  0  0  0  0  0  0  0  0
    5.2420   -1.6617   -1.6613 C   0  0  2  0  0  0  0  0  0  0  0  0
    3.7827   -1.7977   -0.6564 C   0  0  1  0  0  0  0  0  0  0  0  0
    3.2348   -3.3180    0.0738 C   0  0  0  0  0  0  0  0  0  0  0  0
    4.5846   -4.2322    0.4871 C   0  0  1  0  0  0  0  0  0  0  0  0
    6.2904   -3.8251   -0.0288 C   0  0  1  0  0  0  0  0  0  0  0  0
    6.1022   -2.9532    0.9725 C   0  0  2  0  0  0  0  0  0  0  0  0
    4.0309   -2.3399   -3.2934 H   0  0  0  0  0  0  0  0  0  0  0  0
    5.7729   -2.7970   -3.4081 H   0  0  0  0  0  0  0  0  0  0  0  0
    3.8089   -4.1922   -2.0495 H   0  0  0  0  0  0  0  0  0  0  0  0
    5.3857   -4.5224   -2.0206 H   0  0  0  0  0  0  0  0  0  0  0  0
    3.6974   -1.5899    1.4381 H   0  0  0  0  0  0  0  0  0  0  0  0
    5.6089    0.1563    0.2071 H   0  0  0  0  0  0  0  0  0  0  0  0
    5.6761   -0.4357    1.8575 H   0  0  0  0  0  0  0  0  0  0  0  0
    7.7526   -1.5080    0.8664 H   0  0  0  0  0  0  0  0  0  0  0  0
    7.5815   -2.3400   -1.4717 H   0  0  0  0  0  0  0  0  0  0  0  0
    5.4093   -0.6533   -2.0242 H   0  0  0  0  0  0  0  0  0  0  0  0
    3.0113   -1.0556   -0.8488 H   0  0  0  0  0  0  0  0  0  0  0  0
    2.5855   -3.1871    0.9430 H   0  0  0  0  0  0  0  0  0  0  0  0
    2.5232   -3.8508   -0.5606 H   0  0  0  0  0  0  0  0  0  0  0  0
    4.5464   -4.4750    1.5525 H   0  0  0  0  0  0  0  0  0  0  0  0
    7.1096   -4.4933    0.2245 H   0  0  0  0  0  0  0  0  0  0  0  0
    6.1136   -3.2444    2.0206 H   0  0  0  0  0  0  0  0  0  0  0  0
  1  8  1  0
  1  2  1  0
  1 14  1  0
  1 15  1  0
  3  2  1  6
  2 16  1  0
  2 17  1  0
  3 11  1  0
  3 13  1  0
  3  4  1  0
  4  9  1  0
  4  5  1  0
  4 18  1  1
  5  6  1  0
  5 19  1  0
  5 20  1  0
  6 13  1  0
  6  7  1  0
  6 21  1  1
  7 12  1  0
  7  8  1  0
  7 22  1  6
  8  9  1  0
  8 23  1  6
  9 10  1  0
  9 24  1  6
 10 11  1  0
 10 25  1  0
 10 26  1  0
 11 12  1  0
 11 27  1  1
 12 13  1  0
 12 28  1  1
 13 29  1  1
M  END
>  <i_m_ct_stereo_status>  (120) 
1

>  <s_m_source_file>  (120) 
/var/tmp/pbs.5076255.sched01/tmp06yssb5m/4267g10r58.sdf

>  <i_m_source_file_index>  (120) 
15

>  <i_lp_mmshare_version>  (120) 
48012

>  <i_f3d_flags>  (120) 
0

>  <s_epik_input>  (120) 
W0NAQF0xMjNbQ0BASF00W0NASF01W0NASF0oW0NIMl1bQ0gyXTEpW0NASF02W0NAQEhdKFtDSDJdNClbQ0BASF0zW0NASF02W0NASF0yW0NIMl01

>  <s_epik_cmdline>  (120) 
J2VwaWtfcHl0aG9uJywgJy1waHQnLCAnMi4wJywgJy1waCcsICc3LjAnLCAnLXRuJywgJzgnLCAnLW1hJywgJzIwMCcsICctaW1hZScsICc8aW5maWxlLm1hZT4nLCAnLW9tYWUnLCAnPG91dGZpbGUubWFlPic=

>  <r_lp_tautomer_probability>  (120) 
1

>  <r_epik_Ionization_Penalty>  (120) 
0

>  <r_epik_Ionization_Penalty_Charging>  (120) 
0

>  <r_epik_Ionization_Penalty_Neutral>  (120) 
0

>  <r_epik_State_Penalty>  (120) 
-0

>  <r_epik_Charging_Adjusted_Penalty>  (120) 
0

>  <i_epik_Tot_Q>  (120) 
0

>  <i_epik_Tot_abs_Q>  (120) 
0

>  <s_lp_Force_Field>  (120) 
OPLS3e

>  <r_lp_Energy>  (120) 
569.688

>  <b_lp_Chiralities_Consistent>  (120) 
1

>  <s_lp_Variant>  (120) 
39:0-1

>  <s_i_glide_gridfile>  (120) 
pfpi4k_grid

>  <i_i_glide_lignum>  (120) 
15

>  <i_i_glide_rotatable_bonds>  (120) 
0

>  <r_i_docking_score>  (120) 
-3.77945

>  <r_i_glide_ligand_efficiency>  (120) 
-0.290727

>  <r_i_glide_ligand_efficiency_sa>  (120) 
-0.683597

>  <r_i_glide_ligand_efficiency_ln>  (120) 
-1.06017

>  <r_i_glide_gscore>  (120) 
-3.77945

>  <r_i_glide_lipo>  (120) 
-0.501658

>  <r_i_glide_hbond>  (120) 
0

>  <r_i_glide_metal>  (120) 
-0

>  <r_i_glide_rewards>  (120) 
-2.23455

>  <r_i_glide_evdw>  (120) 
-17.8288

>  <r_i_glide_ecoul>  (120) 
-1.01205

>  <r_i_glide_erotb>  (120) 
0

>  <r_i_glide_esite>  (120) 
0

>  <r_i_glide_emodel>  (120) 
-23.149

>  <r_i_glide_energy>  (120) 
-18.8408

>  <r_i_glide_einternal>  (120) 
0

>  <r_i_glide_intrahb_reward>  (120) 
-0

>  <i_i_glide_confnum>  (120) 
1

>  <i_i_glide_posenum>  (120) 
1

>  <r_i_glide_eff_state_penalty>  (120) 
0

>  <ligand_id>  (120) 
39

>  <original_smiles>  (120) 
C1CC23C4CC5C6C1C4CC2C6C53

>  <smiles>  (120) 
[H]C1([H])C([H])([H])C23C4([H])C([H])([H])C5([H])C6([H])C1([H])C4([H])C([H])([H])C2([H])C6([H])C53[H]

$$$$
39:0:1
     RDKit          3D

 29 34  0  0  1  0  0  0  0  0999 V2000
    7.2657   -3.8074    0.1596 C   0  0  0  0  0  0  0  0  0  0  0  0
    6.9961   -2.3353    0.1853 C   0  0  0  0  0  0  0  0  0  0  0  0
    5.1033   -1.8904    0.2280 C   0  0  1  0  0  0  0  0  0  0  0  0
    4.0010   -2.8060    0.9013 C   0  0  1  0  0  0  0  0  0  0  0  0
    3.2150   -3.6544   -0.1676 C   0  0  0  0  0  0  0  0  0  0  0  0
    3.8655   -3.1751   -1.4419 C   0  0  2  0  0  0  0  0  0  0  0  0
    5.3912   -3.3514   -1.4756 C   0  0  2  0  0  0  0  0  0  0  0  0
    5.8354   -4.0928    0.0230 C   0  0  2  0  0  0  0  0  0  0  0  0
    5.1848   -3.2508    1.4485 C   0  0  1  0  0  0  0  0  0  0  0  0
    5.3798   -1.5092    1.7320 C   0  0  0  0  0  0  0  0  0  0  0  0
    5.3585   -0.7174    0.2494 C   0  0  1  0  0  0  0  0  0  0  0  0
    5.4268   -1.5690   -1.3670 C   0  0  1  0  0  0  0  0  0  0  0  0
    4.1491   -1.7678   -1.0160 C   0  0  2  0  0  0  0  0  0  0  0  0
    7.6949   -4.1876    1.0889 H   0  0  0  0  0  0  0  0  0  0  0  0
    7.8603   -4.1086   -0.7040 H   0  0  0  0  0  0  0  0  0  0  0  0
    7.5939   -1.9309    0.9928 H   0  0  0  0  0  0  0  0  0  0  0  0
    7.5779   -1.9014   -0.6261 H   0  0  0  0  0  0  0  0  0  0  0  0
    3.2903   -2.3311    1.5771 H   0  0  0  0  0  0  0  0  0  0  0  0
    3.2674   -4.7328   -0.0177 H   0  0  0  0  0  0  0  0  0  0  0  0
    2.1646   -3.3727   -0.1639 H   0  0  0  0  0  0  0  0  0  0  0  0
    3.3453   -3.2690   -2.3974 H   0  0  0  0  0  0  0  0  0  0  0  0
    5.7768   -3.7645   -2.3975 H   0  0  0  0  0  0  0  0  0  0  0  0
    5.6196   -5.1561    0.0188 H   0  0  0  0  0  0  0  0  0  0  0  0
    5.0425   -3.8730    2.3305 H   0  0  0  0  0  0  0  0  0  0  0  0
    4.6313   -1.0779    2.4010 H   0  0  0  0  0  0  0  0  0  0  0  0
    6.2608   -1.2780    2.3348 H   0  0  0  0  0  0  0  0  0  0  0  0
    4.5712    0.0429    0.2555 H   0  0  0  0  0  0  0  0  0  0  0  0
    5.4501   -0.9926   -2.2884 H   0  0  0  0  0  0  0  0  0  0  0  0
    3.3949   -0.9859   -1.0719 H   0  0  0  0  0  0  0  0  0  0  0  0
  1  8  1  0
  1  2  1  0
  1 14  1  0
  1 15  1  0
  3  2  1  6
  2 16  1  0
  2 17  1  0
  3 11  1  0
  3 13  1  0
  3  4  1  0
  4  9  1  0
  4  5  1  0
  4 18  1  1
  5  6  1  0
  5 19  1  0
  5 20  1  0
  6 13  1  0
  6  7  1  0
  6 21  1  6
  7 12  1  0
  7  8  1  0
  7 22  1  6
  8  9  1  0
  8 23  1  6
  9 10  1  0
  9 24  1  1
 10 11  1  0
 10 25  1  0
 10 26  1  0
 11 12  1  0
 11 27  1  1
 12 13  1  0
 12 28  1  6
 13 29  1  1
M  END
>  <i_m_ct_stereo_status>  (121) 
1

>  <s_m_source_file>  (121) 
/var/tmp/pbs.5076255.sched01/tmp06yssb5m/4267g10r58.sdf

>  <i_m_source_file_index>  (121) 
15

>  <i_lp_mmshare_version>  (121) 
48012

>  <i_f3d_flags>  (121) 
0

>  <s_epik_input>  (121) 
W0NAQF0xMjNbQ0BASF00W0NASF01W0NASF0oW0NIMl1bQ0gyXTEpW0NASF02W0NAQEhdKFtDSDJdNClbQ0BASF0zW0NASF02W0NASF0yW0NIMl01

>  <s_epik_cmdline>  (121) 
J2VwaWtfcHl0aG9uJywgJy1waHQnLCAnMi4wJywgJy1waCcsICc3LjAnLCAnLXRuJywgJzgnLCAnLW1hJywgJzIwMCcsICctaW1hZScsICc8aW5maWxlLm1hZT4nLCAnLW9tYWUnLCAnPG91dGZpbGUubWFlPic=

>  <r_lp_tautomer_probability>  (121) 
1

>  <r_epik_Ionization_Penalty>  (121) 
0

>  <r_epik_Ionization_Penalty_Charging>  (121) 
0

>  <r_epik_Ionization_Penalty_Neutral>  (121) 
0

>  <r_epik_State_Penalty>  (121) 
-0

>  <r_epik_Charging_Adjusted_Penalty>  (121) 
0

>  <i_epik_Tot_Q>  (121) 
0

>  <i_epik_Tot_abs_Q>  (121) 
0

>  <s_lp_Force_Field>  (121) 
OPLS3e

>  <r_lp_Energy>  (121) 
569.688

>  <b_lp_Chiralities_Consistent>  (121) 
1

>  <s_lp_Variant>  (121) 
39:0-1

>  <s_i_glide_gridfile>  (121) 
pfpi4k_grid

>  <i_i_glide_lignum>  (121) 
15

>  <i_i_glide_rotatable_bonds>  (121) 
0

>  <r_i_docking_score>  (121) 
-3.72848

>  <r_i_glide_ligand_efficiency>  (121) 
-0.286806

>  <r_i_glide_ligand_efficiency_sa>  (121) 
-0.674378

>  <r_i_glide_ligand_efficiency_ln>  (121) 
-1.04587

>  <r_i_glide_gscore>  (121) 
-3.72848

>  <r_i_glide_lipo>  (121) 
-0.651378

>  <r_i_glide_hbond>  (121) 
0

>  <r_i_glide_metal>  (121) 
-0

>  <r_i_glide_rewards>  (121) 
-2.23455

>  <r_i_glide_evdw>  (121) 
-17.6445

>  <r_i_glide_ecoul>  (121) 
0.264464

>  <r_i_glide_erotb>  (121) 
0

>  <r_i_glide_esite>  (121) 
0

>  <r_i_glide_emodel>  (121) 
-21.6312

>  <r_i_glide_energy>  (121) 
-17.3801

>  <r_i_glide_einternal>  (121) 
0

>  <r_i_glide_intrahb_reward>  (121) 
-0

>  <i_i_glide_confnum>  (121) 
2

>  <i_i_glide_posenum>  (121) 
22

>  <r_i_glide_eff_state_penalty>  (121) 
0

>  <ligand_id>  (121) 
39

>  <original_smiles>  (121) 
C1CC23C4CC5C6C1C4CC2C6C53

>  <smiles>  (121) 
[H]C1([H])C([H])([H])C23C4([H])C([H])([H])C5([H])C6([H])C1([H])C4([H])C([H])([H])C2([H])C6([H])C53[H]

$$$$
39:0:2
     RDKit          3D

 29 34  0  0  1  0  0  0  0  0999 V2000
    7.2676   -2.3455    0.1315 C   0  0  0  0  0  0  0  0  0  0  0  0
    6.4679   -2.6346   -1.1040 C   0  0  0  0  0  0  0  0  0  0  0  0
    4.5463   -2.4734   -0.8426 C   0  0  1  0  0  0  0  0  0  0  0  0
    3.8796   -1.4716    0.1873 C   0  0  1  0  0  0  0  0  0  0  0  0
    3.4400   -2.1979    1.5117 C   0  0  0  0  0  0  0  0  0  0  0  0
    3.8369   -3.6199    1.1955 C   0  0  2  0  0  0  0  0  0  0  0  0
    5.3205   -3.7970    0.8251 C   0  0  2  0  0  0  0  0  0  0  0  0
    6.0430   -2.2299    0.9256 C   0  0  2  0  0  0  0  0  0  0  0  0
    5.1579   -0.9838    0.0221 C   0  0  1  0  0  0  0  0  0  0  0  0
    4.6914   -1.1515   -1.6807 C   0  0  0  0  0  0  0  0  0  0  0  0
    4.3476   -2.7674   -1.9896 C   0  0  1  0  0  0  0  0  0  0  0  0
    4.6972   -4.1219   -0.8163 C   0  0  1  0  0  0  0  0  0  0  0  0
    3.5861   -3.5899   -0.2827 C   0  0  2  0  0  0  0  0  0  0  0  0
    7.8346   -1.4151    0.0865 H   0  0  0  0  0  0  0  0  0  0  0  0
    7.9037   -3.1786    0.4296 H   0  0  0  0  0  0  0  0  0  0  0  0
    6.8902   -2.0273   -1.8971 H   0  0  0  0  0  0  0  0  0  0  0  0
    6.8182   -3.5887   -1.5003 H   0  0  0  0  0  0  0  0  0  0  0  0
    3.0598   -0.8476   -0.1675 H   0  0  0  0  0  0  0  0  0  0  0  0
    3.8972   -1.7957    2.4152 H   0  0  0  0  0  0  0  0  0  0  0  0
    2.3607   -2.1281    1.6318 H   0  0  0  0  0  0  0  0  0  0  0  0
    3.3688   -4.4576    1.7170 H   0  0  0  0  0  0  0  0  0  0  0  0
    5.8102   -4.6291    1.2999 H   0  0  0  0  0  0  0  0  0  0  0  0
    6.2389   -1.9508    1.9543 H   0  0  0  0  0  0  0  0  0  0  0  0
    5.2742    0.0327    0.3984 H   0  0  0  0  0  0  0  0  0  0  0  0
    3.8482   -0.5263   -1.9855 H   0  0  0  0  0  0  0  0  0  0  0  0
    5.4321   -0.7262   -2.3558 H   0  0  0  0  0  0  0  0  0  0  0  0
    3.3327   -2.8506   -2.3927 H   0  0  0  0  0  0  0  0  0  0  0  0
    4.5090   -5.1544   -1.1023 H   0  0  0  0  0  0  0  0  0  0  0  0
    2.5965   -3.7384   -0.7106 H   0  0  0  0  0  0  0  0  0  0  0  0
  1  8  1  0
  1  2  1  0
  1 14  1  0
  1 15  1  0
  3  2  1  1
  2 16  1  0
  2 17  1  0
  3 11  1  0
  3 13  1  0
  3  4  1  0
  4  9  1  0
  4  5  1  0
  4 18  1  6
  5  6  1  0
  5 19  1  0
  5 20  1  0
  6 13  1  0
  6  7  1  0
  6 21  1  1
  7 12  1  0
  7  8  1  0
  7 22  1  1
  8  9  1  0
  8 23  1  1
  9 10  1  0
  9 24  1  1
 10 11  1  0
 10 25  1  0
 10 26  1  0
 11 12  1  0
 11 27  1  1
 12 13  1  0
 12 28  1  6
 13 29  1  1
M  END
>  <i_m_ct_stereo_status>  (122) 
1

>  <s_m_source_file>  (122) 
/var/tmp/pbs.5076255.sched01/tmp06yssb5m/4267g10r58.sdf

>  <i_m_source_file_index>  (122) 
15

>  <i_lp_mmshare_version>  (122) 
48012

>  <i_f3d_flags>  (122) 
0

>  <s_epik_input>  (122) 
W0NAQF0xMjNbQ0BASF00W0NASF01W0NASF0oW0NIMl1bQ0gyXTEpW0NASF02W0NAQEhdKFtDSDJdNClbQ0BASF0zW0NASF02W0NASF0yW0NIMl01

>  <s_epik_cmdline>  (122) 
J2VwaWtfcHl0aG9uJywgJy1waHQnLCAnMi4wJywgJy1waCcsICc3LjAnLCAnLXRuJywgJzgnLCAnLW1hJywgJzIwMCcsICctaW1hZScsICc8aW5maWxlLm1hZT4nLCAnLW9tYWUnLCAnPG91dGZpbGUubWFlPic=

>  <r_lp_tautomer_probability>  (122) 
1

>  <r_epik_Ionization_Penalty>  (122) 
0

>  <r_epik_Ionization_Penalty_Charging>  (122) 
0

>  <r_epik_Ionization_Penalty_Neutral>  (122) 
0

>  <r_epik_State_Penalty>  (122) 
-0

>  <r_epik_Charging_Adjusted_Penalty>  (122) 
0

>  <i_epik_Tot_Q>  (122) 
0

>  <i_epik_Tot_abs_Q>  (122) 
0

>  <s_lp_Force_Field>  (122) 
OPLS3e

>  <r_lp_Energy>  (122) 
569.688

>  <b_lp_Chiralities_Consistent>  (122) 
1

>  <s_lp_Variant>  (122) 
39:0-1

>  <s_i_glide_gridfile>  (122) 
pfpi4k_grid

>  <i_i_glide_lignum>  (122) 
15

>  <i_i_glide_rotatable_bonds>  (122) 
0

>  <r_i_docking_score>  (122) 
-3.3996

>  <r_i_glide_ligand_efficiency>  (122) 
-0.261508

>  <r_i_glide_ligand_efficiency_sa>  (122) 
-0.614893

>  <r_i_glide_ligand_efficiency_ln>  (122) 
-0.953619

>  <r_i_glide_gscore>  (122) 
-3.3996

>  <r_i_glide_lipo>  (122) 
-0.255849

>  <r_i_glide_hbond>  (122) 
0

>  <r_i_glide_metal>  (122) 
-0

>  <r_i_glide_rewards>  (122) 
-2.23455

>  <r_i_glide_evdw>  (122) 
-18.0514

>  <r_i_glide_ecoul>  (122) 
-0.0442406

>  <r_i_glide_erotb>  (122) 
0

>  <r_i_glide_esite>  (122) 
0

>  <r_i_glide_emodel>  (122) 
-21.9641

>  <r_i_glide_energy>  (122) 
-18.0956

>  <r_i_glide_einternal>  (122) 
0

>  <r_i_glide_intrahb_reward>  (122) 
-0

>  <i_i_glide_confnum>  (122) 
1

>  <i_i_glide_posenum>  (122) 
7

>  <r_i_glide_eff_state_penalty>  (122) 
0

>  <ligand_id>  (122) 
39

>  <original_smiles>  (122) 
C1CC23C4CC5C6C1C4CC2C6C53

>  <smiles>  (122) 
[H]C1([H])C([H])([H])C23C4([H])C([H])([H])C5([H])C6([H])C1([H])C4([H])C([H])([H])C2([H])C6([H])C53[H]

$$$$
40:0:0
     RDKit          3D

 31 34  0  0  1  0  0  0  0  0999 V2000
    2.3710   -5.0203    0.0843 C   0  0  0  0  0  0  0  0  0  0  0  0
    1.7628   -5.8823    0.8848 N   0  0  0  0  0  0  0  0  0  0  0  0
    2.5971   -5.9234    1.9900 N   0  0  0  0  0  0  0  0  0  0  0  0
    3.6097   -5.1129    1.8506 N   0  0  0  0  0  0  0  0  0  0  0  0
    3.4997   -4.5473    0.6182 N   0  0  0  0  0  0  0  0  0  0  0  0
    4.4328   -3.5364    0.1201 C   0  0  2  0  0  0  0  0  0  0  0  0
    4.6204   -3.7280   -1.4117 C   0  0  0  0  0  0  0  0  0  0  0  0
    5.5891   -2.6764   -1.9762 C   0  0  1  0  0  0  0  0  0  0  0  0
    5.0028   -1.2717   -1.7153 C   0  0  0  0  0  0  0  0  0  0  0  0
    4.8522   -1.0570   -0.1959 C   0  0  2  0  0  0  0  0  0  0  0  0
    6.2278   -1.1891    0.4875 C   0  0  0  0  0  0  0  0  0  0  0  0
    6.7957   -2.6005    0.2270 C   0  0  2  0  0  0  0  0  0  0  0  0
    6.9577   -2.8394   -1.2869 C   0  0  0  0  0  0  0  0  0  0  0  0
    5.8265   -3.6524    0.8035 C   0  0  0  0  0  0  0  0  0  0  0  0
    3.8794   -2.1092    0.3804 C   0  0  0  0  0  0  0  0  0  0  0  0
    1.9708   -4.7054   -0.8695 H   0  0  0  0  0  0  0  0  0  0  0  0
    4.9922   -4.7329   -1.6246 H   0  0  0  0  0  0  0  0  0  0  0  0
    3.6708   -3.6297   -1.9399 H   0  0  0  0  0  0  0  0  0  0  0  0
    5.6986   -2.8359   -3.0504 H   0  0  0  0  0  0  0  0  0  0  0  0
    5.6398   -0.5036   -2.1462 H   0  0  0  0  0  0  0  0  0  0  0  0
    4.0312   -1.1712   -2.2038 H   0  0  0  0  0  0  0  0  0  0  0  0
    4.4549   -0.0560   -0.0121 H   0  0  0  0  0  0  0  0  0  0  0  0
    6.9108   -0.4306    0.1110 H   0  0  0  0  0  0  0  0  0  0  0  0
    6.1338   -1.0109    1.5595 H   0  0  0  0  0  0  0  0  0  0  0  0
    7.7641   -2.7009    0.7184 H   0  0  0  0  0  0  0  0  0  0  0  0
    7.3373   -3.8468   -1.4550 H   0  0  0  0  0  0  0  0  0  0  0  0
    7.6934   -2.1672   -1.7204 H   0  0  0  0  0  0  0  0  0  0  0  0
    5.7480   -3.5005    1.8822 H   0  0  0  0  0  0  0  0  0  0  0  0
    6.2358   -4.6543    0.6606 H   0  0  0  0  0  0  0  0  0  0  0  0
    2.8956   -1.9875   -0.0758 H   0  0  0  0  0  0  0  0  0  0  0  0
    3.7393   -1.9395    1.4498 H   0  0  0  0  0  0  0  0  0  0  0  0
  1  5  1  0
  1  2  2  0
  1 16  1  0
  2  3  1  0
  3  4  2  0
  4  5  1  0
  6  5  1  1
  6 14  1  0
  6 15  1  0
  6  7  1  0
  7  8  1  0
  7 17  1  0
  7 18  1  0
  8 13  1  0
  8  9  1  0
  8 19  1  6
  9 10  1  0
  9 20  1  0
  9 21  1  0
 10 11  1  0
 10 15  1  0
 10 22  1  6
 11 12  1  0
 11 23  1  0
 11 24  1  0
 12 13  1  0
 12 14  1  0
 12 25  1  1
 13 26  1  0
 13 27  1  0
 14 28  1  0
 14 29  1  0
 15 30  1  0
 15 31  1  0
M  END
>  <i_m_ct_stereo_status>  (123) 
1

>  <s_m_source_file>  (123) 
/var/tmp/pbs.5076255.sched01/tmp06yssb5m/4267g10r58.sdf

>  <i_m_source_file_index>  (123) 
16

>  <i_lp_mmshare_version>  (123) 
48012

>  <i_f3d_flags>  (123) 
0

>  <s_epik_input>  (123) 
bjFubltjSF1uMUMyM1tDSDJdW0NASF00W0NIMl1bQ0BASF0oW0NIMl0zKVtDSDJdW0NASF0oW0NIMl00KVtDSDJdMg==

>  <s_epik_cmdline>  (123) 
J2VwaWtfcHl0aG9uJywgJy1waHQnLCAnMi4wJywgJy1waCcsICc3LjAnLCAnLXRuJywgJzgnLCAnLW1hJywgJzIwMCcsICctaW1hZScsICc8aW5maWxlLm1hZT4nLCAnLW9tYWUnLCAnPG91dGZpbGUubWFlPic=

>  <r_lp_tautomer_probability>  (123) 
1

>  <r_epik_Ionization_Penalty>  (123) 
2.80797e-08

>  <r_epik_Ionization_Penalty_Charging>  (123) 
0

>  <r_epik_Ionization_Penalty_Neutral>  (123) 
2.80797e-08

>  <r_epik_State_Penalty>  (123) 
-0

>  <r_epik_Charging_Adjusted_Penalty>  (123) 
0

>  <i_epik_Tot_Q>  (123) 
0

>  <i_epik_Tot_abs_Q>  (123) 
0

>  <s_lp_Force_Field>  (123) 
OPLS3e

>  <r_lp_Energy>  (123) 
7.28174

>  <b_lp_Chiralities_Consistent>  (123) 
1

>  <s_lp_Variant>  (123) 
40:0-1

>  <s_i_glide_gridfile>  (123) 
pfpi4k_grid

>  <i_i_glide_lignum>  (123) 
16

>  <i_i_glide_rotatable_bonds>  (123) 
1

>  <r_i_docking_score>  (123) 
-3.49248

>  <r_i_glide_ligand_efficiency>  (123) 
-0.232832

>  <r_i_glide_ligand_efficiency_sa>  (123) 
-0.574213

>  <r_i_glide_ligand_efficiency_ln>  (123) 
-0.941864

>  <r_i_glide_gscore>  (123) 
-3.49248

>  <r_i_glide_lipo>  (123) 
-0.291919

>  <r_i_glide_hbond>  (123) 
0

>  <r_i_glide_metal>  (123) 
-0

>  <r_i_glide_rewards>  (123) 
-2.01633

>  <r_i_glide_evdw>  (123) 
-20.5319

>  <r_i_glide_ecoul>  (123) 
-2.6992

>  <r_i_glide_erotb>  (123) 
0.394182

>  <r_i_glide_esite>  (123) 
-0.146939

>  <r_i_glide_emodel>  (123) 
-28.1087

>  <r_i_glide_energy>  (123) 
-23.2311

>  <r_i_glide_einternal>  (123) 
0.210132

>  <r_i_glide_intrahb_reward>  (123) 
-0

>  <i_i_glide_confnum>  (123) 
5

>  <i_i_glide_posenum>  (123) 
1

>  <r_i_glide_eff_state_penalty>  (123) 
0

>  <ligand_id>  (123) 
40

>  <original_smiles>  (123) 
c1nnnn1C12CC3CC(CC(C3)C1)C2

>  <smiles>  (123) 
[H]c1nnnn1C12C([H])([H])C3([H])C([H])([H])C([H])(C([H])([H])C([H])(C3([H])[H])C1([H])[H])C2([H])[H]

$$$$
40:0:1
     RDKit          3D

 31 34  0  0  1  0  0  0  0  0999 V2000
    3.4247   -6.2434    1.5363 C   0  0  0  0  0  0  0  0  0  0  0  0
    2.4337   -7.1053    1.7217 N   0  0  0  0  0  0  0  0  0  0  0  0
    1.4273   -6.6079    0.9085 N   0  0  0  0  0  0  0  0  0  0  0  0
    1.8118   -5.5268    0.2932 N   0  0  0  0  0  0  0  0  0  0  0  0
    3.0841   -5.2670    0.6841 N   0  0  0  0  0  0  0  0  0  0  0  0
    3.8343   -4.0949    0.2238 C   0  0  2  0  0  0  0  0  0  0  0  0
    4.1608   -3.1773    1.4340 C   0  0  0  0  0  0  0  0  0  0  0  0
    4.9889   -1.9603    0.9701 C   0  0  1  0  0  0  0  0  0  0  0  0
    6.3076   -2.4516    0.3378 C   0  0  0  0  0  0  0  0  0  0  0  0
    5.9870   -3.3355   -0.8841 C   0  0  2  0  0  0  0  0  0  0  0  0
    5.1840   -2.5274   -1.9228 C   0  0  0  0  0  0  0  0  0  0  0  0
    3.8692   -2.0428   -1.2804 C   0  0  2  0  0  0  0  0  0  0  0  0
    4.1749   -1.1520   -0.0603 C   0  0  0  0  0  0  0  0  0  0  0  0
    3.0429   -3.2585   -0.8255 C   0  0  0  0  0  0  0  0  0  0  0  0
    5.1626   -4.5578   -0.4261 C   0  0  0  0  0  0  0  0  0  0  0  0
    4.3833   -6.3017    2.0291 H   0  0  0  0  0  0  0  0  0  0  0  0
    3.2414   -2.8380    1.9175 H   0  0  0  0  0  0  0  0  0  0  0  0
    4.7221   -3.7238    2.1935 H   0  0  0  0  0  0  0  0  0  0  0  0
    5.2146   -1.3271    1.8295 H   0  0  0  0  0  0  0  0  0  0  0  0
    6.9277   -1.6068    0.0431 H   0  0  0  0  0  0  0  0  0  0  0  0
    6.8835   -3.0201    1.0707 H   0  0  0  0  0  0  0  0  0  0  0  0
    6.9190   -3.6784   -1.3337 H   0  0  0  0  0  0  0  0  0  0  0  0
    5.7694   -1.6796   -2.2762 H   0  0  0  0  0  0  0  0  0  0  0  0
    4.9711   -3.1494   -2.7936 H   0  0  0  0  0  0  0  0  0  0  0  0
    3.2908   -1.4732   -2.0083 H   0  0  0  0  0  0  0  0  0  0  0  0
    3.2386   -0.8129    0.3869 H   0  0  0  0  0  0  0  0  0  0  0  0
    4.7193   -0.2588   -0.3638 H   0  0  0  0  0  0  0  0  0  0  0  0
    2.7868   -3.8546   -1.7032 H   0  0  0  0  0  0  0  0  0  0  0  0
    2.0997   -2.9077   -0.4045 H   0  0  0  0  0  0  0  0  0  0  0  0
    5.7506   -5.1507    0.2768 H   0  0  0  0  0  0  0  0  0  0  0  0
    4.9550   -5.2100   -1.2775 H   0  0  0  0  0  0  0  0  0  0  0  0
  1  5  1  0
  1  2  2  0
  1 16  1  0
  2  3  1  0
  3  4  2  0
  4  5  1  0
  6  5  1  1
  6 14  1  0
  6 15  1  0
  6  7  1  0
  7  8  1  0
  7 17  1  0
  7 18  1  0
  8 13  1  0
  8  9  1  0
  8 19  1  1
  9 10  1  0
  9 20  1  0
  9 21  1  0
 10 11  1  0
 10 15  1  0
 10 22  1  6
 11 12  1  0
 11 23  1  0
 11 24  1  0
 12 13  1  0
 12 14  1  0
 12 25  1  6
 13 26  1  0
 13 27  1  0
 14 28  1  0
 14 29  1  0
 15 30  1  0
 15 31  1  0
M  END
>  <i_m_ct_stereo_status>  (124) 
1

>  <s_m_source_file>  (124) 
/var/tmp/pbs.5076255.sched01/tmp06yssb5m/4267g10r58.sdf

>  <i_m_source_file_index>  (124) 
16

>  <i_lp_mmshare_version>  (124) 
48012

>  <i_f3d_flags>  (124) 
0

>  <s_epik_input>  (124) 
bjFubltjSF1uMUMyM1tDSDJdW0NASF00W0NIMl1bQ0BASF0oW0NIMl0zKVtDSDJdW0NASF0oW0NIMl00KVtDSDJdMg==

>  <s_epik_cmdline>  (124) 
J2VwaWtfcHl0aG9uJywgJy1waHQnLCAnMi4wJywgJy1waCcsICc3LjAnLCAnLXRuJywgJzgnLCAnLW1hJywgJzIwMCcsICctaW1hZScsICc8aW5maWxlLm1hZT4nLCAnLW9tYWUnLCAnPG91dGZpbGUubWFlPic=

>  <r_lp_tautomer_probability>  (124) 
1

>  <r_epik_Ionization_Penalty>  (124) 
2.80797e-08

>  <r_epik_Ionization_Penalty_Charging>  (124) 
0

>  <r_epik_Ionization_Penalty_Neutral>  (124) 
2.80797e-08

>  <r_epik_State_Penalty>  (124) 
-0

>  <r_epik_Charging_Adjusted_Penalty>  (124) 
0

>  <i_epik_Tot_Q>  (124) 
0

>  <i_epik_Tot_abs_Q>  (124) 
0

>  <s_lp_Force_Field>  (124) 
OPLS3e

>  <r_lp_Energy>  (124) 
7.28174

>  <b_lp_Chiralities_Consistent>  (124) 
1

>  <s_lp_Variant>  (124) 
40:0-1

>  <s_i_glide_gridfile>  (124) 
pfpi4k_grid

>  <i_i_glide_lignum>  (124) 
16

>  <i_i_glide_rotatable_bonds>  (124) 
1

>  <r_i_docking_score>  (124) 
-3.45596

>  <r_i_glide_ligand_efficiency>  (124) 
-0.230397

>  <r_i_glide_ligand_efficiency_sa>  (124) 
-0.568209

>  <r_i_glide_ligand_efficiency_ln>  (124) 
-0.932015

>  <r_i_glide_gscore>  (124) 
-3.45596

>  <r_i_glide_lipo>  (124) 
-0.324249

>  <r_i_glide_hbond>  (124) 
0

>  <r_i_glide_metal>  (124) 
-0

>  <r_i_glide_rewards>  (124) 
-2.07633

>  <r_i_glide_evdw>  (124) 
-20.1211

>  <r_i_glide_ecoul>  (124) 
-1.73521

>  <r_i_glide_erotb>  (124) 
0.394182

>  <r_i_glide_esite>  (124) 
-0.183226

>  <r_i_glide_emodel>  (124) 
-26.757

>  <r_i_glide_energy>  (124) 
-21.8563

>  <r_i_glide_einternal>  (124) 
0.158935

>  <r_i_glide_intrahb_reward>  (124) 
-0

>  <i_i_glide_confnum>  (124) 
1

>  <i_i_glide_posenum>  (124) 
16

>  <r_i_glide_eff_state_penalty>  (124) 
0

>  <ligand_id>  (124) 
40

>  <original_smiles>  (124) 
c1nnnn1C12CC3CC(CC(C3)C1)C2

>  <smiles>  (124) 
[H]c1nnnn1C12C([H])([H])C3([H])C([H])([H])C([H])(C([H])([H])C([H])(C3([H])[H])C1([H])[H])C2([H])[H]

$$$$
40:0:2
     RDKit          3D

 31 34  0  0  1  0  0  0  0  0999 V2000
    4.1171   -6.0395    0.9830 C   0  0  0  0  0  0  0  0  0  0  0  0
    3.0976   -6.8224    1.2910 N   0  0  0  0  0  0  0  0  0  0  0  0
    2.0003   -6.0934    0.8725 N   0  0  0  0  0  0  0  0  0  0  0  0
    2.3565   -4.9609    0.3459 N   0  0  0  0  0  0  0  0  0  0  0  0
    3.7119   -4.8875    0.4345 N   0  0  0  0  0  0  0  0  0  0  0  0
    4.4694   -3.7369   -0.0691 C   0  0  2  0  0  0  0  0  0  0  0  0
    5.9063   -3.7461    0.5323 C   0  0  0  0  0  0  0  0  0  0  0  0
    6.7245   -2.5516    0.0192 C   0  0  1  0  0  0  0  0  0  0  0  0
    6.8267   -2.6529   -1.5169 C   0  0  0  0  0  0  0  0  0  0  0  0
    5.4129   -2.5896   -2.1283 C   0  0  2  0  0  0  0  0  0  0  0  0
    4.7254   -1.2675   -1.7210 C   0  0  0  0  0  0  0  0  0  0  0  0
    4.6177   -1.1971   -0.1834 C   0  0  2  0  0  0  0  0  0  0  0  0
    6.0239   -1.2472    0.4466 C   0  0  0  0  0  0  0  0  0  0  0  0
    3.7843   -2.3928    0.3271 C   0  0  0  0  0  0  0  0  0  0  0  0
    4.5814   -3.7860   -1.6157 C   0  0  0  0  0  0  0  0  0  0  0  0
    5.1536   -6.3077    1.1597 H   0  0  0  0  0  0  0  0  0  0  0  0
    5.8621   -3.7247    1.6236 H   0  0  0  0  0  0  0  0  0  0  0  0
    6.4383   -4.6557    0.2495 H   0  0  0  0  0  0  0  0  0  0  0  0
    7.7223   -2.5938    0.4577 H   0  0  0  0  0  0  0  0  0  0  0  0
    7.4447   -1.8601   -1.9103 H   0  0  0  0  0  0  0  0  0  0  0  0
    7.3230   -3.5779   -1.8060 H   0  0  0  0  0  0  0  0  0  0  0  0
    5.4882   -2.6427   -3.2140 H   0  0  0  0  0  0  0  0  0  0  0  0
    5.2857   -0.4121   -2.0978 H   0  0  0  0  0  0  0  0  0  0  0  0
    3.7319   -1.2049   -2.1682 H   0  0  0  0  0  0  0  0  0  0  0  0
    4.1231   -0.2685    0.1034 H   0  0  0  0  0  0  0  0  0  0  0  0
    5.9436   -1.2102    1.5345 H   0  0  0  0  0  0  0  0  0  0  0  0
    6.6112   -0.3803    0.1486 H   0  0  0  0  0  0  0  0  0  0  0  0
    2.7787   -2.3242   -0.0926 H   0  0  0  0  0  0  0  0  0  0  0  0
    3.6682   -2.3326    1.4100 H   0  0  0  0  0  0  0  0  0  0  0  0
    5.0346   -4.7255   -1.9325 H   0  0  0  0  0  0  0  0  0  0  0  0
    3.5890   -3.7662   -2.0688 H   0  0  0  0  0  0  0  0  0  0  0  0
  1  5  1  0
  1  2  2  0
  1 16  1  0
  2  3  1  0
  3  4  2  0
  4  5  1  0
  6  5  1  1
  6 14  1  0
  6 15  1  0
  6  7  1  0
  7  8  1  0
  7 17  1  0
  7 18  1  0
  8 13  1  0
  8  9  1  0
  8 19  1  1
  9 10  1  0
  9 20  1  0
  9 21  1  0
 10 11  1  0
 10 15  1  0
 10 22  1  6
 11 12  1  0
 11 23  1  0
 11 24  1  0
 12 13  1  0
 12 14  1  0
 12 25  1  6
 13 26  1  0
 13 27  1  0
 14 28  1  0
 14 29  1  0
 15 30  1  0
 15 31  1  0
M  END
>  <i_m_ct_stereo_status>  (125) 
1

>  <s_m_source_file>  (125) 
/var/tmp/pbs.5076255.sched01/tmp06yssb5m/4267g10r58.sdf

>  <i_m_source_file_index>  (125) 
16

>  <i_lp_mmshare_version>  (125) 
48012

>  <i_f3d_flags>  (125) 
0

>  <s_epik_input>  (125) 
bjFubltjSF1uMUMyM1tDSDJdW0NASF00W0NIMl1bQ0BASF0oW0NIMl0zKVtDSDJdW0NASF0oW0NIMl00KVtDSDJdMg==

>  <s_epik_cmdline>  (125) 
J2VwaWtfcHl0aG9uJywgJy1waHQnLCAnMi4wJywgJy1waCcsICc3LjAnLCAnLXRuJywgJzgnLCAnLW1hJywgJzIwMCcsICctaW1hZScsICc8aW5maWxlLm1hZT4nLCAnLW9tYWUnLCAnPG91dGZpbGUubWFlPic=

>  <r_lp_tautomer_probability>  (125) 
1

>  <r_epik_Ionization_Penalty>  (125) 
2.80797e-08

>  <r_epik_Ionization_Penalty_Charging>  (125) 
0

>  <r_epik_Ionization_Penalty_Neutral>  (125) 
2.80797e-08

>  <r_epik_State_Penalty>  (125) 
-0

>  <r_epik_Charging_Adjusted_Penalty>  (125) 
0

>  <i_epik_Tot_Q>  (125) 
0

>  <i_epik_Tot_abs_Q>  (125) 
0

>  <s_lp_Force_Field>  (125) 
OPLS3e

>  <r_lp_Energy>  (125) 
7.28174

>  <b_lp_Chiralities_Consistent>  (125) 
1

>  <s_lp_Variant>  (125) 
40:0-1

>  <s_i_glide_gridfile>  (125) 
pfpi4k_grid

>  <i_i_glide_lignum>  (125) 
16

>  <i_i_glide_rotatable_bonds>  (125) 
1

>  <r_i_docking_score>  (125) 
-3.31212

>  <r_i_glide_ligand_efficiency>  (125) 
-0.220808

>  <r_i_glide_ligand_efficiency_sa>  (125) 
-0.544559

>  <r_i_glide_ligand_efficiency_ln>  (125) 
-0.893223

>  <r_i_glide_gscore>  (125) 
-3.31212

>  <r_i_glide_lipo>  (125) 
-0.294238

>  <r_i_glide_hbond>  (125) 
0

>  <r_i_glide_metal>  (125) 
-0

>  <r_i_glide_rewards>  (125) 
-2.12273

>  <r_i_glide_evdw>  (125) 
-22.0821

>  <r_i_glide_ecoul>  (125) 
-0.571942

>  <r_i_glide_erotb>  (125) 
0.394182

>  <r_i_glide_esite>  (125) 
-0.0994368

>  <r_i_glide_emodel>  (125) 
-27.2648

>  <r_i_glide_energy>  (125) 
-22.6541

>  <r_i_glide_einternal>  (125) 
0.164092

>  <r_i_glide_intrahb_reward>  (125) 
-0

>  <i_i_glide_confnum>  (125) 
1

>  <i_i_glide_posenum>  (125) 
7

>  <r_i_glide_eff_state_penalty>  (125) 
0

>  <ligand_id>  (125) 
40

>  <original_smiles>  (125) 
c1nnnn1C12CC3CC(CC(C3)C1)C2

>  <smiles>  (125) 
[H]c1nnnn1C12C([H])([H])C3([H])C([H])([H])C([H])(C([H])([H])C([H])(C3([H])[H])C1([H])[H])C2([H])[H]

$$$$
41:0:0
     RDKit          3D

 54 58  0  0  1  0  0  0  0  0999 V2000
    4.1743   -1.5736   -3.8843 C   0  0  0  0  0  0  0  0  0  0  0  0
    4.2649   -2.0744   -2.6450 C   0  0  0  0  0  0  0  0  0  0  0  0
    4.9101   -1.3961   -1.4477 C   0  0  2  0  0  0  0  0  0  0  0  0
    6.1947   -2.1477   -1.0513 C   0  0  0  0  0  0  0  0  0  0  0  0
    5.6365   -3.5243   -0.6083 C   0  0  1  0  0  0  0  0  0  0  0  0
    5.9434   -4.1012    0.7877 C   0  0  1  0  0  0  0  0  0  0  0  0
    6.0394   -3.0527    1.7255 O   0  0  0  0  0  0  0  0  0  0  0  0
    4.7548   -5.0782    1.0582 C   0  0  1  0  0  0  0  0  0  0  0  0
    5.0184   -6.3910    0.2714 C   0  0  0  0  0  0  0  0  0  0  0  0
    4.4330   -5.5076    2.5522 C   0  0  1  0  0  0  0  0  0  0  0  0
    5.6267   -5.8245    3.4826 C   0  0  1  0  0  0  0  0  0  0  0  0
    6.7620   -6.3563    2.8444 O   0  0  0  0  0  0  0  0  0  0  0  0
    5.9010   -4.6657    4.1824 O   0  0  0  0  0  0  0  0  0  0  0  0
    4.7064   -3.9276    4.3860 C   0  0  0  0  0  0  0  0  0  0  0  0
    3.6348   -4.5220    3.4422 C   0  0  2  0  0  0  0  0  0  0  0  0
    2.5993   -5.3005    4.3119 C   0  0  0  0  0  0  0  0  0  0  0  0
    1.5979   -5.9674    3.5714 O   0  0  0  0  0  0  0  0  0  0  0  0
    2.9423   -3.4034    2.6328 C   0  0  0  0  0  0  0  0  0  0  0  0
    2.4311   -3.8824    1.2741 C   0  0  0  0  0  0  0  0  0  0  0  0
    3.5388   -4.3986    0.3359 C   0  0  1  0  0  0  0  0  0  0  0  0
    4.1122   -3.3365   -0.6536 C   0  0  1  0  0  0  0  0  0  0  0  0
    3.9735   -1.8339   -0.3342 C   0  0  0  0  0  0  0  0  0  0  0  0
    3.6708   -3.3832   -2.1472 C   0  0  1  0  0  0  0  0  0  0  0  0
    2.1499   -3.4578   -2.3974 C   0  0  0  0  0  0  0  0  0  0  0  0
    3.6652   -2.1187   -4.6657 H   0  0  0  0  0  0  0  0  0  0  0  0
    4.5995   -0.6108   -4.1209 H   0  0  0  0  0  0  0  0  0  0  0  0
    5.0106   -0.3177   -1.5643 H   0  0  0  0  0  0  0  0  0  0  0  0
    6.8797   -2.2538   -1.8919 H   0  0  0  0  0  0  0  0  0  0  0  0
    6.7134   -1.6187   -0.2524 H   0  0  0  0  0  0  0  0  0  0  0  0
    5.9252   -4.2597   -1.3554 H   0  0  0  0  0  0  0  0  0  0  0  0
    6.9032   -4.6185    0.7769 H   0  0  0  0  0  0  0  0  0  0  0  0
    6.7975   -2.5364    1.5002 H   0  0  0  0  0  0  0  0  0  0  0  0
    4.2519   -7.1489    0.4468 H   0  0  0  0  0  0  0  0  0  0  0  0
    5.9776   -6.8321    0.5367 H   0  0  0  0  0  0  0  0  0  0  0  0
    5.0298   -6.2184   -0.8032 H   0  0  0  0  0  0  0  0  0  0  0  0
    3.8641   -6.4349    2.4778 H   0  0  0  0  0  0  0  0  0  0  0  0
    5.3177   -6.5580    4.2295 H   0  0  0  0  0  0  0  0  0  0  0  0
    7.3580   -6.6439    3.5194 H   0  0  0  0  0  0  0  0  0  0  0  0
    4.4023   -3.9719    5.4338 H   0  0  0  0  0  0  0  0  0  0  0  0
    4.9326   -2.8797    4.1818 H   0  0  0  0  0  0  0  0  0  0  0  0
    3.1097   -6.0602    4.9000 H   0  0  0  0  0  0  0  0  0  0  0  0
    2.1169   -4.6423    5.0340 H   0  0  0  0  0  0  0  0  0  0  0  0
    2.0164   -6.6124    3.0180 H   0  0  0  0  0  0  0  0  0  0  0  0
    2.1209   -2.9820    3.2063 H   0  0  0  0  0  0  0  0  0  0  0  0
    3.6157   -2.5658    2.4715 H   0  0  0  0  0  0  0  0  0  0  0  0
    1.7199   -4.6894    1.4304 H   0  0  0  0  0  0  0  0  0  0  0  0
    1.8586   -3.0887    0.7962 H   0  0  0  0  0  0  0  0  0  0  0  0
    3.0439   -5.1524   -0.2762 H   0  0  0  0  0  0  0  0  0  0  0  0
    4.3204   -1.5324    0.6553 H   0  0  0  0  0  0  0  0  0  0  0  0
    2.9660   -1.4477   -0.4735 H   0  0  0  0  0  0  0  0  0  0  0  0
    4.1578   -4.2050   -2.6777 H   0  0  0  0  0  0  0  0  0  0  0  0
    1.9039   -3.4205   -3.4560 H   0  0  0  0  0  0  0  0  0  0  0  0
    1.6116   -2.6531   -1.9208 H   0  0  0  0  0  0  0  0  0  0  0  0
    1.7028   -4.3588   -1.9817 H   0  0  0  0  0  0  0  0  0  0  0  0
  1  2  2  0
  1 25  1  0
  1 26  1  0
  2 23  1  0
  2  3  1  0
  3 22  1  0
  3  4  1  0
  3 27  1  6
  4  5  1  0
  4 28  1  0
  4 29  1  0
  5 21  1  0
  5  6  1  0
  5 30  1  6
  6  7  1  0
  6  8  1  0
  6 31  1  6
  7 32  1  0
  8 20  1  0
  8  9  1  6
  8 10  1  0
  9 33  1  0
  9 34  1  0
  9 35  1  0
 10 15  1  0
 10 11  1  0
 10 36  1  6
 11 12  1  0
 11 13  1  0
 11 37  1  1
 12 38  1  0
 13 14  1  0
 14 15  1  0
 14 39  1  0
 14 40  1  0
 15 16  1  1
 15 18  1  0
 16 17  1  0
 16 41  1  0
 16 42  1  0
 17 43  1  0
 18 19  1  0
 18 44  1  0
 18 45  1  0
 19 20  1  0
 19 46  1  0
 19 47  1  0
 20 21  1  0
 20 48  1  6
 21 22  1  1
 21 23  1  0
 22 49  1  0
 22 50  1  0
 23 24  1  0
 23 51  1  6
 24 52  1  0
 24 53  1  0
 24 54  1  0
M  END
>  <i_m_ct_stereo_status>  (126) 
1

>  <s_m_source_file>  (126) 
/var/tmp/pbs.5076255.sched01/tmp06yssb5m/4267g10r58.sdf

>  <i_m_source_file_index>  (126) 
17

>  <i_lp_mmshare_version>  (126) 
48012

>  <i_f3d_flags>  (126) 
0

>  <s_epik_input>  (126) 
W0NIM11bQ0BIXTFDKD1bQ0gyXSlbQ0BASF0oW0NIMl0yKVtDSDJdW0NASF0oW0NAXTEyMylbQ0BASF0oW09IXSlbQ0BAXTQoW0NIM10pW0NAQEhdNVtDQF0oW0NIMl1bT0hdKShbQ0gyXVtDSDJdW0NAQEhdMzQpW0NIMl1PW0NAQEhdNVtPSF0=

>  <s_epik_cmdline>  (126) 
J2VwaWtfcHl0aG9uJywgJy1waHQnLCAnMi4wJywgJy1waCcsICc3LjAnLCAnLXRuJywgJzgnLCAnLW1hJywgJzIwMCcsICctaW1hZScsICc8aW5maWxlLm1hZT4nLCAnLW9tYWUnLCAnPG91dGZpbGUubWFlPic=

>  <r_lp_tautomer_probability>  (126) 
1

>  <r_epik_Ionization_Penalty>  (126) 
8.30274e-07

>  <r_epik_Ionization_Penalty_Charging>  (126) 
0

>  <r_epik_Ionization_Penalty_Neutral>  (126) 
8.30274e-07

>  <r_epik_State_Penalty>  (126) 
-0

>  <r_epik_Charging_Adjusted_Penalty>  (126) 
0

>  <i_epik_Tot_Q>  (126) 
0

>  <i_epik_Tot_abs_Q>  (126) 
0

>  <s_epik_Chemistry_Notes>  (126) 
This compound contains an acetal/aminal-like group ( X-CH(R)-Y where X, Y are N, S, or O) that may be acid/base labile, releasing an aldehyde.

>  <s_lp_Force_Field>  (126) 
OPLS3e

>  <r_lp_Energy>  (126) 
61.0699

>  <b_lp_Chiralities_Consistent>  (126) 
1

>  <s_lp_Variant>  (126) 
41:0-1

>  <s_i_glide_gridfile>  (126) 
pfpi4k_grid

>  <i_i_glide_lignum>  (126) 
17

>  <i_i_glide_rotatable_bonds>  (126) 
4

>  <r_i_docking_score>  (126) 
-2.67104

>  <r_i_glide_ligand_efficiency>  (126) 
-0.111293

>  <r_i_glide_ligand_efficiency_sa>  (126) 
-0.321025

>  <r_i_glide_ligand_efficiency_ln>  (126) 
-0.639302

>  <r_i_glide_gscore>  (126) 
-2.67104

>  <r_i_glide_lipo>  (126) 
-0.763701

>  <r_i_glide_hbond>  (126) 
0

>  <r_i_glide_metal>  (126) 
-0

>  <r_i_glide_rewards>  (126) 
-1.13133

>  <r_i_glide_evdw>  (126) 
-18.9081

>  <r_i_glide_ecoul>  (126) 
0.00520654

>  <r_i_glide_erotb>  (126) 
0.168615

>  <r_i_glide_esite>  (126) 
0

>  <r_i_glide_emodel>  (126) 
-21.5169

>  <r_i_glide_energy>  (126) 
-18.9029

>  <r_i_glide_einternal>  (126) 
1.0491

>  <r_i_glide_intrahb_reward>  (126) 
-0

>  <i_i_glide_confnum>  (126) 
2

>  <i_i_glide_posenum>  (126) 
34

>  <r_i_glide_eff_state_penalty>  (126) 
0

>  <ligand_id>  (126) 
41

>  <original_smiles>  (126) 
C=C1C2CC3C(O)C4(C)C5C(O)OCC5(CO)CCC4C3(C2)C1C

>  <smiles>  (126) 
[H]OC([H])([H])C12C([H])([H])OC([H])(O[H])C1([H])C1(C([H])([H])[H])C([H])(O[H])C3([H])C([H])([H])C4([H])C(=C([H])[H])C([H])(C([H])([H])[H])C3(C4([H])[H])C1([H])C([H])([H])C2([H])[H]

$$$$
41:0:1
     RDKit          3D

 54 58  0  0  1  0  0  0  0  0999 V2000
    3.4179   -0.9488   -3.1032 C   0  0  0  0  0  0  0  0  0  0  0  0
    3.6236   -1.9007   -2.1847 C   0  0  0  0  0  0  0  0  0  0  0  0
    3.2384   -3.3636   -2.3154 C   0  0  2  0  0  0  0  0  0  0  0  0
    2.0817   -3.6931   -1.3550 C   0  0  0  0  0  0  0  0  0  0  0  0
    2.7386   -3.4736    0.0298 C   0  0  1  0  0  0  0  0  0  0  0  0
    2.7392   -4.5910    1.0949 C   0  0  1  0  0  0  0  0  0  0  0  0
    2.7669   -5.8572    0.4838 O   0  0  0  0  0  0  0  0  0  0  0  0
    3.9926   -4.2634    1.9744 C   0  0  1  0  0  0  0  0  0  0  0  0
    3.5861   -3.1168    2.9457 C   0  0  0  0  0  0  0  0  0  0  0  0
    4.6335   -5.4106    2.8668 C   0  0  1  0  0  0  0  0  0  0  0  0
    3.6551   -6.3613    3.6086 C   0  0  1  0  0  0  0  0  0  0  0  0
    2.4378   -5.7905    4.0096 O   0  0  0  0  0  0  0  0  0  0  0  0
    3.4745   -7.4534    2.7808 O   0  0  0  0  0  0  0  0  0  0  0  0
    4.6799   -7.7148    2.0772 C   0  0  0  0  0  0  0  0  0  0  0  0
    5.5683   -6.4482    2.1887 C   0  0  2  0  0  0  0  0  0  0  0  0
    6.7755   -6.7780    3.1347 C   0  0  0  0  0  0  0  0  0  0  0  0
    7.8761   -5.8991    3.0405 O   0  0  0  0  0  0  0  0  0  0  0  0
    6.0505   -5.9858    0.7927 C   0  0  0  0  0  0  0  0  0  0  0  0
    6.2845   -4.4712    0.7054 C   0  0  0  0  0  0  0  0  0  0  0  0
    5.0185   -3.6238    0.9712 C   0  0  1  0  0  0  0  0  0  0  0  0
    4.2200   -3.2061   -0.3069 C   0  0  1  0  0  0  0  0  0  0  0  0
    4.4199   -4.0000   -1.6040 C   0  0  0  0  0  0  0  0  0  0  0  0
    4.3405   -1.7536   -0.8457 C   0  0  1  0  0  0  0  0  0  0  0  0
    5.7838   -1.2486   -1.0091 C   0  0  0  0  0  0  0  0  0  0  0  0
    3.7435    0.0683   -2.9326 H   0  0  0  0  0  0  0  0  0  0  0  0
    2.9032   -1.1784   -4.0260 H   0  0  0  0  0  0  0  0  0  0  0  0
    3.0787   -3.6840   -3.3437 H   0  0  0  0  0  0  0  0  0  0  0  0
    1.2135   -3.0561   -1.5272 H   0  0  0  0  0  0  0  0  0  0  0  0
    1.7128   -4.6994   -1.4939 H   0  0  0  0  0  0  0  0  0  0  0  0
    2.3021   -2.5815    0.4759 H   0  0  0  0  0  0  0  0  0  0  0  0
    1.8227   -4.5642    1.6839 H   0  0  0  0  0  0  0  0  0  0  0  0
    3.4029   -5.8230   -0.2190 H   0  0  0  0  0  0  0  0  0  0  0  0
    4.3945   -2.8509    3.6292 H   0  0  0  0  0  0  0  0  0  0  0  0
    2.7217   -3.3772    3.5528 H   0  0  0  0  0  0  0  0  0  0  0  0
    3.3183   -2.2069    2.4116 H   0  0  0  0  0  0  0  0  0  0  0  0
    5.2244   -4.9019    3.6314 H   0  0  0  0  0  0  0  0  0  0  0  0
    4.1321   -6.7386    4.5151 H   0  0  0  0  0  0  0  0  0  0  0  0
    1.9697   -6.4584    4.4965 H   0  0  0  0  0  0  0  0  0  0  0  0
    5.1742   -8.6040    2.4753 H   0  0  0  0  0  0  0  0  0  0  0  0
    4.4067   -7.9651    1.0507 H   0  0  0  0  0  0  0  0  0  0  0  0
    6.4561   -6.7658    4.1765 H   0  0  0  0  0  0  0  0  0  0  0  0
    7.1632   -7.7804    2.9618 H   0  0  0  0  0  0  0  0  0  0  0  0
    8.4098   -6.1637    2.3012 H   0  0  0  0  0  0  0  0  0  0  0  0
    6.9567   -6.5160    0.5111 H   0  0  0  0  0  0  0  0  0  0  0  0
    5.3358   -6.2725    0.0241 H   0  0  0  0  0  0  0  0  0  0  0  0
    7.0434   -4.1759    1.4317 H   0  0  0  0  0  0  0  0  0  0  0  0
    6.7266   -4.2181   -0.2554 H   0  0  0  0  0  0  0  0  0  0  0  0
    5.3953   -2.7039    1.4155 H   0  0  0  0  0  0  0  0  0  0  0  0
    4.3140   -5.0643   -1.4650 H   0  0  0  0  0  0  0  0  0  0  0  0
    5.3697   -3.8264   -2.1147 H   0  0  0  0  0  0  0  0  0  0  0  0
    3.7870   -1.0489   -0.2225 H   0  0  0  0  0  0  0  0  0  0  0  0
    5.7832   -0.2593   -1.4656 H   0  0  0  0  0  0  0  0  0  0  0  0
    6.3798   -1.8993   -1.6438 H   0  0  0  0  0  0  0  0  0  0  0  0
    6.2894   -1.1647   -0.0500 H   0  0  0  0  0  0  0  0  0  0  0  0
  1  2  2  0
  1 25  1  0
  1 26  1  0
  2 23  1  0
  2  3  1  0
  3 22  1  0
  3  4  1  0
  3 27  1  6
  4  5  1  0
  4 28  1  0
  4 29  1  0
  5 21  1  0
  5  6  1  0
  5 30  1  1
  6  7  1  0
  6  8  1  0
  6 31  1  1
  7 32  1  0
  8 20  1  0
  8  9  1  1
  8 10  1  0
  9 33  1  0
  9 34  1  0
  9 35  1  0
 10 15  1  0
 10 11  1  0
 10 36  1  1
 11 12  1  0
 11 13  1  0
 11 37  1  1
 12 38  1  0
 13 14  1  0
 14 15  1  0
 14 39  1  0
 14 40  1  0
 15 16  1  1
 15 18  1  0
 16 17  1  0
 16 41  1  0
 16 42  1  0
 17 43  1  0
 18 19  1  0
 18 44  1  0
 18 45  1  0
 19 20  1  0
 19 46  1  0
 19 47  1  0
 20 21  1  0
 20 48  1  1
 21 22  1  6
 21 23  1  0
 22 49  1  0
 22 50  1  0
 23 24  1  0
 23 51  1  1
 24 52  1  0
 24 53  1  0
 24 54  1  0
M  END
>  <i_m_ct_stereo_status>  (127) 
1

>  <s_m_source_file>  (127) 
/var/tmp/pbs.5076255.sched01/tmp06yssb5m/4267g10r58.sdf

>  <i_m_source_file_index>  (127) 
17

>  <i_lp_mmshare_version>  (127) 
48012

>  <i_f3d_flags>  (127) 
0

>  <s_epik_input>  (127) 
W0NIM11bQ0BIXTFDKD1bQ0gyXSlbQ0BASF0oW0NIMl0yKVtDSDJdW0NASF0oW0NAXTEyMylbQ0BASF0oW09IXSlbQ0BAXTQoW0NIM10pW0NAQEhdNVtDQF0oW0NIMl1bT0hdKShbQ0gyXVtDSDJdW0NAQEhdMzQpW0NIMl1PW0NAQEhdNVtPSF0=

>  <s_epik_cmdline>  (127) 
J2VwaWtfcHl0aG9uJywgJy1waHQnLCAnMi4wJywgJy1waCcsICc3LjAnLCAnLXRuJywgJzgnLCAnLW1hJywgJzIwMCcsICctaW1hZScsICc8aW5maWxlLm1hZT4nLCAnLW9tYWUnLCAnPG91dGZpbGUubWFlPic=

>  <r_lp_tautomer_probability>  (127) 
1

>  <r_epik_Ionization_Penalty>  (127) 
8.30274e-07

>  <r_epik_Ionization_Penalty_Charging>  (127) 
0

>  <r_epik_Ionization_Penalty_Neutral>  (127) 
8.30274e-07

>  <r_epik_State_Penalty>  (127) 
-0

>  <r_epik_Charging_Adjusted_Penalty>  (127) 
0

>  <i_epik_Tot_Q>  (127) 
0

>  <i_epik_Tot_abs_Q>  (127) 
0

>  <s_epik_Chemistry_Notes>  (127) 
This compound contains an acetal/aminal-like group ( X-CH(R)-Y where X, Y are N, S, or O) that may be acid/base labile, releasing an aldehyde.

>  <s_lp_Force_Field>  (127) 
OPLS3e

>  <r_lp_Energy>  (127) 
61.0699

>  <b_lp_Chiralities_Consistent>  (127) 
1

>  <s_lp_Variant>  (127) 
41:0-1

>  <s_i_glide_gridfile>  (127) 
pfpi4k_grid

>  <i_i_glide_lignum>  (127) 
17

>  <i_i_glide_rotatable_bonds>  (127) 
4

>  <r_i_docking_score>  (127) 
-2.52948

>  <r_i_glide_ligand_efficiency>  (127) 
-0.105395

>  <r_i_glide_ligand_efficiency_sa>  (127) 
-0.304012

>  <r_i_glide_ligand_efficiency_ln>  (127) 
-0.605421

>  <r_i_glide_gscore>  (127) 
-2.52948

>  <r_i_glide_lipo>  (127) 
-0.332675

>  <r_i_glide_hbond>  (127) 
0

>  <r_i_glide_metal>  (127) 
-0

>  <r_i_glide_rewards>  (127) 
-1.12875

>  <r_i_glide_evdw>  (127) 
-19.115

>  <r_i_glide_ecoul>  (127) 
-1.87278

>  <r_i_glide_erotb>  (127) 
0.168615

>  <r_i_glide_esite>  (127) 
0

>  <r_i_glide_emodel>  (127) 
-21.5406

>  <r_i_glide_energy>  (127) 
-20.9878

>  <r_i_glide_einternal>  (127) 
3.49905

>  <r_i_glide_intrahb_reward>  (127) 
-0

>  <i_i_glide_confnum>  (127) 
2

>  <i_i_glide_posenum>  (127) 
35

>  <r_i_glide_eff_state_penalty>  (127) 
0

>  <ligand_id>  (127) 
41

>  <original_smiles>  (127) 
C=C1C2CC3C(O)C4(C)C5C(O)OCC5(CO)CCC4C3(C2)C1C

>  <smiles>  (127) 
[H]OC([H])([H])C12C([H])([H])OC([H])(O[H])C1([H])C1(C([H])([H])[H])C([H])(O[H])C3([H])C([H])([H])C4([H])C(=C([H])[H])C([H])(C([H])([H])[H])C3(C4([H])[H])C1([H])C([H])([H])C2([H])[H]

$$$$
41:0:2
     RDKit          3D

 54 58  0  0  1  0  0  0  0  0999 V2000
    4.0025   -0.6109   -4.0492 C   0  0  0  0  0  0  0  0  0  0  0  0
    3.9687   -1.5202   -3.0764 C   0  0  0  0  0  0  0  0  0  0  0  0
    3.2262   -2.8539   -3.0989 C   0  0  2  0  0  0  0  0  0  0  0  0
    2.0357   -2.7602   -2.1440 C   0  0  0  0  0  0  0  0  0  0  0  0
    2.7172   -2.5872   -0.7607 C   0  0  1  0  0  0  0  0  0  0  0  0
    2.4298   -3.5105    0.4155 C   0  0  1  0  0  0  0  0  0  0  0  0
    2.0585   -4.7841   -0.0697 O   0  0  0  0  0  0  0  0  0  0  0  0
    3.6984   -3.4772    1.2996 C   0  0  1  0  0  0  0  0  0  0  0  0
    3.6514   -2.1694    2.1450 C   0  0  0  0  0  0  0  0  0  0  0  0
    3.9543   -4.6821    2.2958 C   0  0  1  0  0  0  0  0  0  0  0  0
    2.7402   -5.2236    3.0892 C   0  0  1  0  0  0  0  0  0  0  0  0
    1.7686   -4.2673    3.4013 O   0  0  0  0  0  0  0  0  0  0  0  0
    2.2265   -6.2811    2.3627 O   0  0  0  0  0  0  0  0  0  0  0  0
    3.2903   -6.9493    1.7048 C   0  0  0  0  0  0  0  0  0  0  0  0
    4.5124   -5.9984    1.7197 C   0  0  2  0  0  0  0  0  0  0  0  0
    5.5761   -6.5852    2.6947 C   0  0  0  0  0  0  0  0  0  0  0  0
    6.7713   -5.8385    2.7418 O   0  0  0  0  0  0  0  0  0  0  0  0
    5.1035   -5.8391    0.2998 C   0  0  0  0  0  0  0  0  0  0  0  0
    5.7895   -4.4781    0.0901 C   0  0  0  0  0  0  0  0  0  0  0  0
    4.8473   -3.2775    0.2641 C   0  0  1  0  0  0  0  0  0  0  0  0
    4.1939   -2.7828   -1.0626 C   0  0  1  0  0  0  0  0  0  0  0  0
    4.1924   -3.7128   -2.2854 C   0  0  0  0  0  0  0  0  0  0  0  0
    4.7008   -1.5014   -1.7081 C   0  0  1  0  0  0  0  0  0  0  0  0
    6.2098   -1.5686   -1.8282 C   0  0  0  0  0  0  0  0  0  0  0  0
    4.6042    0.3006   -3.9704 H   0  0  0  0  0  0  0  0  0  0  0  0
    3.4596   -0.7581   -4.9845 H   0  0  0  0  0  0  0  0  0  0  0  0
    2.9352   -3.1748   -4.1102 H   0  0  0  0  0  0  0  0  0  0  0  0
    1.4677   -1.8844   -2.4412 H   0  0  0  0  0  0  0  0  0  0  0  0
    1.3840   -3.6364   -2.1782 H   0  0  0  0  0  0  0  0  0  0  0  0
    2.6001   -1.5686   -0.4036 H   0  0  0  0  0  0  0  0  0  0  0  0
    1.6407   -3.0515    0.9904 H   0  0  0  0  0  0  0  0  0  0  0  0
    2.6515   -5.0212   -0.7748 H   0  0  0  0  0  0  0  0  0  0  0  0
    4.5052   -2.0967    2.8151 H   0  0  0  0  0  0  0  0  0  0  0  0
    2.7542   -2.0871    2.7553 H   0  0  0  0  0  0  0  0  0  0  0  0
    3.6663   -1.2711    1.5286 H   0  0  0  0  0  0  0  0  0  0  0  0
    4.6670   -4.3045    3.0264 H   0  0  0  0  0  0  0  0  0  0  0  0
    3.0801   -5.6403    4.0403 H   0  0  0  0  0  0  0  0  0  0  0  0
    1.5873   -3.7876    2.6039 H   0  0  0  0  0  0  0  0  0  0  0  0
    3.5006   -7.9131    2.1708 H   0  0  0  0  0  0  0  0  0  0  0  0
    2.9454   -7.1770    0.7012 H   0  0  0  0  0  0  0  0  0  0  0  0
    5.1833   -6.6101    3.7106 H   0  0  0  0  0  0  0  0  0  0  0  0
    5.8291   -7.6153    2.4403 H   0  0  0  0  0  0  0  0  0  0  0  0
    7.1296   -5.8088    1.8671 H   0  0  0  0  0  0  0  0  0  0  0  0
    5.8111   -6.6404    0.0998 H   0  0  0  0  0  0  0  0  0  0  0  0
    4.3302   -5.9811   -0.4518 H   0  0  0  0  0  0  0  0  0  0  0  0
    6.6250   -4.3498    0.7754 H   0  0  0  0  0  0  0  0  0  0  0  0
    6.2324   -4.4349   -0.8988 H   0  0  0  0  0  0  0  0  0  0  0  0
    5.4803   -2.4702    0.6264 H   0  0  0  0  0  0  0  0  0  0  0  0
    3.8256   -4.6533   -1.9089 H   0  0  0  0  0  0  0  0  0  0  0  0
    5.1432   -3.8246   -2.8308 H   0  0  0  0  0  0  0  0  0  0  0  0
    4.4196   -0.5888   -1.1679 H   0  0  0  0  0  0  0  0  0  0  0  0
    6.1886   -0.6218   -2.3233 H   0  0  0  0  0  0  0  0  0  0  0  0
    6.6057   -2.3680   -2.4785 H   0  0  0  0  0  0  0  0  0  0  0  0
    6.7306   -1.5513   -0.8494 H   0  0  0  0  0  0  0  0  0  0  0  0
  1  2  2  0
  1 25  1  0
  1 26  1  0
  2 23  1  0
  2  3  1  0
  3 22  1  0
  3  4  1  0
  3 27  1  6
  4  5  1  0
  4 28  1  0
  4 29  1  0
  5 21  1  0
  5  6  1  0
  5 30  1  1
  6  7  1  0
  6  8  1  0
  6 31  1  1
  7 32  1  0
  8 20  1  0
  8  9  1  1
  8 10  1  0
  9 33  1  0
  9 34  1  0
  9 35  1  0
 10 15  1  0
 10 11  1  0
 10 36  1  1
 11 12  1  0
 11 13  1  0
 11 37  1  1
 12 38  1  0
 13 14  1  0
 14 15  1  0
 14 39  1  0
 14 40  1  0
 15 16  1  1
 15 18  1  0
 16 17  1  0
 16 41  1  0
 16 42  1  0
 17 43  1  0
 18 19  1  0
 18 44  1  0
 18 45  1  0
 19 20  1  0
 19 46  1  0
 19 47  1  0
 20 21  1  0
 20 48  1  1
 21 22  1  6
 21 23  1  0
 22 49  1  0
 22 50  1  0
 23 24  1  0
 23 51  1  1
 24 52  1  0
 24 53  1  0
 24 54  1  0
M  END
>  <i_m_ct_stereo_status>  (128) 
1

>  <s_m_source_file>  (128) 
/var/tmp/pbs.5076255.sched01/tmp06yssb5m/4267g10r58.sdf

>  <i_m_source_file_index>  (128) 
17

>  <i_lp_mmshare_version>  (128) 
48012

>  <i_f3d_flags>  (128) 
0

>  <s_epik_input>  (128) 
W0NIM11bQ0BIXTFDKD1bQ0gyXSlbQ0BASF0oW0NIMl0yKVtDSDJdW0NASF0oW0NAXTEyMylbQ0BASF0oW09IXSlbQ0BAXTQoW0NIM10pW0NAQEhdNVtDQF0oW0NIMl1bT0hdKShbQ0gyXVtDSDJdW0NAQEhdMzQpW0NIMl1PW0NAQEhdNVtPSF0=

>  <s_epik_cmdline>  (128) 
J2VwaWtfcHl0aG9uJywgJy1waHQnLCAnMi4wJywgJy1waCcsICc3LjAnLCAnLXRuJywgJzgnLCAnLW1hJywgJzIwMCcsICctaW1hZScsICc8aW5maWxlLm1hZT4nLCAnLW9tYWUnLCAnPG91dGZpbGUubWFlPic=

>  <r_lp_tautomer_probability>  (128) 
1

>  <r_epik_Ionization_Penalty>  (128) 
8.30274e-07

>  <r_epik_Ionization_Penalty_Charging>  (128) 
0

>  <r_epik_Ionization_Penalty_Neutral>  (128) 
8.30274e-07

>  <r_epik_State_Penalty>  (128) 
-0

>  <r_epik_Charging_Adjusted_Penalty>  (128) 
0

>  <i_epik_Tot_Q>  (128) 
0

>  <i_epik_Tot_abs_Q>  (128) 
0

>  <s_epik_Chemistry_Notes>  (128) 
This compound contains an acetal/aminal-like group ( X-CH(R)-Y where X, Y are N, S, or O) that may be acid/base labile, releasing an aldehyde.

>  <s_lp_Force_Field>  (128) 
OPLS3e

>  <r_lp_Energy>  (128) 
61.0699

>  <b_lp_Chiralities_Consistent>  (128) 
1

>  <s_lp_Variant>  (128) 
41:0-1

>  <s_i_glide_gridfile>  (128) 
pfpi4k_grid

>  <i_i_glide_lignum>  (128) 
17

>  <i_i_glide_rotatable_bonds>  (128) 
4

>  <r_i_docking_score>  (128) 
-2.42327

>  <r_i_glide_ligand_efficiency>  (128) 
-0.10097

>  <r_i_glide_ligand_efficiency_sa>  (128) 
-0.291247

>  <r_i_glide_ligand_efficiency_ln>  (128) 
-0.58

>  <r_i_glide_gscore>  (128) 
-2.42327

>  <r_i_glide_lipo>  (128) 
-0.631885

>  <r_i_glide_hbond>  (128) 
0

>  <r_i_glide_metal>  (128) 
-0

>  <r_i_glide_rewards>  (128) 
-1.12875

>  <r_i_glide_evdw>  (128) 
-0.262762

>  <r_i_glide_ecoul>  (128) 
-5.44285

>  <r_i_glide_erotb>  (128) 
0.168615

>  <r_i_glide_esite>  (128) 
-0.00168504

>  <r_i_glide_emodel>  (128) 
-6.06925

>  <r_i_glide_energy>  (128) 
-5.70561

>  <r_i_glide_einternal>  (128) 
0.892657

>  <r_i_glide_intrahb_reward>  (128) 
-0

>  <i_i_glide_confnum>  (128) 
2

>  <i_i_glide_posenum>  (128) 
4

>  <r_i_glide_eff_state_penalty>  (128) 
0

>  <ligand_id>  (128) 
41

>  <original_smiles>  (128) 
C=C1C2CC3C(O)C4(C)C5C(O)OCC5(CO)CCC4C3(C2)C1C

>  <smiles>  (128) 
[H]OC([H])([H])C12C([H])([H])OC([H])(O[H])C1([H])C1(C([H])([H])[H])C([H])(O[H])C3([H])C([H])([H])C4([H])C(=C([H])[H])C([H])(C([H])([H])[H])C3(C4([H])[H])C1([H])C([H])([H])C2([H])[H]

$$$$
42:0:0
     RDKit          3D

 83 90  0  0  1  0  0  0  0  0999 V2000
   10.5421   -8.3201    5.4214 C   0  0  0  0  0  0  0  0  0  0  0  0
    9.7862   -7.8450    4.3184 O   0  0  0  0  0  0  0  0  0  0  0  0
    8.3844   -8.1022    4.3878 C   0  0  2  0  0  0  0  0  0  0  0  0
    7.7703   -7.7531    3.0158 C   0  0  0  0  0  0  0  0  0  0  0  0
    7.2223   -6.2880    3.1078 C   0  0  2  0  0  0  0  0  0  0  0  0
    7.8285   -5.4832    1.9336 C   0  0  0  0  0  0  0  0  0  0  0  0
    7.8062   -5.8607    4.4854 C   0  0  0  0  0  0  0  0  0  0  0  0
    7.6688   -7.1312    5.3519 C   0  0  1  0  0  0  0  0  0  0  0  0
    6.1491   -7.5027    5.6234 C   0  0  1  0  0  0  0  0  0  0  0  0
    6.0032   -9.0655    5.6733 C   0  0  0  0  0  0  0  0  0  0  0  0
    5.5355   -7.0837    6.9740 C   0  0  0  0  0  0  0  0  0  0  0  0
    6.3104   -6.7964    7.8942 O   0  0  0  0  0  0  0  0  0  0  0  0
    4.0409   -7.1157    7.2332 C   0  0  0  0  0  0  0  0  0  0  0  0
    2.9422   -7.1086    6.4069 C   0  0  0  0  0  0  0  0  0  0  0  0
    1.6007   -7.0365    7.1428 C   0  0  0  0  0  0  0  0  0  0  0  0
    1.5335   -6.8095    8.3504 O   0  0  0  0  0  0  0  0  0  0  0  0
    0.4705   -7.1778    6.4177 O   0  0  0  0  0  0  0  0  0  0  0  0
    0.3251   -7.4346    5.0292 C   0  0  2  0  0  0  0  0  0  0  0  0
   -0.6340   -8.6324    4.8797 C   0  0  0  0  0  0  0  0  0  0  0  0
    0.2488   -9.8492    4.8602 C   0  0  2  0  0  0  0  0  0  0  0  0
    1.6529   -9.4007    4.5639 C   0  0  2  0  0  0  0  0  0  0  0  0
    1.6192   -7.9022    4.3634 C   0  0  2  0  0  0  0  0  0  0  0  0
    2.8223   -7.1080    4.8505 C   0  0  2  0  0  0  0  0  0  0  0  0
    4.0778   -7.4989    4.1005 C   0  0  1  0  0  0  0  0  0  0  0  0
    4.5543   -7.1244    2.6667 C   0  0  1  0  0  0  0  0  0  0  0  0
    3.5157   -6.6738    1.6630 C   0  0  0  0  0  0  0  0  0  0  0  0
    5.6556   -6.1602    3.2438 C   0  0  2  0  0  0  0  0  0  0  0  0
    5.2522   -4.6559    3.0528 C   0  0  0  0  0  0  0  0  0  0  0  0
    5.2127   -4.2480    1.6752 O   0  0  0  0  0  0  0  0  0  0  0  0
    5.2423   -2.9390    1.3248 C   0  0  0  0  0  0  0  0  0  0  0  0
    5.3898   -2.0212    2.1265 O   0  0  0  0  0  0  0  0  0  0  0  0
    5.0789   -2.7410   -0.1424 C   0  0  0  0  0  0  0  0  0  0  0  0
    5.1523   -3.8228   -1.0560 C   0  0  0  0  0  0  0  0  0  0  0  0
    4.9632   -3.6201   -2.4403 C   0  0  0  0  0  0  0  0  0  0  0  0
    4.6832   -2.3297   -2.9365 C   0  0  0  0  0  0  0  0  0  0  0  0
    4.6150   -1.2366   -2.0448 C   0  0  0  0  0  0  0  0  0  0  0  0
    4.8191   -1.4403   -0.6573 C   0  0  0  0  0  0  0  0  0  0  0  0
    5.2678   -6.7774    4.6153 C   0  0  2  0  0  0  0  0  0  0  0  0
    0.9596  -10.4114    3.6683 C   0  0  0  0  0  0  0  0  0  0  0  0
    1.4187  -11.8395    3.6940 C   0  0  0  0  0  0  0  0  0  0  0  0
    0.5356  -10.0271    2.2694 C   0  0  0  0  0  0  0  0  0  0  0  0
   11.5958   -8.1063    5.2445 H   0  0  0  0  0  0  0  0  0  0  0  0
   10.4374   -9.3969    5.5543 H   0  0  0  0  0  0  0  0  0  0  0  0
   10.2644   -7.8228    6.3492 H   0  0  0  0  0  0  0  0  0  0  0  0
    8.2694   -9.1646    4.6088 H   0  0  0  0  0  0  0  0  0  0  0  0
    8.5272   -7.8683    2.2406 H   0  0  0  0  0  0  0  0  0  0  0  0
    6.9986   -8.4763    2.7712 H   0  0  0  0  0  0  0  0  0  0  0  0
    7.7133   -4.4088    2.0675 H   0  0  0  0  0  0  0  0  0  0  0  0
    7.3536   -5.7609    0.9914 H   0  0  0  0  0  0  0  0  0  0  0  0
    8.8975   -5.6578    1.8350 H   0  0  0  0  0  0  0  0  0  0  0  0
    8.8562   -5.5796    4.3847 H   0  0  0  0  0  0  0  0  0  0  0  0
    7.2993   -5.0118    4.9399 H   0  0  0  0  0  0  0  0  0  0  0  0
    8.2069   -7.0281    6.2900 H   0  0  0  0  0  0  0  0  0  0  0  0
    6.1020   -9.5358    4.7003 H   0  0  0  0  0  0  0  0  0  0  0  0
    5.0403   -9.3944    6.0758 H   0  0  0  0  0  0  0  0  0  0  0  0
    6.7616   -9.4987    6.3322 H   0  0  0  0  0  0  0  0  0  0  0  0
    3.8594   -7.0996    8.2920 H   0  0  0  0  0  0  0  0  0  0  0  0
   -0.0629   -6.5351    4.5538 H   0  0  0  0  0  0  0  0  0  0  0  0
   -1.3768   -8.7075    5.6585 H   0  0  0  0  0  0  0  0  0  0  0  0
   -1.1918   -8.5674    3.9392 H   0  0  0  0  0  0  0  0  0  0  0  0
    0.0978  -10.5461    5.6989 H   0  0  0  0  0  0  0  0  0  0  0  0
    2.4243   -9.7921    5.2385 H   0  0  0  0  0  0  0  0  0  0  0  0
    1.5249   -7.7266    3.2889 H   0  0  0  0  0  0  0  0  0  0  0  0
    2.5988   -6.0625    4.6038 H   0  0  0  0  0  0  0  0  0  0  0  0
    4.1938   -8.5929    4.1298 H   0  0  0  0  0  0  0  0  0  0  0  0
    5.0621   -8.0004    2.2645 H   0  0  0  0  0  0  0  0  0  0  0  0
    2.8557   -5.9066    2.0825 H   0  0  0  0  0  0  0  0  0  0  0  0
    2.8872   -7.5014    1.3405 H   0  0  0  0  0  0  0  0  0  0  0  0
    3.9729   -6.2639    0.7640 H   0  0  0  0  0  0  0  0  0  0  0  0
    4.2265   -4.5101    3.4070 H   0  0  0  0  0  0  0  0  0  0  0  0
    5.8611   -3.9941    3.6569 H   0  0  0  0  0  0  0  0  0  0  0  0
    5.3508   -4.8212   -0.7172 H   0  0  0  0  0  0  0  0  0  0  0  0
    5.0063   -4.4609   -3.1100 H   0  0  0  0  0  0  0  0  0  0  0  0
    4.5180   -2.1808   -3.9872 H   0  0  0  0  0  0  0  0  0  0  0  0
    4.3973   -0.2519   -2.4204 H   0  0  0  0  0  0  0  0  0  0  0  0
    4.7520   -0.5967    0.0038 H   0  0  0  0  0  0  0  0  0  0  0  0
    4.9048   -5.8352    5.0779 H   0  0  0  0  0  0  0  0  0  0  0  0
    2.2787  -11.9812    3.0388 H   0  0  0  0  0  0  0  0  0  0  0  0
    0.6110  -12.5011    3.3772 H   0  0  0  0  0  0  0  0  0  0  0  0
    1.7124  -12.1284    4.7079 H   0  0  0  0  0  0  0  0  0  0  0  0
    1.4064  -10.0578    1.6118 H   0  0  0  0  0  0  0  0  0  0  0  0
    0.1185   -9.0174    2.2246 H   0  0  0  0  0  0  0  0  0  0  0  0
   -0.2337  -10.7119    1.9050 H   0  0  0  0  0  0  0  0  0  0  0  0
  1  2  1  0
  1 42  1  0
  1 43  1  0
  1 44  1  0
  2  3  1  0
  3  8  1  0
  3  4  1  0
  3 45  1  1
  4  5  1  0
  4 46  1  0
  4 47  1  0
  5 27  1  0
  5  6  1  6
  5  7  1  0
  6 48  1  0
  6 49  1  0
  6 50  1  0
  7  8  1  0
  7 51  1  0
  7 52  1  0
  8  9  1  0
  8 53  1  1
  9 38  1  0
  9 10  1  6
  9 11  1  0
 10 54  1  0
 10 55  1  0
 10 56  1  0
 11 12  2  0
 11 13  1  0
 13 14  2  0
 13 57  1  0
 14 23  1  0
 14 15  1  0
 15 16  2  0
 15 17  1  0
 17 18  1  0
 18 22  1  0
 18 19  1  0
 18 58  1  6
 19 20  1  0
 19 59  1  0
 19 60  1  0
 20 39  1  0
 20 21  1  0
 20 61  1  1
 21 22  1  0
 21 39  1  0
 21 62  1  1
 22 23  1  0
 22 63  1  6
 23 24  1  0
 23 64  1  6
 24 38  1  0
 24 25  1  0
 24 65  1  6
 25 26  1  0
 25 27  1  0
 25 66  1  6
 26 67  1  0
 26 68  1  0
 26 69  1  0
 27 28  1  1
 27 38  1  0
 28 29  1  0
 28 70  1  0
 28 71  1  0
 29 30  1  0
 30 31  2  0
 30 32  1  0
 32 37  1  0
 32 33  2  0
 33 34  1  0
 33 72  1  0
 34 35  2  0
 34 73  1  0
 35 36  1  0
 35 74  1  0
 36 37  2  0
 36 75  1  0
 37 76  1  0
 38 77  1  1
 39 40  1  0
 39 41  1  0
 40 78  1  0
 40 79  1  0
 40 80  1  0
 41 81  1  0
 41 82  1  0
 41 83  1  0
M  END
>  <i_m_ct_stereo_status>  (129) 
1

>  <s_m_source_file>  (129) 
/var/tmp/pbs.5076255.sched01/tmp06yssb5m/4267g10r58.sdf

>  <i_m_source_file_index>  (129) 
18

>  <i_lp_mmshare_version>  (129) 
48012

>  <i_f3d_flags>  (129) 
0

>  <s_epik_input>  (129) 
W0NIM11DMShbQ0gzXSlbQ0BASF0yW0NASF0xW0NIMl1bQ0BASF0oT0MzPU8pW0NASF0yW0NASF0oW0NASF00W0NASF01W0NIM10pQzM9W0NIXUMoPU8pW0NAXShbQ0gzXSkoW0NASF0oW0NIMl02KVtDQEBIXShbQ0gyXTcpT1tDSDNdKVtDQEhdNFtDQF01KFtDQEBdNjdbQ0gzXSlbQ0gyXU9DKD1PKWM4W2NIXVtjSF1bY0hdW2NIXVtjSF04

>  <s_epik_cmdline>  (129) 
J2VwaWtfcHl0aG9uJywgJy1waHQnLCAnMi4wJywgJy1waCcsICc3LjAnLCAnLXRuJywgJzgnLCAnLW1hJywgJzIwMCcsICctaW1hZScsICc8aW5maWxlLm1hZT4nLCAnLW9tYWUnLCAnPG91dGZpbGUubWFlPic=

>  <r_lp_tautomer_probability>  (129) 
1

>  <r_epik_Ionization_Penalty>  (129) 
3.27729e-11

>  <r_epik_Ionization_Penalty_Charging>  (129) 
0

>  <r_epik_Ionization_Penalty_Neutral>  (129) 
3.27729e-11

>  <r_epik_State_Penalty>  (129) 
-0

>  <r_epik_Charging_Adjusted_Penalty>  (129) 
0

>  <i_epik_Tot_Q>  (129) 
0

>  <i_epik_Tot_abs_Q>  (129) 
0

>  <s_epik_Chemistry_Notes>  (129) 
This compound has an ester and may undergo hydrolysis at high or low pH.

>  <s_lp_Force_Field>  (129) 
OPLS3e

>  <r_lp_Energy>  (129) 
111.255

>  <b_lp_Chiralities_Consistent>  (129) 
1

>  <s_lp_Variant>  (129) 
42:0-1

>  <s_i_glide_gridfile>  (129) 
pfpi4k_grid

>  <i_i_glide_lignum>  (129) 
18

>  <i_i_glide_rotatable_bonds>  (129) 
5

>  <r_i_docking_score>  (129) 
-2.06296

>  <r_i_glide_ligand_efficiency>  (129) 
-0.0503162

>  <r_i_glide_ligand_efficiency_sa>  (129) 
-0.173501

>  <r_i_glide_ligand_efficiency_ln>  (129) 
-0.437664

>  <r_i_glide_gscore>  (129) 
-2.06296

>  <r_i_glide_lipo>  (129) 
-0.521071

>  <r_i_glide_hbond>  (129) 
0

>  <r_i_glide_metal>  (129) 
-0

>  <r_i_glide_rewards>  (129) 
-0.0626757

>  <r_i_glide_evdw>  (129) 
-30.4366

>  <r_i_glide_ecoul>  (129) 
-0.510143

>  <r_i_glide_erotb>  (129) 
0.121555

>  <r_i_glide_esite>  (129) 
-0.00241856

>  <r_i_glide_emodel>  (129) 
-33.3526

>  <r_i_glide_energy>  (129) 
-30.9468

>  <r_i_glide_einternal>  (129) 
1.93786

>  <r_i_glide_intrahb_reward>  (129) 
-0

>  <i_i_glide_confnum>  (129) 
2

>  <i_i_glide_posenum>  (129) 
17

>  <r_i_glide_eff_state_penalty>  (129) 
0

>  <ligand_id>  (129) 
42

>  <original_smiles>  (129) 
COC1CC2(C)CC1C1(C)C(=O)C=C3C(=O)OC4CC5C(C4C3C3C(C)C2(COC(=O)c2ccccc2)C31)C5(C)C

>  <smiles>  (129) 
[H]C1=C2C(=O)OC3([H])C([H])([H])C4([H])C([H])(C3([H])C2([H])C2([H])C([H])(C([H])([H])[H])C3(C([H])([H])OC(=O)c5c([H])c([H])c([H])c([H])c5[H])C2([H])C(C([H])([H])[H])(C1=O)C1([H])C([H])([H])C3(C([H])([H])[H])C([H])([H])C1([H])OC([H])([H])[H])C4(C([H])([H])[H])C([H])([H])[H]

$$$$
42:0:1
     RDKit          3D

 83 90  0  0  1  0  0  0  0  0999 V2000
    3.2617   -4.4416    6.0393 C   0  0  0  0  0  0  0  0  0  0  0  0
    4.0986   -3.3875    5.5687 O   0  0  0  0  0  0  0  0  0  0  0  0
    3.4216   -2.1584    5.3067 C   0  0  2  0  0  0  0  0  0  0  0  0
    2.7370   -2.2299    3.9318 C   0  0  0  0  0  0  0  0  0  0  0  0
    3.7195   -1.6034    2.9024 C   0  0  2  0  0  0  0  0  0  0  0  0
    3.9150   -2.6451    1.7820 C   0  0  0  0  0  0  0  0  0  0  0  0
    5.0064   -1.4349    3.7621 C   0  0  0  0  0  0  0  0  0  0  0  0
    4.4413   -1.0009    5.1352 C   0  0  1  0  0  0  0  0  0  0  0  0
    3.7524    0.4348    5.0921 C   0  0  1  0  0  0  0  0  0  0  0  0
    2.5325    0.4780    6.0752 C   0  0  0  0  0  0  0  0  0  0  0  0
    4.5586    1.6667    5.5820 C   0  0  0  0  0  0  0  0  0  0  0  0
    5.5524    1.4773    6.2776 O   0  0  0  0  0  0  0  0  0  0  0  0
    4.1387    3.0866    5.2805 C   0  0  0  0  0  0  0  0  0  0  0  0
    3.3121    3.6656    4.3390 C   0  0  0  0  0  0  0  0  0  0  0  0
    3.2913    5.1769    4.3711 C   0  0  0  0  0  0  0  0  0  0  0  0
    4.0774    5.8484    5.0372 O   0  0  0  0  0  0  0  0  0  0  0  0
    2.3706    5.8291    3.6234 O   0  0  0  0  0  0  0  0  0  0  0  0
    1.4042    5.2491    2.7683 C   0  0  2  0  0  0  0  0  0  0  0  0
    0.0653    5.9512    3.1002 C   0  0  0  0  0  0  0  0  0  0  0  0
   -0.5931    5.0798    4.1567 C   0  0  2  0  0  0  0  0  0  0  0  0
    0.1072    3.7248    4.1396 C   0  0  2  0  0  0  0  0  0  0  0  0
    1.1488    3.7650    3.0359 C   0  0  2  0  0  0  0  0  0  0  0  0
    2.4590    3.0161    3.2164 C   0  0  2  0  0  0  0  0  0  0  0  0
    2.2098    1.5215    3.3939 C   0  0  1  0  0  0  0  0  0  0  0  0
    1.8763    0.4312    2.3518 C   0  0  1  0  0  0  0  0  0  0  0  0
    1.3790    0.9545    1.0805 C   0  0  0  0  0  0  0  0  0  0  0  0
    3.3328   -0.1548    2.4196 C   0  0  2  0  0  0  0  0  0  0  0  0
    4.2072    0.2356    1.1561 C   0  0  0  0  0  0  0  0  0  0  0  0
    3.9537   -0.5133   -0.0378 O   0  0  0  0  0  0  0  0  0  0  0  0
    4.9554   -1.1235   -0.7342 C   0  0  0  0  0  0  0  0  0  0  0  0
    6.1436   -1.0472   -0.4211 O   0  0  0  0  0  0  0  0  0  0  0  0
    4.4642   -2.0066   -1.8310 C   0  0  0  0  0  0  0  0  0  0  0  0
    3.0920   -2.0754   -2.1143 C   0  0  0  0  0  0  0  0  0  0  0  0
    2.5964   -2.8659   -3.1705 C   0  0  0  0  0  0  0  0  0  0  0  0
    3.5039   -3.5855   -3.9203 C   0  0  0  0  0  0  0  0  0  0  0  0
    4.8769   -3.5803   -3.6382 C   0  0  0  0  0  0  0  0  0  0  0  0
    5.3604   -2.7805   -2.5774 C   0  0  0  0  0  0  0  0  0  0  0  0
    3.4851    0.8014    3.6269 C   0  0  2  0  0  0  0  0  0  0  0  0
   -1.3936    3.8167    3.9145 C   0  0  0  0  0  0  0  0  0  0  0  0
   -2.2945    3.2942    5.0162 C   0  0  0  0  0  0  0  0  0  0  0  0
   -2.0345    3.5446    2.5652 C   0  0  0  0  0  0  0  0  0  0  0  0
    3.8507   -5.3504    6.1629 H   0  0  0  0  0  0  0  0  0  0  0  0
    2.4489   -4.6770    5.3523 H   0  0  0  0  0  0  0  0  0  0  0  0
    2.8261   -4.1987    7.0086 H   0  0  0  0  0  0  0  0  0  0  0  0
    2.7135   -2.0108    6.1178 H   0  0  0  0  0  0  0  0  0  0  0  0
    2.5135   -3.2627    3.6733 H   0  0  0  0  0  0  0  0  0  0  0  0
    1.7714   -1.7384    3.9691 H   0  0  0  0  0  0  0  0  0  0  0  0
    4.8297   -2.4486    1.2535 H   0  0  0  0  0  0  0  0  0  0  0  0
    3.0628   -2.6638    1.0940 H   0  0  0  0  0  0  0  0  0  0  0  0
    4.0940   -3.6519    2.1443 H   0  0  0  0  0  0  0  0  0  0  0  0
    5.5380   -2.3848    3.8427 H   0  0  0  0  0  0  0  0  0  0  0  0
    5.7375   -0.7244    3.3736 H   0  0  0  0  0  0  0  0  0  0  0  0
    5.2089   -1.0430    5.9065 H   0  0  0  0  0  0  0  0  0  0  0  0
    1.6863   -0.1060    5.7207 H   0  0  0  0  0  0  0  0  0  0  0  0
    2.1420    1.4823    6.2623 H   0  0  0  0  0  0  0  0  0  0  0  0
    2.8163    0.0884    7.0537 H   0  0  0  0  0  0  0  0  0  0  0  0
    4.6469    3.7641    5.9472 H   0  0  0  0  0  0  0  0  0  0  0  0
    1.7499    5.3860    1.7437 H   0  0  0  0  0  0  0  0  0  0  0  0
    0.2093    6.9715    3.4930 H   0  0  0  0  0  0  0  0  0  0  0  0
   -0.5809    6.0187    2.2151 H   0  0  0  0  0  0  0  0  0  0  0  0
   -0.7538    5.5845    5.1082 H   0  0  0  0  0  0  0  0  0  0  0  0
    0.4464    3.3048    5.0845 H   0  0  0  0  0  0  0  0  0  0  0  0
    0.7028    3.2584    2.1883 H   0  0  0  0  0  0  0  0  0  0  0  0
    3.0156    3.1655    2.2832 H   0  0  0  0  0  0  0  0  0  0  0  0
    1.4352    1.3859    4.1350 H   0  0  0  0  0  0  0  0  0  0  0  0
    1.1522   -0.3005    2.6912 H   0  0  0  0  0  0  0  0  0  0  0  0
    2.0343    1.7946    0.8832 H   0  0  0  0  0  0  0  0  0  0  0  0
    0.3246    1.2624    1.0295 H   0  0  0  0  0  0  0  0  0  0  0  0
    1.6335    0.2135    0.3727 H   0  0  0  0  0  0  0  0  0  0  0  0
    4.0319    1.2791    0.8860 H   0  0  0  0  0  0  0  0  0  0  0  0
    5.2674    0.2015    1.3763 H   0  0  0  0  0  0  0  0  0  0  0  0
    2.4055   -1.5295   -1.5418 H   0  0  0  0  0  0  0  0  0  0  0  0
    1.5356   -2.8900   -3.3781 H   0  0  0  0  0  0  0  0  0  0  0  0
    3.1366   -4.2003   -4.7070 H   0  0  0  0  0  0  0  0  0  0  0  0
    5.5473   -4.1600   -4.2370 H   0  0  0  0  0  0  0  0  0  0  0  0
    6.4184   -2.7842   -2.3770 H   0  0  0  0  0  0  0  0  0  0  0  0
    4.3113    1.3829    3.2228 H   0  0  0  0  0  0  0  0  0  0  0  0
   -2.4259    2.2197    4.9155 H   0  0  0  0  0  0  0  0  0  0  0  0
   -3.2888    3.7200    4.9630 H   0  0  0  0  0  0  0  0  0  0  0  0
   -1.8756    3.5142    6.0014 H   0  0  0  0  0  0  0  0  0  0  0  0
   -2.0863    2.4819    2.3438 H   0  0  0  0  0  0  0  0  0  0  0  0
   -1.4433    3.9664    1.7935 H   0  0  0  0  0  0  0  0  0  0  0  0
   -3.0083    4.0150    2.4590 H   0  0  0  0  0  0  0  0  0  0  0  0
  1  2  1  0
  1 42  1  0
  1 43  1  0
  1 44  1  0
  2  3  1  0
  3  8  1  0
  3  4  1  0
  3 45  1  1
  4  5  1  0
  4 46  1  0
  4 47  1  0
  5 27  1  0
  5  6  1  6
  5  7  1  0
  6 48  1  0
  6 49  1  0
  6 50  1  0
  7  8  1  0
  7 51  1  0
  7 52  1  0
  8  9  1  0
  8 53  1  1
  9 38  1  0
  9 10  1  1
  9 11  1  0
 10 54  1  0
 10 55  1  0
 10 56  1  0
 11 12  2  0
 11 13  1  0
 13 14  2  0
 13 57  1  0
 14 23  1  0
 14 15  1  0
 15 16  2  0
 15 17  1  0
 17 18  1  0
 18 22  1  0
 18 19  1  0
 18 58  1  6
 19 20  1  0
 19 59  1  0
 19 60  1  0
 20 39  1  0
 20 21  1  0
 20 61  1  1
 21 22  1  0
 21 39  1  0
 21 62  1  1
 22 23  1  0
 22 63  1  6
 23 24  1  0
 23 64  1  6
 24 38  1  0
 24 25  1  0
 24 65  1  1
 25 26  1  0
 25 27  1  0
 25 66  1  1
 26 67  1  0
 26 68  1  0
 26 69  1  0
 27 28  1  6
 27 38  1  0
 28 29  1  0
 28 70  1  0
 28 71  1  0
 29 30  1  0
 30 31  2  0
 30 32  1  0
 32 37  1  0
 32 33  2  0
 33 34  1  0
 33 72  1  0
 34 35  2  0
 34 73  1  0
 35 36  1  0
 35 74  1  0
 36 37  2  0
 36 75  1  0
 37 76  1  0
 38 77  1  6
 39 40  1  0
 39 41  1  0
 40 78  1  0
 40 79  1  0
 40 80  1  0
 41 81  1  0
 41 82  1  0
 41 83  1  0
M  END
>  <i_m_ct_stereo_status>  (130) 
1

>  <s_m_source_file>  (130) 
/var/tmp/pbs.5076255.sched01/tmp06yssb5m/4267g10r58.sdf

>  <i_m_source_file_index>  (130) 
18

>  <i_lp_mmshare_version>  (130) 
48012

>  <i_f3d_flags>  (130) 
0

>  <s_epik_input>  (130) 
W0NIM11DMShbQ0gzXSlbQ0BASF0yW0NASF0xW0NIMl1bQ0BASF0oT0MzPU8pW0NASF0yW0NASF0oW0NASF00W0NASF01W0NIM10pQzM9W0NIXUMoPU8pW0NAXShbQ0gzXSkoW0NASF0oW0NIMl02KVtDQEBIXShbQ0gyXTcpT1tDSDNdKVtDQEhdNFtDQF01KFtDQEBdNjdbQ0gzXSlbQ0gyXU9DKD1PKWM4W2NIXVtjSF1bY0hdW2NIXVtjSF04

>  <s_epik_cmdline>  (130) 
J2VwaWtfcHl0aG9uJywgJy1waHQnLCAnMi4wJywgJy1waCcsICc3LjAnLCAnLXRuJywgJzgnLCAnLW1hJywgJzIwMCcsICctaW1hZScsICc8aW5maWxlLm1hZT4nLCAnLW9tYWUnLCAnPG91dGZpbGUubWFlPic=

>  <r_lp_tautomer_probability>  (130) 
1

>  <r_epik_Ionization_Penalty>  (130) 
3.27729e-11

>  <r_epik_Ionization_Penalty_Charging>  (130) 
0

>  <r_epik_Ionization_Penalty_Neutral>  (130) 
3.27729e-11

>  <r_epik_State_Penalty>  (130) 
-0

>  <r_epik_Charging_Adjusted_Penalty>  (130) 
0

>  <i_epik_Tot_Q>  (130) 
0

>  <i_epik_Tot_abs_Q>  (130) 
0

>  <s_epik_Chemistry_Notes>  (130) 
This compound has an ester and may undergo hydrolysis at high or low pH.

>  <s_lp_Force_Field>  (130) 
OPLS3e

>  <r_lp_Energy>  (130) 
111.255

>  <b_lp_Chiralities_Consistent>  (130) 
1

>  <s_lp_Variant>  (130) 
42:0-1

>  <s_i_glide_gridfile>  (130) 
pfpi4k_grid

>  <i_i_glide_lignum>  (130) 
18

>  <i_i_glide_rotatable_bonds>  (130) 
5

>  <r_i_docking_score>  (130) 
-1.09346

>  <r_i_glide_ligand_efficiency>  (130) 
-0.0266698

>  <r_i_glide_ligand_efficiency_sa>  (130) 
-0.0919634

>  <r_i_glide_ligand_efficiency_ln>  (130) 
-0.231982

>  <r_i_glide_gscore>  (130) 
-1.09346

>  <r_i_glide_lipo>  (130) 
-0.624743

>  <r_i_glide_hbond>  (130) 
-0.064362

>  <r_i_glide_metal>  (130) 
-0

>  <r_i_glide_rewards>  (130) 
-0.000749492

>  <r_i_glide_evdw>  (130) 
3.62402

>  <r_i_glide_ecoul>  (130) 
-4.41722

>  <r_i_glide_erotb>  (130) 
0.121555

>  <r_i_glide_esite>  (130) 
-0.0437815

>  <r_i_glide_emodel>  (130) 
1.05362

>  <r_i_glide_energy>  (130) 
-0.793206

>  <r_i_glide_einternal>  (130) 
2.44892

>  <r_i_glide_intrahb_reward>  (130) 
-0

>  <i_i_glide_confnum>  (130) 
2

>  <i_i_glide_posenum>  (130) 
3

>  <r_i_glide_eff_state_penalty>  (130) 
0

>  <ligand_id>  (130) 
42

>  <original_smiles>  (130) 
COC1CC2(C)CC1C1(C)C(=O)C=C3C(=O)OC4CC5C(C4C3C3C(C)C2(COC(=O)c2ccccc2)C31)C5(C)C

>  <smiles>  (130) 
[H]C1=C2C(=O)OC3([H])C([H])([H])C4([H])C([H])(C3([H])C2([H])C2([H])C([H])(C([H])([H])[H])C3(C([H])([H])OC(=O)c5c([H])c([H])c([H])c([H])c5[H])C2([H])C(C([H])([H])[H])(C1=O)C1([H])C([H])([H])C3(C([H])([H])[H])C([H])([H])C1([H])OC([H])([H])[H])C4(C([H])([H])[H])C([H])([H])[H]

$$$$
42:0:2
     RDKit          3D

 83 90  0  0  1  0  0  0  0  0999 V2000
    9.5237   -7.9786    7.8844 C   0  0  0  0  0  0  0  0  0  0  0  0
    8.9992   -6.6911    7.5708 O   0  0  0  0  0  0  0  0  0  0  0  0
    7.5764   -6.6281    7.4911 C   0  0  2  0  0  0  0  0  0  0  0  0
    7.0920   -7.1482    6.1228 C   0  0  0  0  0  0  0  0  0  0  0  0
    6.8954   -5.9126    5.1869 C   0  0  2  0  0  0  0  0  0  0  0  0
    7.6942   -6.1634    3.8810 C   0  0  0  0  0  0  0  0  0  0  0  0
    7.5373   -4.8010    6.0623 C   0  0  0  0  0  0  0  0  0  0  0  0
    7.0992   -5.1538    7.4976 C   0  0  1  0  0  0  0  0  0  0  0  0
    5.5320   -5.0068    7.6884 C   0  0  1  0  0  0  0  0  0  0  0  0
    5.0117   -6.0961    8.6726 C   0  0  0  0  0  0  0  0  0  0  0  0
    4.9951   -3.7103    8.3507 C   0  0  0  0  0  0  0  0  0  0  0  0
    5.7883   -3.0278    8.9902 O   0  0  0  0  0  0  0  0  0  0  0  0
    3.5389   -3.2917    8.2830 C   0  0  0  0  0  0  0  0  0  0  0  0
    2.4768   -3.6555    7.4750 C   0  0  0  0  0  0  0  0  0  0  0  0
    1.1913   -2.9136    7.7478 C   0  0  0  0  0  0  0  0  0  0  0  0
    1.1262   -1.9507    8.5067 O   0  0  0  0  0  0  0  0  0  0  0  0
    0.0539   -3.2965    7.1109 O   0  0  0  0  0  0  0  0  0  0  0  0
   -0.0939   -4.3555    6.1728 C   0  0  2  0  0  0  0  0  0  0  0  0
   -1.2944   -5.1682    6.6479 C   0  0  0  0  0  0  0  0  0  0  0  0
   -0.6976   -6.2379    7.5507 C   0  0  2  0  0  0  0  0  0  0  0  0
    0.7721   -6.3667    7.2757 C   0  0  2  0  0  0  0  0  0  0  0  0
    1.0640   -5.3644    6.1844 C   0  0  2  0  0  0  0  0  0  0  0  0
    2.4075   -4.6402    6.2706 C   0  0  2  0  0  0  0  0  0  0  0  0
    3.5556   -5.6287    6.2160 C   0  0  1  0  0  0  0  0  0  0  0  0
    4.1355   -6.3758    5.0188 C   0  0  1  0  0  0  0  0  0  0  0  0
    3.2549   -6.6046    3.8454 C   0  0  0  0  0  0  0  0  0  0  0  0
    5.4009   -5.4650    4.9576 C   0  0  2  0  0  0  0  0  0  0  0  0
    5.3401   -4.4396    3.7480 C   0  0  0  0  0  0  0  0  0  0  0  0
    5.1556   -5.0442    2.4486 O   0  0  0  0  0  0  0  0  0  0  0  0
    5.1048   -4.2741    1.3341 C   0  0  0  0  0  0  0  0  0  0  0  0
    5.9848   -3.4402    1.0457 O   0  0  0  0  0  0  0  0  0  0  0  0
    3.8358   -4.5111    0.5435 C   0  0  0  0  0  0  0  0  0  0  0  0
    3.0351   -5.6658    0.7818 C   0  0  0  0  0  0  0  0  0  0  0  0
    1.7781   -5.8216    0.1589 C   0  0  0  0  0  0  0  0  0  0  0  0
    1.3921   -4.8892   -0.8035 C   0  0  0  0  0  0  0  0  0  0  0  0
    2.1919   -3.7901   -1.1206 C   0  0  0  0  0  0  0  0  0  0  0  0
    3.4371   -3.5692   -0.4313 C   0  0  0  0  0  0  0  0  0  0  0  0
    4.8652   -4.9471    6.3124 C   0  0  2  0  0  0  0  0  0  0  0  0
   -0.1316   -7.5634    7.0850 C   0  0  0  0  0  0  0  0  0  0  0  0
   -0.0426   -8.6828    8.1070 C   0  0  0  0  0  0  0  0  0  0  0  0
   -0.4254   -8.1281    5.6950 C   0  0  0  0  0  0  0  0  0  0  0  0
   10.6123   -7.9548    7.8529 H   0  0  0  0  0  0  0  0  0  0  0  0
    9.2041   -8.7582    7.1947 H   0  0  0  0  0  0  0  0  0  0  0  0
    9.2311   -8.2804    8.8882 H   0  0  0  0  0  0  0  0  0  0  0  0
    7.2011   -7.2228    8.3179 H   0  0  0  0  0  0  0  0  0  0  0  0
    7.8004   -7.8577    5.6950 H   0  0  0  0  0  0  0  0  0  0  0  0
    6.1825   -7.7180    6.2579 H   0  0  0  0  0  0  0  0  0  0  0  0
    7.8371   -5.2842    3.2563 H   0  0  0  0  0  0  0  0  0  0  0  0
    7.1990   -6.9100    3.2600 H   0  0  0  0  0  0  0  0  0  0  0  0
    8.7026   -6.5270    4.0943 H   0  0  0  0  0  0  0  0  0  0  0  0
    8.6166   -4.8742    6.0038 H   0  0  0  0  0  0  0  0  0  0  0  0
    7.2650   -3.7843    5.7811 H   0  0  0  0  0  0  0  0  0  0  0  0
    7.6561   -4.5915    8.2536 H   0  0  0  0  0  0  0  0  0  0  0  0
    5.0172   -7.0961    8.2410 H   0  0  0  0  0  0  0  0  0  0  0  0
    3.9915   -5.9161    9.0179 H   0  0  0  0  0  0  0  0  0  0  0  0
    5.6247   -6.1164    9.5751 H   0  0  0  0  0  0  0  0  0  0  0  0
    3.3076   -2.5756    9.0648 H   0  0  0  0  0  0  0  0  0  0  0  0
   -0.2472   -3.9387    5.1715 H   0  0  0  0  0  0  0  0  0  0  0  0
   -2.0509   -4.5748    7.1594 H   0  0  0  0  0  0  0  0  0  0  0  0
   -1.7759   -5.7030    5.8373 H   0  0  0  0  0  0  0  0  0  0  0  0
   -1.0223   -6.1767    8.5821 H   0  0  0  0  0  0  0  0  0  0  0  0
    1.3938   -6.3289    8.1695 H   0  0  0  0  0  0  0  0  0  0  0  0
    1.0398   -5.9153    5.2460 H   0  0  0  0  0  0  0  0  0  0  0  0
    2.4481   -4.0100    5.3749 H   0  0  0  0  0  0  0  0  0  0  0  0
    3.4014   -6.4369    6.9267 H   0  0  0  0  0  0  0  0  0  0  0  0
    4.4518   -7.3572    5.3436 H   0  0  0  0  0  0  0  0  0  0  0  0
    2.8865   -5.6500    3.4737 H   0  0  0  0  0  0  0  0  0  0  0  0
    2.4176   -7.2890    3.9920 H   0  0  0  0  0  0  0  0  0  0  0  0
    3.9331   -7.0890    3.1484 H   0  0  0  0  0  0  0  0  0  0  0  0
    4.4879   -3.7718    3.8724 H   0  0  0  0  0  0  0  0  0  0  0  0
    6.1824   -3.7287    3.7383 H   0  0  0  0  0  0  0  0  0  0  0  0
    3.3440   -6.5003    1.4023 H   0  0  0  0  0  0  0  0  0  0  0  0
    1.1899   -6.6798    0.4042 H   0  0  0  0  0  0  0  0  0  0  0  0
    0.4401   -5.0504   -1.3852 H   0  0  0  0  0  0  0  0  0  0  0  0
    1.8840   -3.0922   -1.9032 H   0  0  0  0  0  0  0  0  0  0  0  0
    4.0486   -2.6928   -0.6818 H   0  0  0  0  0  0  0  0  0  0  0  0
    4.7377   -3.9117    6.0065 H   0  0  0  0  0  0  0  0  0  0  0  0
    0.7713   -9.3652    7.8600 H   0  0  0  0  0  0  0  0  0  0  0  0
   -0.9726   -9.2500    8.1255 H   0  0  0  0  0  0  0  0  0  0  0  0
    0.1419   -8.2978    9.1144 H   0  0  0  0  0  0  0  0  0  0  0  0
    0.4121   -8.7381    5.3609 H   0  0  0  0  0  0  0  0  0  0  0  0
   -0.5910   -7.3274    4.9816 H   0  0  0  0  0  0  0  0  0  0  0  0
   -1.3256   -8.7481    5.7007 H   0  0  0  0  0  0  0  0  0  0  0  0
  1  2  1  0
  1 42  1  0
  1 43  1  0
  1 44  1  0
  2  3  1  0
  3  8  1  0
  3  4  1  0
  3 45  1  1
  4  5  1  0
  4 46  1  0
  4 47  1  0
  5 27  1  0
  5  6  1  6
  5  7  1  0
  6 48  1  0
  6 49  1  0
  6 50  1  0
  7  8  1  0
  7 51  1  0
  7 52  1  0
  8  9  1  0
  8 53  1  1
  9 38  1  0
  9 10  1  1
  9 11  1  0
 10 54  1  0
 10 55  1  0
 10 56  1  0
 11 12  2  0
 11 13  1  0
 13 14  2  0
 13 57  1  0
 14 23  1  0
 14 15  1  0
 15 16  2  0
 15 17  1  0
 17 18  1  0
 18 22  1  0
 18 19  1  0
 18 58  1  6
 19 20  1  0
 19 59  1  0
 19 60  1  0
 20 39  1  0
 20 21  1  0
 20 61  1  1
 21 22  1  0
 21 39  1  0
 21 62  1  1
 22 23  1  0
 22 63  1  6
 23 24  1  0
 23 64  1  6
 24 38  1  0
 24 25  1  0
 24 65  1  1
 25 26  1  0
 25 27  1  0
 25 66  1  1
 26 67  1  0
 26 68  1  0
 26 69  1  0
 27 28  1  6
 27 38  1  0
 28 29  1  0
 28 70  1  0
 28 71  1  0
 29 30  1  0
 30 31  2  0
 30 32  1  0
 32 37  1  0
 32 33  2  0
 33 34  1  0
 33 72  1  0
 34 35  2  0
 34 73  1  0
 35 36  1  0
 35 74  1  0
 36 37  2  0
 36 75  1  0
 37 76  1  0
 38 77  1  6
 39 40  1  0
 39 41  1  0
 40 78  1  0
 40 79  1  0
 40 80  1  0
 41 81  1  0
 41 82  1  0
 41 83  1  0
M  END
>  <i_m_ct_stereo_status>  (131) 
1

>  <s_m_source_file>  (131) 
/var/tmp/pbs.5076255.sched01/tmp06yssb5m/4267g10r58.sdf

>  <i_m_source_file_index>  (131) 
18

>  <i_lp_mmshare_version>  (131) 
48012

>  <i_f3d_flags>  (131) 
0

>  <s_epik_input>  (131) 
W0NIM11DMShbQ0gzXSlbQ0BASF0yW0NASF0xW0NIMl1bQ0BASF0oT0MzPU8pW0NASF0yW0NASF0oW0NASF00W0NASF01W0NIM10pQzM9W0NIXUMoPU8pW0NAXShbQ0gzXSkoW0NASF0oW0NIMl02KVtDQEBIXShbQ0gyXTcpT1tDSDNdKVtDQEhdNFtDQF01KFtDQEBdNjdbQ0gzXSlbQ0gyXU9DKD1PKWM4W2NIXVtjSF1bY0hdW2NIXVtjSF04

>  <s_epik_cmdline>  (131) 
J2VwaWtfcHl0aG9uJywgJy1waHQnLCAnMi4wJywgJy1waCcsICc3LjAnLCAnLXRuJywgJzgnLCAnLW1hJywgJzIwMCcsICctaW1hZScsICc8aW5maWxlLm1hZT4nLCAnLW9tYWUnLCAnPG91dGZpbGUubWFlPic=

>  <r_lp_tautomer_probability>  (131) 
1

>  <r_epik_Ionization_Penalty>  (131) 
3.27729e-11

>  <r_epik_Ionization_Penalty_Charging>  (131) 
0

>  <r_epik_Ionization_Penalty_Neutral>  (131) 
3.27729e-11

>  <r_epik_State_Penalty>  (131) 
-0

>  <r_epik_Charging_Adjusted_Penalty>  (131) 
0

>  <i_epik_Tot_Q>  (131) 
0

>  <i_epik_Tot_abs_Q>  (131) 
0

>  <s_epik_Chemistry_Notes>  (131) 
This compound has an ester and may undergo hydrolysis at high or low pH.

>  <s_lp_Force_Field>  (131) 
OPLS3e

>  <r_lp_Energy>  (131) 
111.255

>  <b_lp_Chiralities_Consistent>  (131) 
1

>  <s_lp_Variant>  (131) 
42:0-1

>  <s_i_glide_gridfile>  (131) 
pfpi4k_grid

>  <i_i_glide_lignum>  (131) 
18

>  <i_i_glide_rotatable_bonds>  (131) 
5

>  <r_i_docking_score>  (131) 
-0.29325

>  <r_i_glide_ligand_efficiency>  (131) 
-0.00715243

>  <r_i_glide_ligand_efficiency_sa>  (131) 
-0.0246631

>  <r_i_glide_ligand_efficiency_ln>  (131) 
-0.0622139

>  <r_i_glide_gscore>  (131) 
-0.29325

>  <r_i_glide_lipo>  (131) 
-0.124948

>  <r_i_glide_hbond>  (131) 
0

>  <r_i_glide_metal>  (131) 
-0

>  <r_i_glide_rewards>  (131) 
-0.0470103

>  <r_i_glide_evdw>  (131) 
-3.84621

>  <r_i_glide_ecoul>  (131) 
-0.310739

>  <r_i_glide_erotb>  (131) 
0.121555

>  <r_i_glide_esite>  (131) 
-0.00392557

>  <r_i_glide_emodel>  (131) 
3.93226

>  <r_i_glide_energy>  (131) 
-4.15695

>  <r_i_glide_einternal>  (131) 
12.3116

>  <r_i_glide_intrahb_reward>  (131) 
-0

>  <i_i_glide_confnum>  (131) 
2

>  <i_i_glide_posenum>  (131) 
7

>  <r_i_glide_eff_state_penalty>  (131) 
0

>  <ligand_id>  (131) 
42

>  <original_smiles>  (131) 
COC1CC2(C)CC1C1(C)C(=O)C=C3C(=O)OC4CC5C(C4C3C3C(C)C2(COC(=O)c2ccccc2)C31)C5(C)C

>  <smiles>  (131) 
[H]C1=C2C(=O)OC3([H])C([H])([H])C4([H])C([H])(C3([H])C2([H])C2([H])C([H])(C([H])([H])[H])C3(C([H])([H])OC(=O)c5c([H])c([H])c([H])c([H])c5[H])C2([H])C(C([H])([H])[H])(C1=O)C1([H])C([H])([H])C3(C([H])([H])[H])C([H])([H])C1([H])OC([H])([H])[H])C4(C([H])([H])[H])C([H])([H])[H]

$$$$
43:0:0
     RDKit          3D

 86 95  0  0  1  0  0  0  0  0999 V2000
    5.1210   -1.5337    5.2682 C   0  0  0  0  0  0  0  0  0  0  0  0
    4.7632   -2.5639    4.3468 O   0  0  0  0  0  0  0  0  0  0  0  0
    3.4308   -2.6232    3.8069 C   0  0  1  0  0  0  0  0  0  0  0  0
    2.6606   -1.2523    3.8374 C   0  0  2  0  0  0  0  0  0  0  0  0
    1.8225   -0.6526    4.9767 C   0  0  0  0  0  0  0  0  0  0  0  0
    0.9147    0.3698    4.2503 C   0  0  0  0  0  0  0  0  0  0  0  0
    0.9062   -0.0074    2.7488 C   0  0  0  0  0  0  0  0  0  0  0  0
    1.6430   -1.3492    2.7310 C   0  0  1  0  0  0  0  0  0  0  0  0
    2.4441   -1.8976    1.5552 C   0  0  1  0  0  0  0  0  0  0  0  0
    3.0138   -0.8558    0.6810 N   0  0  0  0  0  0  0  0  0  0  0  0
    4.4003   -1.2363    0.4024 C   0  0  0  0  0  0  0  0  0  0  0  0
    4.8532   -1.8805    1.7097 C   0  0  0  0  0  0  0  0  0  0  0  0
    3.6172   -2.6865    2.2195 C   0  0  1  0  0  0  0  0  0  0  0  0
    3.6734   -4.1083    1.6445 C   0  0  0  0  0  0  0  0  0  0  0  0
    4.8106   -4.9606    2.2138 C   0  0  0  0  0  0  0  0  0  0  0  0
    4.2808   -6.3174    2.5738 C   0  0  1  0  0  0  0  0  0  0  0  0
    3.8401   -7.0697    1.4446 O   0  0  0  0  0  0  0  0  0  0  0  0
    4.8858   -7.4894    0.5721 C   0  0  0  0  0  0  0  0  0  0  0  0
    4.6900   -7.1774    3.7385 C   0  0  1  0  0  0  0  0  0  0  0  0
    4.6126   -8.5831    3.6095 O   0  0  0  0  0  0  0  0  0  0  0  0
    5.9335   -6.8500    4.5137 C   0  0  0  0  0  0  0  0  0  0  0  0
    5.6795   -6.9689    6.0035 C   0  0  0  0  0  0  0  0  0  0  0  0
    5.1448   -5.7194    6.6724 C   0  0  0  0  0  0  0  0  0  0  0  0
    5.6614   -5.2033    7.8779 C   0  0  0  0  0  0  0  0  0  0  0  0
    5.0817   -4.0647    8.4803 C   0  0  0  0  0  0  0  0  0  0  0  0
    4.0030   -3.4046    7.8674 C   0  0  0  0  0  0  0  0  0  0  0  0
    3.4613   -2.2929    8.4421 O   0  0  0  0  0  0  0  0  0  0  0  0
    3.4974   -3.8668    6.6352 C   0  0  0  0  0  0  0  0  0  0  0  0
    4.0554   -5.0120    6.0787 C   0  0  0  0  0  0  0  0  0  0  0  0
    3.1102   -5.2987    4.9054 C   0  0  2  0  0  0  0  0  0  0  0  0
    1.8997   -6.0023    5.5661 C   0  0  0  0  0  0  0  0  0  0  0  0
    1.0551   -6.4992    4.4098 C   0  0  0  0  0  0  0  0  0  0  0  0
    2.0161   -6.9954    3.4048 N   0  0  2  0  0  0  0  0  0  0  0  0
    1.8176   -8.4599    3.1428 C   0  0  0  0  0  0  0  0  0  0  0  0
    0.4377   -8.7877    2.5702 C   0  0  0  0  0  0  0  0  0  0  0  0
   -0.7080   -9.2492    3.4528 C   0  0  0  0  0  0  0  0  0  0  0  0
   -0.0451  -10.2311    2.5273 C   0  0  0  0  0  0  0  0  0  0  0  0
    3.3605   -6.3910    3.7964 C   0  0  1  0  0  0  0  0  0  0  0  0
    2.6067   -3.8016    4.5487 C   0  0  1  0  0  0  0  0  0  0  0  0
    2.4956   -3.3003    5.8917 O   0  0  0  0  0  0  0  0  0  0  0  0
    6.0797   -1.7902    5.7211 H   0  0  0  0  0  0  0  0  0  0  0  0
    4.4081   -1.4215    6.0792 H   0  0  0  0  0  0  0  0  0  0  0  0
    5.2290   -0.5598    4.7926 H   0  0  0  0  0  0  0  0  0  0  0  0
    3.3521   -0.4601    3.5485 H   0  0  0  0  0  0  0  0  0  0  0  0
    1.1786   -1.3871    5.4559 H   0  0  0  0  0  0  0  0  0  0  0  0
    2.4352   -0.1825    5.7444 H   0  0  0  0  0  0  0  0  0  0  0  0
   -0.0900    0.3589    4.6743 H   0  0  0  0  0  0  0  0  0  0  0  0
    1.2978    1.3829    4.3693 H   0  0  0  0  0  0  0  0  0  0  0  0
   -0.1084   -0.0865    2.3521 H   0  0  0  0  0  0  0  0  0  0  0  0
    1.4271    0.7590    2.1713 H   0  0  0  0  0  0  0  0  0  0  0  0
    0.9066   -2.1111    2.9905 H   0  0  0  0  0  0  0  0  0  0  0  0
    1.8216   -2.5417    0.9363 H   0  0  0  0  0  0  0  0  0  0  0  0
    2.4227   -0.7894   -0.1444 H   0  0  0  0  0  0  0  0  0  0  0  0
    4.4227   -1.9677   -0.4099 H   0  0  0  0  0  0  0  0  0  0  0  0
    5.0169   -0.3811    0.1074 H   0  0  0  0  0  0  0  0  0  0  0  0
    5.7515   -2.4842    1.5736 H   0  0  0  0  0  0  0  0  0  0  0  0
    5.1222   -1.0747    2.3966 H   0  0  0  0  0  0  0  0  0  0  0  0
    2.7081   -4.5786    1.8344 H   0  0  0  0  0  0  0  0  0  0  0  0
    3.7714   -4.0841    0.5581 H   0  0  0  0  0  0  0  0  0  0  0  0
    5.6610   -5.0261    1.5355 H   0  0  0  0  0  0  0  0  0  0  0  0
    5.2019   -4.5062    3.1187 H   0  0  0  0  0  0  0  0  0  0  0  0
    4.4844   -8.0795   -0.2498 H   0  0  0  0  0  0  0  0  0  0  0  0
    5.6179   -8.1117    1.0846 H   0  0  0  0  0  0  0  0  0  0  0  0
    5.4050   -6.6492    0.1150 H   0  0  0  0  0  0  0  0  0  0  0  0
    3.9071   -8.8142    3.0277 H   0  0  0  0  0  0  0  0  0  0  0  0
    6.7003   -7.5631    4.2028 H   0  0  0  0  0  0  0  0  0  0  0  0
    6.3346   -5.8668    4.2678 H   0  0  0  0  0  0  0  0  0  0  0  0
    5.0861   -7.8451    6.2638 H   0  0  0  0  0  0  0  0  0  0  0  0
    6.6644   -7.1308    6.4435 H   0  0  0  0  0  0  0  0  0  0  0  0
    6.4885   -5.6916    8.3740 H   0  0  0  0  0  0  0  0  0  0  0  0
    5.4618   -3.6968    9.4185 H   0  0  0  0  0  0  0  0  0  0  0  0
    2.7758   -1.9156    7.9161 H   0  0  0  0  0  0  0  0  0  0  0  0
    2.2507   -6.8774    6.1275 H   0  0  0  0  0  0  0  0  0  0  0  0
    1.3063   -5.4025    6.2601 H   0  0  0  0  0  0  0  0  0  0  0  0
    0.3599   -7.2479    4.7735 H   0  0  0  0  0  0  0  0  0  0  0  0
    0.4543   -5.6988    3.9742 H   0  0  0  0  0  0  0  0  0  0  0  0
    2.4984   -8.8375    2.3819 H   0  0  0  0  0  0  0  0  0  0  0  0
    1.9765   -9.0375    4.0562 H   0  0  0  0  0  0  0  0  0  0  0  0
    0.1798   -8.2164    1.6768 H   0  0  0  0  0  0  0  0  0  0  0  0
   -0.5233   -9.3737    4.5200 H   0  0  0  0  0  0  0  0  0  0  0  0
   -1.7063   -8.9039    3.1893 H   0  0  0  0  0  0  0  0  0  0  0  0
   -0.6522  -10.5651    1.6887 H   0  0  0  0  0  0  0  0  0  0  0  0
    0.5610  -11.0089    2.9873 H   0  0  0  0  0  0  0  0  0  0  0  0
    1.6086   -3.8484    4.1122 H   0  0  0  0  0  0  0  0  0  0  0  0
    3.0111    0.0227    1.1718 H   0  0  0  0  0  0  0  0  0  0  0  0
    1.7890   -6.5582    2.5228 H   0  0  0  0  0  0  0  0  0  0  0  0
  1  2  1  0
  1 41  1  0
  1 42  1  0
  1 43  1  0
  3  2  1  1
  3 13  1  0
  3 39  1  0
  3  4  1  0
  4  8  1  0
  4  5  1  0
  4 44  1  6
  5  6  1  0
  5 45  1  0
  5 46  1  0
  6  7  1  0
  6 47  1  0
  6 48  1  0
  7  8  1  0
  7 49  1  0
  7 50  1  0
  8  9  1  0
  8 51  1  1
  9 13  1  0
  9 10  1  0
  9 52  1  6
 10 11  1  0
 10 53  1  0
 10 85  1  0
 11 12  1  0
 11 54  1  0
 11 55  1  0
 13 12  1  1
 12 56  1  0
 12 57  1  0
 13 14  1  0
 14 15  1  0
 14 58  1  0
 14 59  1  0
 15 16  1  0
 15 60  1  0
 15 61  1  0
 38 16  1  6
 16 17  1  6
 16 19  1  0
 17 18  1  0
 18 62  1  0
 18 63  1  0
 18 64  1  0
 19 38  1  0
 19 20  1  6
 19 21  1  0
 20 65  1  0
 21 22  1  0
 21 66  1  0
 21 67  1  0
 22 23  1  0
 22 68  1  0
 22 69  1  0
 23 29  2  0
 23 24  1  0
 24 25  2  0
 24 70  1  0
 25 26  1  0
 25 71  1  0
 26 27  1  0
 26 28  2  0
 27 72  1  0
 28 40  1  0
 28 29  1  0
 29 30  1  0
 30 38  1  0
 30 31  1  1
 30 39  1  0
 31 32  1  0
 31 73  1  0
 31 74  1  0
 32 33  1  0
 32 75  1  0
 32 76  1  0
 33 34  1  0
 33 38  1  0
 33 86  1  6
 34 35  1  0
 34 77  1  0
 34 78  1  0
 35 37  1  0
 35 36  1  0
 35 79  1  0
 36 37  1  0
 36 80  1  0
 36 81  1  0
 37 82  1  0
 37 83  1  0
 39 40  1  0
 39 84  1  6
M  CHG  2  10   1  33   1
M  END
>  <i_m_ct_stereo_status>  (132) 
1

>  <s_m_source_file>  (132) 
/var/tmp/pbs.5076255.sched01/tmp06yssb5m/4267g10r58.sdf

>  <i_m_source_file_index>  (132) 
19

>  <i_lp_mmshare_version>  (132) 
48012

>  <i_f3d_flags>  (132) 
0

>  <s_epik_input>  (132) 
W0NIMl0xW0NIMl1bTkhdW0NAQEhdMltDQEhdKFtDSDJdW0NIMl1bQ0gyXTMpW0NAQEhdM1tDQEBdKFtDQF0xMjQpKE9bQ0gzXSlbQ0BIXTVbQ0BAXTY3W0NAQF04KE4oW0NIMl1bQ0gyXTcpW0NIMl1bQ0hdOVtDSDJdW0NIMl05KVtDQF0oW0NIMl1bQ0gyXTQpKE9bQ0gzXSlbQ0BAXTgoW09IXSlbQ0gyXVtDSDJdYzFjNmMoTzUpYyhbT0hdKVtjSF1bY0hdMQ==

>  <s_epik_cmdline>  (132) 
J2VwaWtfcHl0aG9uJywgJy1waHQnLCAnMi4wJywgJy1waCcsICc3LjAnLCAnLXRuJywgJzgnLCAnLW1hJywgJzIwMCcsICctaW1hZScsICc8aW5maWxlLm1hZT4nLCAnLW9tYWUnLCAnPG91dGZpbGUubWFlPic=

>  <r_lp_tautomer_probability>  (132) 
1

>  <r_epik_Ionization_Penalty>  (132) 
0.0320546

>  <r_epik_Ionization_Penalty_Charging>  (132) 
0.0247457

>  <r_epik_Ionization_Penalty_Neutral>  (132) 
0.00730892

>  <r_epik_State_Penalty>  (132) 
0.0252292

>  <r_epik_Charging_Adjusted_Penalty>  (132) 
0.0499748

>  <i_epik_Tot_Q>  (132) 
2

>  <i_epik_Tot_abs_Q>  (132) 
2

>  <s_lp_Force_Field>  (132) 
OPLS3e

>  <r_lp_Energy>  (132) 
139.711

>  <b_lp_Chiralities_Consistent>  (132) 
1

>  <s_lp_Variant>  (132) 
43:0-1

>  <s_i_glide_gridfile>  (132) 
pfpi4k_grid

>  <i_i_glide_lignum>  (132) 
19

>  <i_i_glide_rotatable_bonds>  (132) 
6

>  <r_i_docking_score>  (132) 
-2.54156

>  <r_i_glide_ligand_efficiency>  (132) 
-0.0635391

>  <r_i_glide_ligand_efficiency_sa>  (132) 
-0.217301

>  <r_i_glide_ligand_efficiency_ln>  (132) 
-0.542041

>  <r_i_glide_gscore>  (132) 
-2.54156

>  <r_i_glide_lipo>  (132) 
-0.286417

>  <r_i_glide_hbond>  (132) 
-0.181826

>  <r_i_glide_metal>  (132) 
-0

>  <r_i_glide_rewards>  (132) 
0

>  <r_i_glide_evdw>  (132) 
-19.6744

>  <r_i_glide_ecoul>  (132) 
-7.19551

>  <r_i_glide_erotb>  (132) 
0.0673677

>  <r_i_glide_esite>  (132) 
-0.0776451

>  <r_i_glide_emodel>  (132) 
-31.1802

>  <r_i_glide_energy>  (132) 
-26.8699

>  <r_i_glide_einternal>  (132) 
0.205566

>  <r_i_glide_intrahb_reward>  (132) 
-0

>  <i_i_glide_confnum>  (132) 
1

>  <i_i_glide_posenum>  (132) 
3

>  <r_i_glide_eff_state_penalty>  (132) 
0

>  <ligand_id>  (132) 
43

>  <original_smiles>  (132) 
COC12C3CCCC3C3NCCC31CCC1(OC)C3(O)CCc4ccc(O)c5c4C4(CCN(CC6CC6)C431)C2O5

>  <smiles>  (132) 
[H]Oc1c([H])c([H])c2c3c1OC1([H])C4(OC([H])([H])[H])C5([H])C([H])([H])C([H])([H])C([H])([H])C5([H])C5([H])C4(C([H])([H])C([H])([H])C4(OC([H])([H])[H])C(O[H])(C([H])([H])C2([H])[H])C42C31C([H])([H])C([H])([H])[N+]2([H])C([H])([H])C1([H])C([H])([H])C1([H])[H])C([H])([H])C([H])([H])[N+]5([H])[H]

$$$$
43:0:1
     RDKit          3D

 86 95  0  0  1  0  0  0  0  0999 V2000
    5.2081   -0.5459    5.4077 C   0  0  0  0  0  0  0  0  0  0  0  0
    4.7613   -1.6120    4.5694 O   0  0  0  0  0  0  0  0  0  0  0  0
    3.3605   -1.7668    4.2750 C   0  0  1  0  0  0  0  0  0  0  0  0
    2.5071   -0.4597    4.4730 C   0  0  2  0  0  0  0  0  0  0  0  0
    1.8496    0.0636    5.7587 C   0  0  0  0  0  0  0  0  0  0  0  0
    0.7496    1.0167    5.2314 C   0  0  0  0  0  0  0  0  0  0  0  0
    0.4941    0.6495    3.7494 C   0  0  0  0  0  0  0  0  0  0  0  0
    1.3134   -0.6303    3.5693 C   0  0  1  0  0  0  0  0  0  0  0  0
    1.9198   -1.1063    2.2519 C   0  0  1  0  0  0  0  0  0  0  0  0
    2.2404   -0.0221    1.2994 N   0  0  0  0  0  0  0  0  0  0  0  0
    3.5873   -0.2892    0.7902 C   0  0  0  0  0  0  0  0  0  0  0  0
    4.3135   -0.9045    1.9764 C   0  0  0  0  0  0  0  0  0  0  0  0
    3.2544   -1.8056    2.6801 C   0  0  1  0  0  0  0  0  0  0  0  0
    3.3197   -3.2129    2.0749 C   0  0  0  0  0  0  0  0  0  0  0  0
    4.6066   -3.9719    2.4131 C   0  0  0  0  0  0  0  0  0  0  0  0
    4.2504   -5.3672    2.8246 C   0  0  1  0  0  0  0  0  0  0  0  0
    3.6756   -6.1253    1.7598 O   0  0  0  0  0  0  0  0  0  0  0  0
    4.5812   -6.4832    0.7157 C   0  0  0  0  0  0  0  0  0  0  0  0
    4.9232   -6.2086    3.8761 C   0  0  1  0  0  0  0  0  0  0  0  0
    4.8826   -7.6079    3.7089 O   0  0  0  0  0  0  0  0  0  0  0  0
    6.2628   -5.8037    4.4268 C   0  0  0  0  0  0  0  0  0  0  0  0
    6.2995   -5.9419    5.9369 C   0  0  0  0  0  0  0  0  0  0  0  0
    5.8003   -4.7372    6.7120 C   0  0  0  0  0  0  0  0  0  0  0  0
    6.4845   -4.1918    7.8177 C   0  0  0  0  0  0  0  0  0  0  0  0
    5.9429   -3.1046    8.5386 C   0  0  0  0  0  0  0  0  0  0  0  0
    4.7289   -2.5224    8.1405 C   0  0  0  0  0  0  0  0  0  0  0  0
    4.2187   -1.4584    8.8280 O   0  0  0  0  0  0  0  0  0  0  0  0
    4.0441   -3.0121    7.0112 C   0  0  0  0  0  0  0  0  0  0  0  0
    4.5760   -4.1142    6.3388 C   0  0  0  0  0  0  0  0  0  0  0  0
    3.4511   -4.4673    5.3551 C   0  0  2  0  0  0  0  0  0  0  0  0
    2.4398   -5.2698    6.2117 C   0  0  0  0  0  0  0  0  0  0  0  0
    1.4367   -5.8309    5.2243 C   0  0  0  0  0  0  0  0  0  0  0  0
    2.2334   -6.2402    4.0510 N   0  0  2  0  0  0  0  0  0  0  0  0
    2.1052   -7.7105    3.7905 C   0  0  0  0  0  0  0  0  0  0  0  0
    0.6664   -8.1561    3.4937 C   0  0  0  0  0  0  0  0  0  0  0  0
    0.3936   -9.5279    2.9028 C   0  0  0  0  0  0  0  0  0  0  0  0
    0.1885   -8.2948    2.0647 C   0  0  0  0  0  0  0  0  0  0  0  0
    3.5754   -5.5267    4.1933 C   0  0  1  0  0  0  0  0  0  0  0  0
    2.7815   -3.0108    5.1287 C   0  0  1  0  0  0  0  0  0  0  0  0
    2.8853   -2.5221    6.4762 O   0  0  0  0  0  0  0  0  0  0  0  0
    6.2503   -0.7212    5.6759 H   0  0  0  0  0  0  0  0  0  0  0  0
    4.6516   -0.4771    6.3382 H   0  0  0  0  0  0  0  0  0  0  0  0
    5.1577    0.4245    4.9155 H   0  0  0  0  0  0  0  0  0  0  0  0
    3.0714    0.3873    4.0800 H   0  0  0  0  0  0  0  0  0  0  0  0
    1.3631   -0.7230    6.3322 H   0  0  0  0  0  0  0  0  0  0  0  0
    2.5538    0.5757    6.4129 H   0  0  0  0  0  0  0  0  0  0  0  0
   -0.1568    0.9249    5.8308 H   0  0  0  0  0  0  0  0  0  0  0  0
    1.0716    2.0555    5.3013 H   0  0  0  0  0  0  0  0  0  0  0  0
   -0.5660    0.4896    3.5408 H   0  0  0  0  0  0  0  0  0  0  0  0
    0.8440    1.4562    3.1022 H   0  0  0  0  0  0  0  0  0  0  0  0
    0.6968   -1.4498    3.9454 H   0  0  0  0  0  0  0  0  0  0  0  0
    1.2421   -1.7931    1.7475 H   0  0  0  0  0  0  0  0  0  0  0  0
    1.5639   -0.0246    0.5416 H   0  0  0  0  0  0  0  0  0  0  0  0
    3.5147   -1.0036   -0.0330 H   0  0  0  0  0  0  0  0  0  0  0  0
    4.0924    0.6073    0.4274 H   0  0  0  0  0  0  0  0  0  0  0  0
    5.2170   -1.4318    1.6676 H   0  0  0  0  0  0  0  0  0  0  0  0
    4.6415   -0.0816    2.6157 H   0  0  0  0  0  0  0  0  0  0  0  0
    2.4443   -3.7603    2.4247 H   0  0  0  0  0  0  0  0  0  0  0  0
    3.2176   -3.1748    0.9888 H   0  0  0  0  0  0  0  0  0  0  0  0
    5.3204   -3.9698    1.5895 H   0  0  0  0  0  0  0  0  0  0  0  0
    5.1220   -3.4983    3.2430 H   0  0  0  0  0  0  0  0  0  0  0  0
    4.0719   -7.1002   -0.0220 H   0  0  0  0  0  0  0  0  0  0  0  0
    5.4286   -7.0587    1.0856 H   0  0  0  0  0  0  0  0  0  0  0  0
    4.9652   -5.6186    0.1776 H   0  0  0  0  0  0  0  0  0  0  0  0
    5.5795   -7.8701    3.1274 H   0  0  0  0  0  0  0  0  0  0  0  0
    7.0274   -6.4399    3.9718 H   0  0  0  0  0  0  0  0  0  0  0  0
    6.5272   -4.7882    4.1450 H   0  0  0  0  0  0  0  0  0  0  0  0
    5.8307   -6.8587    6.2889 H   0  0  0  0  0  0  0  0  0  0  0  0
    7.3569   -6.0247    6.1940 H   0  0  0  0  0  0  0  0  0  0  0  0
    7.4185   -4.6213    8.1477 H   0  0  0  0  0  0  0  0  0  0  0  0
    6.4578   -2.7208    9.4039 H   0  0  0  0  0  0  0  0  0  0  0  0
    3.4147   -1.1401    8.4519 H   0  0  0  0  0  0  0  0  0  0  0  0
    2.9528   -6.1169    6.6827 H   0  0  0  0  0  0  0  0  0  0  0  0
    1.9420   -4.7209    7.0151 H   0  0  0  0  0  0  0  0  0  0  0  0
    0.8818   -6.6379    5.6984 H   0  0  0  0  0  0  0  0  0  0  0  0
    0.7074   -5.0770    4.9186 H   0  0  0  0  0  0  0  0  0  0  0  0
    2.6828   -8.0117    2.9170 H   0  0  0  0  0  0  0  0  0  0  0  0
    2.4772   -8.2796    4.6429 H   0  0  0  0  0  0  0  0  0  0  0  0
   -0.0881   -7.8585    4.2241 H   0  0  0  0  0  0  0  0  0  0  0  0
    1.2381  -10.1714    2.6625 H   0  0  0  0  0  0  0  0  0  0  0  0
   -0.5072  -10.0513    3.2183 H   0  0  0  0  0  0  0  0  0  0  0  0
   -0.8404   -8.0124    1.8482 H   0  0  0  0  0  0  0  0  0  0  0  0
    0.9089   -8.1033    1.2693 H   0  0  0  0  0  0  0  0  0  0  0  0
    1.7267   -3.1302    4.8833 H   0  0  0  0  0  0  0  0  0  0  0  0
    2.2484    0.8613    1.7842 H   0  0  0  0  0  0  0  0  0  0  0  0
    1.8113   -5.8187    3.2384 H   0  0  0  0  0  0  0  0  0  0  0  0
  1  2  1  0
  1 41  1  0
  1 42  1  0
  1 43  1  0
  3  2  1  6
  3 13  1  0
  3 39  1  0
  3  4  1  0
  4  8  1  0
  4  5  1  0
  4 44  1  6
  5  6  1  0
  5 45  1  0
  5 46  1  0
  6  7  1  0
  6 47  1  0
  6 48  1  0
  7  8  1  0
  7 49  1  0
  7 50  1  0
  8  9  1  0
  8 51  1  1
  9 13  1  0
  9 10  1  0
  9 52  1  6
 10 11  1  0
 10 53  1  0
 10 85  1  0
 11 12  1  0
 11 54  1  0
 11 55  1  0
 13 12  1  6
 12 56  1  0
 12 57  1  0
 13 14  1  0
 14 15  1  0
 14 58  1  0
 14 59  1  0
 15 16  1  0
 15 60  1  0
 15 61  1  0
 38 16  1  6
 16 17  1  6
 16 19  1  0
 17 18  1  0
 18 62  1  0
 18 63  1  0
 18 64  1  0
 19 38  1  0
 19 20  1  6
 19 21  1  0
 20 65  1  0
 21 22  1  0
 21 66  1  0
 21 67  1  0
 22 23  1  0
 22 68  1  0
 22 69  1  0
 23 29  2  0
 23 24  1  0
 24 25  2  0
 24 70  1  0
 25 26  1  0
 25 71  1  0
 26 27  1  0
 26 28  2  0
 27 72  1  0
 28 40  1  0
 28 29  1  0
 29 30  1  0
 30 38  1  0
 30 31  1  1
 30 39  1  0
 31 32  1  0
 31 73  1  0
 31 74  1  0
 32 33  1  0
 32 75  1  0
 32 76  1  0
 33 34  1  0
 33 38  1  0
 33 86  1  6
 34 35  1  0
 34 77  1  0
 34 78  1  0
 35 37  1  0
 35 36  1  0
 35 79  1  0
 36 37  1  0
 36 80  1  0
 36 81  1  0
 37 82  1  0
 37 83  1  0
 39 40  1  0
 39 84  1  6
M  CHG  2  10   1  33   1
M  END
>  <i_m_ct_stereo_status>  (133) 
1

>  <s_m_source_file>  (133) 
/var/tmp/pbs.5076255.sched01/tmp06yssb5m/4267g10r58.sdf

>  <i_m_source_file_index>  (133) 
19

>  <i_lp_mmshare_version>  (133) 
48012

>  <i_f3d_flags>  (133) 
0

>  <s_epik_input>  (133) 
W0NIMl0xW0NIMl1bTkhdW0NAQEhdMltDQEhdKFtDSDJdW0NIMl1bQ0gyXTMpW0NAQEhdM1tDQEBdKFtDQF0xMjQpKE9bQ0gzXSlbQ0BIXTVbQ0BAXTY3W0NAQF04KE4oW0NIMl1bQ0gyXTcpW0NIMl1bQ0hdOVtDSDJdW0NIMl05KVtDQF0oW0NIMl1bQ0gyXTQpKE9bQ0gzXSlbQ0BAXTgoW09IXSlbQ0gyXVtDSDJdYzFjNmMoTzUpYyhbT0hdKVtjSF1bY0hdMQ==

>  <s_epik_cmdline>  (133) 
J2VwaWtfcHl0aG9uJywgJy1waHQnLCAnMi4wJywgJy1waCcsICc3LjAnLCAnLXRuJywgJzgnLCAnLW1hJywgJzIwMCcsICctaW1hZScsICc8aW5maWxlLm1hZT4nLCAnLW9tYWUnLCAnPG91dGZpbGUubWFlPic=

>  <r_lp_tautomer_probability>  (133) 
1

>  <r_epik_Ionization_Penalty>  (133) 
0.0320546

>  <r_epik_Ionization_Penalty_Charging>  (133) 
0.0247457

>  <r_epik_Ionization_Penalty_Neutral>  (133) 
0.00730892

>  <r_epik_State_Penalty>  (133) 
0.0252292

>  <r_epik_Charging_Adjusted_Penalty>  (133) 
0.0499748

>  <i_epik_Tot_Q>  (133) 
2

>  <i_epik_Tot_abs_Q>  (133) 
2

>  <s_lp_Force_Field>  (133) 
OPLS3e

>  <r_lp_Energy>  (133) 
139.711

>  <b_lp_Chiralities_Consistent>  (133) 
1

>  <s_lp_Variant>  (133) 
43:0-1

>  <s_i_glide_gridfile>  (133) 
pfpi4k_grid

>  <i_i_glide_lignum>  (133) 
19

>  <i_i_glide_rotatable_bonds>  (133) 
6

>  <r_i_docking_score>  (133) 
-2.36641

>  <r_i_glide_ligand_efficiency>  (133) 
-0.0591603

>  <r_i_glide_ligand_efficiency_sa>  (133) 
-0.202325

>  <r_i_glide_ligand_efficiency_ln>  (133) 
-0.504686

>  <r_i_glide_gscore>  (133) 
-2.36641

>  <r_i_glide_lipo>  (133) 
-0.228941

>  <r_i_glide_hbond>  (133) 
-0.195559

>  <r_i_glide_metal>  (133) 
-0

>  <r_i_glide_rewards>  (133) 
0

>  <r_i_glide_evdw>  (133) 
-18.013

>  <r_i_glide_ecoul>  (133) 
-6.90827

>  <r_i_glide_erotb>  (133) 
0.0673677

>  <r_i_glide_esite>  (133) 
-0.0723912

>  <r_i_glide_emodel>  (133) 
-28.9015

>  <r_i_glide_energy>  (133) 
-24.9213

>  <r_i_glide_einternal>  (133) 
0.335191

>  <r_i_glide_intrahb_reward>  (133) 
-0

>  <i_i_glide_confnum>  (133) 
4

>  <i_i_glide_posenum>  (133) 
18

>  <r_i_glide_eff_state_penalty>  (133) 
0

>  <ligand_id>  (133) 
43

>  <original_smiles>  (133) 
COC12C3CCCC3C3NCCC31CCC1(OC)C3(O)CCc4ccc(O)c5c4C4(CCN(CC6CC6)C431)C2O5

>  <smiles>  (133) 
[H]Oc1c([H])c([H])c2c3c1OC1([H])C4(OC([H])([H])[H])C5([H])C([H])([H])C([H])([H])C([H])([H])C5([H])C5([H])C4(C([H])([H])C([H])([H])C4(OC([H])([H])[H])C(O[H])(C([H])([H])C2([H])[H])C42C31C([H])([H])C([H])([H])[N+]2([H])C([H])([H])C1([H])C([H])([H])C1([H])[H])C([H])([H])C([H])([H])[N+]5([H])[H]

$$$$
43:0:2
     RDKit          3D

 86 95  0  0  1  0  0  0  0  0999 V2000
    5.4121   -2.3944    4.9653 C   0  0  0  0  0  0  0  0  0  0  0  0
    4.8485   -3.4178    4.1452 O   0  0  0  0  0  0  0  0  0  0  0  0
    3.5092   -3.2876    3.6442 C   0  0  1  0  0  0  0  0  0  0  0  0
    3.0468   -1.7952    3.4671 C   0  0  2  0  0  0  0  0  0  0  0  0
    2.3994   -0.8721    4.5108 C   0  0  0  0  0  0  0  0  0  0  0  0
    1.6915    0.1999    3.6454 C   0  0  0  0  0  0  0  0  0  0  0  0
    1.5389   -0.3815    2.2196 C   0  0  0  0  0  0  0  0  0  0  0  0
    1.9832   -1.8366    2.4006 C   0  0  1  0  0  0  0  0  0  0  0  0
    2.5981   -2.7059    1.3095 C   0  0  1  0  0  0  0  0  0  0  0  0
    3.3299   -1.9516    0.2765 N   0  0  0  0  0  0  0  0  0  0  0  0
    4.5900   -2.6532    0.0473 C   0  0  0  0  0  0  0  0  0  0  0  0
    4.9594   -3.1781    1.4332 C   0  0  0  0  0  0  0  0  0  0  0  0
    3.6072   -3.6217    2.0784 C   0  0  1  0  0  0  0  0  0  0  0  0
    3.3471   -5.0929    1.7255 C   0  0  0  0  0  0  0  0  0  0  0  0
    4.3111   -6.0705    2.4053 C   0  0  0  0  0  0  0  0  0  0  0  0
    3.5273   -7.2111    2.9762 C   0  0  1  0  0  0  0  0  0  0  0  0
    2.8992   -7.9933    1.9619 O   0  0  0  0  0  0  0  0  0  0  0  0
    3.7778   -8.8407    1.2201 C   0  0  0  0  0  0  0  0  0  0  0  0
    3.7917   -7.9551    4.2577 C   0  0  1  0  0  0  0  0  0  0  0  0
    3.3715   -9.2989    4.3234 O   0  0  0  0  0  0  0  0  0  0  0  0
    5.1118   -7.8012    4.9576 C   0  0  0  0  0  0  0  0  0  0  0  0
    4.9148   -7.6403    6.4540 C   0  0  0  0  0  0  0  0  0  0  0  0
    4.6684   -6.2243    6.9341 C   0  0  0  0  0  0  0  0  0  0  0  0
    5.3328   -5.6568    8.0374 C   0  0  0  0  0  0  0  0  0  0  0  0
    5.0177   -4.3498    8.4775 C   0  0  0  0  0  0  0  0  0  0  0  0
    4.0560   -3.5840    7.7890 C   0  0  0  0  0  0  0  0  0  0  0  0
    3.7861   -2.3079    8.1958 O   0  0  0  0  0  0  0  0  0  0  0  0
    3.4143   -4.0974    6.6501 C   0  0  0  0  0  0  0  0  0  0  0  0
    3.7150   -5.4031    6.2575 C   0  0  0  0  0  0  0  0  0  0  0  0
    2.6894   -5.6446    5.1456 C   0  0  2  0  0  0  0  0  0  0  0  0
    1.3839   -5.9743    5.9184 C   0  0  0  0  0  0  0  0  0  0  0  0
    0.4098   -6.4543    4.8655 C   0  0  0  0  0  0  0  0  0  0  0  0
    1.2164   -7.2800    3.9525 N   0  0  2  0  0  0  0  0  0  0  0  0
    0.7186   -8.6891    3.8958 C   0  0  0  0  0  0  0  0  0  0  0  0
   -0.7448   -8.7778    3.4831 C   0  0  0  0  0  0  0  0  0  0  0  0
   -1.1839   -9.7354    2.3944 C   0  0  0  0  0  0  0  0  0  0  0  0
   -1.2053   -8.2595    2.1351 C   0  0  0  0  0  0  0  0  0  0  0  0
    2.6683   -6.9066    4.2093 C   0  0  1  0  0  0  0  0  0  0  0  0
    2.4925   -4.1428    4.5731 C   0  0  1  0  0  0  0  0  0  0  0  0
    2.5251   -3.4460    5.8327 O   0  0  0  0  0  0  0  0  0  0  0  0
    6.2883   -2.8173    5.4557 H   0  0  0  0  0  0  0  0  0  0  0  0
    4.7497   -2.0544    5.7528 H   0  0  0  0  0  0  0  0  0  0  0  0
    5.7042   -1.5039    4.4093 H   0  0  0  0  0  0  0  0  0  0  0  0
    3.8798   -1.2239    3.0577 H   0  0  0  0  0  0  0  0  0  0  0  0
    1.6390   -1.3759    5.1029 H   0  0  0  0  0  0  0  0  0  0  0  0
    3.1300   -0.4342    5.1894 H   0  0  0  0  0  0  0  0  0  0  0  0
    0.7256    0.4634    4.0774 H   0  0  0  0  0  0  0  0  0  0  0  0
    2.2793    1.1162    3.6024 H   0  0  0  0  0  0  0  0  0  0  0  0
    0.5137   -0.3075    1.8483 H   0  0  0  0  0  0  0  0  0  0  0  0
    2.1783    0.1641    1.5232 H   0  0  0  0  0  0  0  0  0  0  0  0
    1.1184   -2.3776    2.7849 H   0  0  0  0  0  0  0  0  0  0  0  0
    1.8284   -3.2866    0.8091 H   0  0  0  0  0  0  0  0  0  0  0  0
    2.7620   -1.8623   -0.5578 H   0  0  0  0  0  0  0  0  0  0  0  0
    4.4321   -3.4882   -0.6398 H   0  0  0  0  0  0  0  0  0  0  0  0
    5.3598   -2.0068   -0.3803 H   0  0  0  0  0  0  0  0  0  0  0  0
    5.7074   -3.9712    1.3790 H   0  0  0  0  0  0  0  0  0  0  0  0
    5.4226   -2.3553    1.9875 H   0  0  0  0  0  0  0  0  0  0  0  0
    2.3148   -5.3166    1.9972 H   0  0  0  0  0  0  0  0  0  0  0  0
    3.3994   -5.2500    0.6465 H   0  0  0  0  0  0  0  0  0  0  0  0
    5.0894   -6.4250    1.7269 H   0  0  0  0  0  0  0  0  0  0  0  0
    4.8299   -5.5808    3.2230 H   0  0  0  0  0  0  0  0  0  0  0  0
    3.2092   -9.4404    0.5073 H   0  0  0  0  0  0  0  0  0  0  0  0
    4.3209   -9.5388    1.8570 H   0  0  0  0  0  0  0  0  0  0  0  0
    4.5077   -8.2775    0.6400 H   0  0  0  0  0  0  0  0  0  0  0  0
    3.2498   -9.5450    5.2273 H   0  0  0  0  0  0  0  0  0  0  0  0
    5.7045   -8.6959    4.7479 H   0  0  0  0  0  0  0  0  0  0  0  0
    5.6973   -6.9687    4.5626 H   0  0  0  0  0  0  0  0  0  0  0  0
    4.1595   -8.3168    6.8514 H   0  0  0  0  0  0  0  0  0  0  0  0
    5.8592   -7.9381    6.9021 H   0  0  0  0  0  0  0  0  0  0  0  0
    6.0792   -6.2203    8.5804 H   0  0  0  0  0  0  0  0  0  0  0  0
    5.5230   -3.9225    9.3219 H   0  0  0  0  0  0  0  0  0  0  0  0
    3.2189   -1.8586    7.5921 H   0  0  0  0  0  0  0  0  0  0  0  0
    1.5792   -6.8078    6.6066 H   0  0  0  0  0  0  0  0  0  0  0  0
    0.9608   -5.1648    6.5151 H   0  0  0  0  0  0  0  0  0  0  0  0
   -0.4114   -6.9863    5.3430 H   0  0  0  0  0  0  0  0  0  0  0  0
   -0.0268   -5.6214    4.3162 H   0  0  0  0  0  0  0  0  0  0  0  0
    1.2724   -9.2740    3.1650 H   0  0  0  0  0  0  0  0  0  0  0  0
    0.8171   -9.1819    4.8635 H   0  0  0  0  0  0  0  0  0  0  0  0
   -1.4548   -8.6918    4.3087 H   0  0  0  0  0  0  0  0  0  0  0  0
   -0.4264  -10.3440    1.9059 H   0  0  0  0  0  0  0  0  0  0  0  0
   -2.1684  -10.1894    2.4558 H   0  0  0  0  0  0  0  0  0  0  0  0
   -2.1861   -7.7852    2.1042 H   0  0  0  0  0  0  0  0  0  0  0  0
   -0.4454   -7.8419    1.4729 H   0  0  0  0  0  0  0  0  0  0  0  0
    1.4950   -4.0490    4.1483 H   0  0  0  0  0  0  0  0  0  0  0  0
    3.5327   -1.0300    0.6333 H   0  0  0  0  0  0  0  0  0  0  0  0
    1.0451   -6.9501    3.0095 H   0  0  0  0  0  0  0  0  0  0  0  0
  1  2  1  0
  1 41  1  0
  1 42  1  0
  1 43  1  0
  3  2  1  1
  3 13  1  0
  3 39  1  0
  3  4  1  0
  4  8  1  0
  4  5  1  0
  4 44  1  6
  5  6  1  0
  5 45  1  0
  5 46  1  0
  6  7  1  0
  6 47  1  0
  6 48  1  0
  7  8  1  0
  7 49  1  0
  7 50  1  0
  8  9  1  0
  8 51  1  1
  9 13  1  0
  9 10  1  0
  9 52  1  6
 10 11  1  0
 10 53  1  0
 10 85  1  0
 11 12  1  0
 11 54  1  0
 11 55  1  0
 13 12  1  6
 12 56  1  0
 12 57  1  0
 13 14  1  0
 14 15  1  0
 14 58  1  0
 14 59  1  0
 15 16  1  0
 15 60  1  0
 15 61  1  0
 38 16  1  6
 16 17  1  6
 16 19  1  0
 17 18  1  0
 18 62  1  0
 18 63  1  0
 18 64  1  0
 19 38  1  0
 19 20  1  6
 19 21  1  0
 20 65  1  0
 21 22  1  0
 21 66  1  0
 21 67  1  0
 22 23  1  0
 22 68  1  0
 22 69  1  0
 23 29  2  0
 23 24  1  0
 24 25  2  0
 24 70  1  0
 25 26  1  0
 25 71  1  0
 26 27  1  0
 26 28  2  0
 27 72  1  0
 28 40  1  0
 28 29  1  0
 29 30  1  0
 30 38  1  0
 30 31  1  1
 30 39  1  0
 31 32  1  0
 31 73  1  0
 31 74  1  0
 32 33  1  0
 32 75  1  0
 32 76  1  0
 33 34  1  0
 33 38  1  0
 33 86  1  6
 34 35  1  0
 34 77  1  0
 34 78  1  0
 35 37  1  0
 35 36  1  0
 35 79  1  0
 36 37  1  0
 36 80  1  0
 36 81  1  0
 37 82  1  0
 37 83  1  0
 39 40  1  0
 39 84  1  6
M  CHG  2  10   1  33   1
M  END
>  <i_m_ct_stereo_status>  (134) 
1

>  <s_m_source_file>  (134) 
/var/tmp/pbs.5076255.sched01/tmp06yssb5m/4267g10r58.sdf

>  <i_m_source_file_index>  (134) 
19

>  <i_lp_mmshare_version>  (134) 
48012

>  <i_f3d_flags>  (134) 
0

>  <s_epik_input>  (134) 
W0NIMl0xW0NIMl1bTkhdW0NAQEhdMltDQEhdKFtDSDJdW0NIMl1bQ0gyXTMpW0NAQEhdM1tDQEBdKFtDQF0xMjQpKE9bQ0gzXSlbQ0BIXTVbQ0BAXTY3W0NAQF04KE4oW0NIMl1bQ0gyXTcpW0NIMl1bQ0hdOVtDSDJdW0NIMl05KVtDQF0oW0NIMl1bQ0gyXTQpKE9bQ0gzXSlbQ0BAXTgoW09IXSlbQ0gyXVtDSDJdYzFjNmMoTzUpYyhbT0hdKVtjSF1bY0hdMQ==

>  <s_epik_cmdline>  (134) 
J2VwaWtfcHl0aG9uJywgJy1waHQnLCAnMi4wJywgJy1waCcsICc3LjAnLCAnLXRuJywgJzgnLCAnLW1hJywgJzIwMCcsICctaW1hZScsICc8aW5maWxlLm1hZT4nLCAnLW9tYWUnLCAnPG91dGZpbGUubWFlPic=

>  <r_lp_tautomer_probability>  (134) 
1

>  <r_epik_Ionization_Penalty>  (134) 
0.0320546

>  <r_epik_Ionization_Penalty_Charging>  (134) 
0.0247457

>  <r_epik_Ionization_Penalty_Neutral>  (134) 
0.00730892

>  <r_epik_State_Penalty>  (134) 
0.0252292

>  <r_epik_Charging_Adjusted_Penalty>  (134) 
0.0499748

>  <i_epik_Tot_Q>  (134) 
2

>  <i_epik_Tot_abs_Q>  (134) 
2

>  <s_lp_Force_Field>  (134) 
OPLS3e

>  <r_lp_Energy>  (134) 
139.711

>  <b_lp_Chiralities_Consistent>  (134) 
1

>  <s_lp_Variant>  (134) 
43:0-1

>  <s_i_glide_gridfile>  (134) 
pfpi4k_grid

>  <i_i_glide_lignum>  (134) 
19

>  <i_i_glide_rotatable_bonds>  (134) 
6

>  <r_i_docking_score>  (134) 
-2.08671

>  <r_i_glide_ligand_efficiency>  (134) 
-0.0521678

>  <r_i_glide_ligand_efficiency_sa>  (134) 
-0.178411

>  <r_i_glide_ligand_efficiency_ln>  (134) 
-0.445034

>  <r_i_glide_gscore>  (134) 
-2.08671

>  <r_i_glide_lipo>  (134) 
-0.240184

>  <r_i_glide_hbond>  (134) 
-0.0618431

>  <r_i_glide_metal>  (134) 
-0

>  <r_i_glide_rewards>  (134) 
0

>  <r_i_glide_evdw>  (134) 
-19.4306

>  <r_i_glide_ecoul>  (134) 
-5.37743

>  <r_i_glide_erotb>  (134) 
0.0673677

>  <r_i_glide_esite>  (134) 
-0.073907

>  <r_i_glide_emodel>  (134) 
-26.889

>  <r_i_glide_energy>  (134) 
-24.808

>  <r_i_glide_einternal>  (134) 
2.49865

>  <r_i_glide_intrahb_reward>  (134) 
-0

>  <i_i_glide_confnum>  (134) 
3

>  <i_i_glide_posenum>  (134) 
21

>  <r_i_glide_eff_state_penalty>  (134) 
0

>  <ligand_id>  (134) 
43

>  <original_smiles>  (134) 
COC12C3CCCC3C3NCCC31CCC1(OC)C3(O)CCc4ccc(O)c5c4C4(CCN(CC6CC6)C431)C2O5

>  <smiles>  (134) 
[H]Oc1c([H])c([H])c2c3c1OC1([H])C4(OC([H])([H])[H])C5([H])C([H])([H])C([H])([H])C([H])([H])C5([H])C5([H])C4(C([H])([H])C([H])([H])C4(OC([H])([H])[H])C(O[H])(C([H])([H])C2([H])[H])C42C31C([H])([H])C([H])([H])[N+]2([H])C([H])([H])C1([H])C([H])([H])C1([H])[H])C([H])([H])C([H])([H])[N+]5([H])[H]

$$$$
45:0:0
     RDKit          3D

 26 28  0  0  1  0  0  0  0  0999 V2000
    7.6058   -1.8336    0.0378 O   0  0  0  0  0  0  0  0  0  0  0  0
    6.8041   -2.7626   -0.0817 C   0  0  0  0  0  0  0  0  0  0  0  0
    7.0524   -4.0977    0.5677 C   0  0  0  0  0  0  0  0  0  0  0  0
    8.3477   -4.5801    0.9000 C   0  0  0  0  0  0  0  0  0  0  0  0
    8.2739   -5.7515    1.4730 N   0  0  0  0  0  0  0  0  0  0  0  0
    6.9082   -6.0372    1.5415 O   0  0  0  0  0  0  0  0  0  0  0  0
    6.1735   -4.9698    0.9885 N   0  0  0  0  0  0  0  0  0  0  0  0
    5.7080   -2.6267   -0.8624 N   0  0  0  0  0  0  0  0  0  0  0  0
    4.7450   -3.6632   -1.2329 C   0  0  0  0  0  0  0  0  0  0  0  0
    3.7283   -3.0182   -2.1700 C   0  0  2  0  0  0  0  0  0  0  0  0
    4.0265   -3.1878   -3.6439 C   0  0  0  0  0  0  0  0  0  0  0  0
    3.4709   -2.0316   -4.2227 O   0  0  0  0  0  0  0  0  0  0  0  0
    3.5893   -0.9353   -3.3334 C   0  0  0  0  0  0  0  0  0  0  0  0
    3.8791   -1.5349   -1.9639 C   0  0  2  0  0  0  0  0  0  0  0  0
    5.3209   -1.3561   -1.4710 C   0  0  0  0  0  0  0  0  0  0  0  0
    9.3055   -4.1072    0.7481 H   0  0  0  0  0  0  0  0  0  0  0  0
    5.2289   -4.5310   -1.6886 H   0  0  0  0  0  0  0  0  0  0  0  0
    4.2007   -3.9802   -0.3430 H   0  0  0  0  0  0  0  0  0  0  0  0
    2.7126   -3.3487   -1.9419 H   0  0  0  0  0  0  0  0  0  0  0  0
    5.0921   -3.2031   -3.8483 H   0  0  0  0  0  0  0  0  0  0  0  0
    3.5757   -4.0841   -4.0511 H   0  0  0  0  0  0  0  0  0  0  0  0
    4.3790   -0.2760   -3.6759 H   0  0  0  0  0  0  0  0  0  0  0  0
    2.6608   -0.3760   -3.3231 H   0  0  0  0  0  0  0  0  0  0  0  0
    3.1793   -1.1858   -1.2009 H   0  0  0  0  0  0  0  0  0  0  0  0
    5.3899   -0.5234   -0.7666 H   0  0  0  0  0  0  0  0  0  0  0  0
    5.9896   -1.1540   -2.3071 H   0  0  0  0  0  0  0  0  0  0  0  0
  1  2  2  0
  2  3  1  0
  2  8  1  0
  3  7  2  0
  3  4  1  0
  4  5  2  0
  4 16  1  0
  5  6  1  0
  6  7  1  0
  8 15  1  0
  8  9  1  0
  9 10  1  0
  9 17  1  0
  9 18  1  0
 10 14  1  0
 10 11  1  0
 10 19  1  6
 11 12  1  0
 11 20  1  0
 11 21  1  0
 12 13  1  0
 13 14  1  0
 13 22  1  0
 13 23  1  0
 14 15  1  0
 14 24  1  1
 15 25  1  0
 15 26  1  0
M  END
>  <i_m_ct_stereo_status>  (135) 
1

>  <s_m_source_file>  (135) 
/var/tmp/pbs.5076255.sched01/tmp06yssb5m/4267g10r58.sdf

>  <i_m_source_file_index>  (135) 
22

>  <i_lp_mmshare_version>  (135) 
48012

>  <i_f3d_flags>  (135) 
0

>  <s_epik_input>  (135) 
bjFvbltjSF1jMUMoPU8pTihbQ0gyXTIpW0NIMl1bQ0BIXShbQ0BIXTIzKVtDSDJdT1tDSDJdMw==

>  <s_epik_cmdline>  (135) 
J2VwaWtfcHl0aG9uJywgJy1waHQnLCAnMi4wJywgJy1waCcsICc3LjAnLCAnLXRuJywgJzgnLCAnLW1hJywgJzIwMCcsICctaW1hZScsICc8aW5maWxlLm1hZT4nLCAnLW9tYWUnLCAnPG91dGZpbGUubWFlPic=

>  <r_lp_tautomer_probability>  (135) 
1

>  <r_epik_Ionization_Penalty>  (135) 
1.06788e-11

>  <r_epik_Ionization_Penalty_Charging>  (135) 
0

>  <r_epik_Ionization_Penalty_Neutral>  (135) 
1.06788e-11

>  <r_epik_State_Penalty>  (135) 
-0

>  <r_epik_Charging_Adjusted_Penalty>  (135) 
0

>  <i_epik_Tot_Q>  (135) 
0

>  <i_epik_Tot_abs_Q>  (135) 
0

>  <s_lp_Force_Field>  (135) 
OPLS3e

>  <r_lp_Energy>  (135) 
2.35509

>  <b_lp_Chiralities_Consistent>  (135) 
1

>  <s_lp_Variant>  (135) 
45:0-1

>  <s_i_glide_gridfile>  (135) 
pfpi4k_grid

>  <i_i_glide_lignum>  (135) 
22

>  <i_i_glide_rotatable_bonds>  (135) 
2

>  <r_i_docking_score>  (135) 
-3.83511

>  <r_i_glide_ligand_efficiency>  (135) 
-0.255674

>  <r_i_glide_ligand_efficiency_sa>  (135) 
-0.630546

>  <r_i_glide_ligand_efficiency_ln>  (135) 
-1.03427

>  <r_i_glide_gscore>  (135) 
-3.83511

>  <r_i_glide_lipo>  (135) 
-0.555358

>  <r_i_glide_hbond>  (135) 
-0.378607

>  <r_i_glide_metal>  (135) 
-0

>  <r_i_glide_rewards>  (135) 
-2.05074

>  <r_i_glide_evdw>  (135) 
-26.1311

>  <r_i_glide_ecoul>  (135) 
-1.88319

>  <r_i_glide_erotb>  (135) 
0.75751

>  <r_i_glide_esite>  (135) 
-0.0188752

>  <r_i_glide_emodel>  (135) 
-33.7907

>  <r_i_glide_energy>  (135) 
-28.0143

>  <r_i_glide_einternal>  (135) 
1.81762

>  <r_i_glide_intrahb_reward>  (135) 
-0

>  <i_i_glide_confnum>  (135) 
5

>  <i_i_glide_posenum>  (135) 
8

>  <r_i_glide_eff_state_penalty>  (135) 
0

>  <ligand_id>  (135) 
45

>  <original_smiles>  (135) 
O=C(c1cnon1)N1CC2COCC2C1

>  <smiles>  (135) 
[H]c1nonc1C(=O)N1C([H])([H])C2([H])C([H])([H])OC([H])([H])C2([H])C1([H])[H]

$$$$
45:0:1
     RDKit          3D

 26 28  0  0  1  0  0  0  0  0999 V2000
    6.7387   -2.0513    0.3508 O   0  0  0  0  0  0  0  0  0  0  0  0
    5.8409   -2.8451    0.0567 C   0  0  0  0  0  0  0  0  0  0  0  0
    5.6683   -4.1412    0.7769 C   0  0  0  0  0  0  0  0  0  0  0  0
    5.3491   -5.4253    0.2578 C   0  0  0  0  0  0  0  0  0  0  0  0
    5.2885   -6.3289    1.1938 N   0  0  0  0  0  0  0  0  0  0  0  0
    5.6295   -5.6332    2.3637 O   0  0  0  0  0  0  0  0  0  0  0  0
    5.8654   -4.2820    2.0797 N   0  0  0  0  0  0  0  0  0  0  0  0
    4.9233   -2.5197   -0.8973 N   0  0  0  0  0  0  0  0  0  0  0  0
    3.8250   -3.3491   -1.3868 C   0  0  0  0  0  0  0  0  0  0  0  0
    3.1440   -2.5764   -2.5092 C   0  0  2  0  0  0  0  0  0  0  0  0
    3.6729   -2.8963   -3.9007 C   0  0  0  0  0  0  0  0  0  0  0  0
    3.4853   -1.6923   -4.6208 O   0  0  0  0  0  0  0  0  0  0  0  0
    3.6539   -0.5867   -3.7430 C   0  0  0  0  0  0  0  0  0  0  0  0
    3.5760   -1.1520   -2.3237 C   0  0  2  0  0  0  0  0  0  0  0  0
    4.9201   -1.2262   -1.5763 C   0  0  0  0  0  0  0  0  0  0  0  0
    5.1574   -5.7151   -0.7706 H   0  0  0  0  0  0  0  0  0  0  0  0
    4.1705   -4.2702   -1.8465 H   0  0  0  0  0  0  0  0  0  0  0  0
    3.1199   -3.5663   -0.5789 H   0  0  0  0  0  0  0  0  0  0  0  0
    2.0544   -2.6832   -2.4802 H   0  0  0  0  0  0  0  0  0  0  0  0
    4.7401   -3.1358   -3.8931 H   0  0  0  0  0  0  0  0  0  0  0  0
    3.1346   -3.7300   -4.3442 H   0  0  0  0  0  0  0  0  0  0  0  0
    4.6154   -0.1129   -3.9333 H   0  0  0  0  0  0  0  0  0  0  0  0
    2.8581    0.1369   -3.9099 H   0  0  0  0  0  0  0  0  0  0  0  0
    2.8240   -0.6532   -1.7053 H   0  0  0  0  0  0  0  0  0  0  0  0
    5.0155   -0.3836   -0.8825 H   0  0  0  0  0  0  0  0  0  0  0  0
    5.7671   -1.2009   -2.2694 H   0  0  0  0  0  0  0  0  0  0  0  0
  1  2  2  0
  2  3  1  0
  2  8  1  0
  3  7  2  0
  3  4  1  0
  4  5  2  0
  4 16  1  0
  5  6  1  0
  6  7  1  0
  8 15  1  0
  8  9  1  0
  9 10  1  0
  9 17  1  0
  9 18  1  0
 10 14  1  0
 10 11  1  0
 10 19  1  6
 11 12  1  0
 11 20  1  0
 11 21  1  0
 12 13  1  0
 13 14  1  0
 13 22  1  0
 13 23  1  0
 14 15  1  0
 14 24  1  1
 15 25  1  0
 15 26  1  0
M  END
>  <i_m_ct_stereo_status>  (136) 
1

>  <s_m_source_file>  (136) 
/var/tmp/pbs.5076255.sched01/tmp06yssb5m/4267g10r58.sdf

>  <i_m_source_file_index>  (136) 
22

>  <i_lp_mmshare_version>  (136) 
48012

>  <i_f3d_flags>  (136) 
0

>  <s_epik_input>  (136) 
bjFvbltjSF1jMUMoPU8pTihbQ0gyXTIpW0NIMl1bQ0BIXShbQ0BIXTIzKVtDSDJdT1tDSDJdMw==

>  <s_epik_cmdline>  (136) 
J2VwaWtfcHl0aG9uJywgJy1waHQnLCAnMi4wJywgJy1waCcsICc3LjAnLCAnLXRuJywgJzgnLCAnLW1hJywgJzIwMCcsICctaW1hZScsICc8aW5maWxlLm1hZT4nLCAnLW9tYWUnLCAnPG91dGZpbGUubWFlPic=

>  <r_lp_tautomer_probability>  (136) 
1

>  <r_epik_Ionization_Penalty>  (136) 
1.06788e-11

>  <r_epik_Ionization_Penalty_Charging>  (136) 
0

>  <r_epik_Ionization_Penalty_Neutral>  (136) 
1.06788e-11

>  <r_epik_State_Penalty>  (136) 
-0

>  <r_epik_Charging_Adjusted_Penalty>  (136) 
0

>  <i_epik_Tot_Q>  (136) 
0

>  <i_epik_Tot_abs_Q>  (136) 
0

>  <s_lp_Force_Field>  (136) 
OPLS3e

>  <r_lp_Energy>  (136) 
2.35509

>  <b_lp_Chiralities_Consistent>  (136) 
1

>  <s_lp_Variant>  (136) 
45:0-1

>  <s_i_glide_gridfile>  (136) 
pfpi4k_grid

>  <i_i_glide_lignum>  (136) 
22

>  <i_i_glide_rotatable_bonds>  (136) 
2

>  <r_i_docking_score>  (136) 
-3.79576

>  <r_i_glide_ligand_efficiency>  (136) 
-0.253051

>  <r_i_glide_ligand_efficiency_sa>  (136) 
-0.624076

>  <r_i_glide_ligand_efficiency_ln>  (136) 
-1.02365

>  <r_i_glide_gscore>  (136) 
-3.79576

>  <r_i_glide_lipo>  (136) 
-0.492022

>  <r_i_glide_hbond>  (136) 
-0.32

>  <r_i_glide_metal>  (136) 
-0

>  <r_i_glide_rewards>  (136) 
-2.03521

>  <r_i_glide_evdw>  (136) 
-22.2375

>  <r_i_glide_ecoul>  (136) 
-3.88995

>  <r_i_glide_erotb>  (136) 
0.75751

>  <r_i_glide_esite>  (136) 
-0.0106713

>  <r_i_glide_emodel>  (136) 
-32.5563

>  <r_i_glide_energy>  (136) 
-26.1275

>  <r_i_glide_einternal>  (136) 
0.111937

>  <r_i_glide_intrahb_reward>  (136) 
-0

>  <i_i_glide_confnum>  (136) 
1

>  <i_i_glide_posenum>  (136) 
2

>  <r_i_glide_eff_state_penalty>  (136) 
0

>  <ligand_id>  (136) 
45

>  <original_smiles>  (136) 
O=C(c1cnon1)N1CC2COCC2C1

>  <smiles>  (136) 
[H]c1nonc1C(=O)N1C([H])([H])C2([H])C([H])([H])OC([H])([H])C2([H])C1([H])[H]

$$$$
45:0:2
     RDKit          3D

 26 28  0  0  1  0  0  0  0  0999 V2000
    2.6345   -3.7002    1.4075 O   0  0  0  0  0  0  0  0  0  0  0  0
    3.1038   -2.6095    1.0633 C   0  0  0  0  0  0  0  0  0  0  0  0
    3.0964   -1.4364    1.9890 C   0  0  0  0  0  0  0  0  0  0  0  0
    2.5933   -0.1391    1.6847 C   0  0  0  0  0  0  0  0  0  0  0  0
    2.7056    0.6560    2.7153 N   0  0  0  0  0  0  0  0  0  0  0  0
    3.2680   -0.1448    3.7184 O   0  0  0  0  0  0  0  0  0  0  0  0
    3.4928   -1.4458    3.2348 N   0  0  0  0  0  0  0  0  0  0  0  0
    3.6461   -2.4271   -0.1593 N   0  0  0  0  0  0  0  0  0  0  0  0
    4.4067   -1.2634   -0.6283 C   0  0  0  0  0  0  0  0  0  0  0  0
    4.7630   -1.5360   -2.0897 C   0  0  2  0  0  0  0  0  0  0  0  0
    3.7845   -0.9821   -3.1209 C   0  0  0  0  0  0  0  0  0  0  0  0
    3.9335   -1.8753   -4.2096 O   0  0  0  0  0  0  0  0  0  0  0  0
    4.1365   -3.1922   -3.7153 C   0  0  0  0  0  0  0  0  0  0  0  0
    4.6162   -3.0239   -2.2745 C   0  0  2  0  0  0  0  0  0  0  0  0
    3.6013   -3.4506   -1.2024 C   0  0  0  0  0  0  0  0  0  0  0  0
    2.1595    0.2185    0.7638 H   0  0  0  0  0  0  0  0  0  0  0  0
    3.8587   -0.3274   -0.5749 H   0  0  0  0  0  0  0  0  0  0  0  0
    5.3147   -1.1586   -0.0294 H   0  0  0  0  0  0  0  0  0  0  0  0
    5.7765   -1.2039   -2.3179 H   0  0  0  0  0  0  0  0  0  0  0  0
    2.7559   -1.0005   -2.7629 H   0  0  0  0  0  0  0  0  0  0  0  0
    4.0262    0.0346   -3.4184 H   0  0  0  0  0  0  0  0  0  0  0  0
    3.2241   -3.7799   -3.7874 H   0  0  0  0  0  0  0  0  0  0  0  0
    4.8934   -3.6800   -4.3221 H   0  0  0  0  0  0  0  0  0  0  0  0
    5.5747   -3.5191   -2.1043 H   0  0  0  0  0  0  0  0  0  0  0  0
    3.8375   -4.4483   -0.8259 H   0  0  0  0  0  0  0  0  0  0  0  0
    2.5848   -3.4753   -1.6027 H   0  0  0  0  0  0  0  0  0  0  0  0
  1  2  2  0
  2  3  1  0
  2  8  1  0
  3  7  2  0
  3  4  1  0
  4  5  2  0
  4 16  1  0
  5  6  1  0
  6  7  1  0
  8 15  1  0
  8  9  1  0
  9 10  1  0
  9 17  1  0
  9 18  1  0
 10 14  1  0
 10 11  1  0
 10 19  1  6
 11 12  1  0
 11 20  1  0
 11 21  1  0
 12 13  1  0
 13 14  1  0
 13 22  1  0
 13 23  1  0
 14 15  1  0
 14 24  1  6
 15 25  1  0
 15 26  1  0
M  END
>  <i_m_ct_stereo_status>  (137) 
1

>  <s_m_source_file>  (137) 
/var/tmp/pbs.5076255.sched01/tmp06yssb5m/4267g10r58.sdf

>  <i_m_source_file_index>  (137) 
22

>  <i_lp_mmshare_version>  (137) 
48012

>  <i_f3d_flags>  (137) 
0

>  <s_epik_input>  (137) 
bjFvbltjSF1jMUMoPU8pTihbQ0gyXTIpW0NIMl1bQ0BIXShbQ0BIXTIzKVtDSDJdT1tDSDJdMw==

>  <s_epik_cmdline>  (137) 
J2VwaWtfcHl0aG9uJywgJy1waHQnLCAnMi4wJywgJy1waCcsICc3LjAnLCAnLXRuJywgJzgnLCAnLW1hJywgJzIwMCcsICctaW1hZScsICc8aW5maWxlLm1hZT4nLCAnLW9tYWUnLCAnPG91dGZpbGUubWFlPic=

>  <r_lp_tautomer_probability>  (137) 
1

>  <r_epik_Ionization_Penalty>  (137) 
1.06788e-11

>  <r_epik_Ionization_Penalty_Charging>  (137) 
0

>  <r_epik_Ionization_Penalty_Neutral>  (137) 
1.06788e-11

>  <r_epik_State_Penalty>  (137) 
-0

>  <r_epik_Charging_Adjusted_Penalty>  (137) 
0

>  <i_epik_Tot_Q>  (137) 
0

>  <i_epik_Tot_abs_Q>  (137) 
0

>  <s_lp_Force_Field>  (137) 
OPLS3e

>  <r_lp_Energy>  (137) 
2.35509

>  <b_lp_Chiralities_Consistent>  (137) 
1

>  <s_lp_Variant>  (137) 
45:0-1

>  <s_i_glide_gridfile>  (137) 
pfpi4k_grid

>  <i_i_glide_lignum>  (137) 
22

>  <i_i_glide_rotatable_bonds>  (137) 
2

>  <r_i_docking_score>  (137) 
-3.57721

>  <r_i_glide_ligand_efficiency>  (137) 
-0.238481

>  <r_i_glide_ligand_efficiency_sa>  (137) 
-0.588145

>  <r_i_glide_ligand_efficiency_ln>  (137) 
-0.964716

>  <r_i_glide_gscore>  (137) 
-3.57721

>  <r_i_glide_lipo>  (137) 
-0.329452

>  <r_i_glide_hbond>  (137) 
-0.32

>  <r_i_glide_metal>  (137) 
-0

>  <r_i_glide_rewards>  (137) 
-1.98271

>  <r_i_glide_evdw>  (137) 
-22.9758

>  <r_i_glide_ecoul>  (137) 
-3.3082

>  <r_i_glide_erotb>  (137) 
0.75751

>  <r_i_glide_esite>  (137) 
-0.0575397

>  <r_i_glide_emodel>  (137) 
-32.2448

>  <r_i_glide_energy>  (137) 
-26.284

>  <r_i_glide_einternal>  (137) 
0.687262

>  <r_i_glide_intrahb_reward>  (137) 
-0

>  <i_i_glide_confnum>  (137) 
3

>  <i_i_glide_posenum>  (137) 
26

>  <r_i_glide_eff_state_penalty>  (137) 
0

>  <ligand_id>  (137) 
45

>  <original_smiles>  (137) 
O=C(c1cnon1)N1CC2COCC2C1

>  <smiles>  (137) 
[H]c1nonc1C(=O)N1C([H])([H])C2([H])C([H])([H])OC([H])([H])C2([H])C1([H])[H]

$$$$
46:0:0
     RDKit          3D

 26 31  0  0  1  0  0  0  0  0999 V2000
    1.5748   -4.2477   -1.1211 C   0  0  0  0  0  0  0  0  0  0  0  0
    2.6380   -3.4069   -1.7953 C   0  0  2  0  0  0  0  0  0  0  0  0
    3.1199   -2.1125   -1.1422 C   0  0  2  0  0  0  0  0  0  0  0  0
    3.0476   -0.9490   -2.1446 C   0  0  1  0  0  0  0  0  0  0  0  0
    4.4361   -0.3148   -2.0499 C   0  0  0  0  0  0  0  0  0  0  0  0
    5.1787   -1.6220   -2.3086 C   0  0  2  0  0  0  0  0  0  0  0  0
    4.5093   -2.1293   -3.6065 C   0  0  2  0  0  0  0  0  0  0  0  0
    3.0531   -1.6694   -3.4823 C   0  0  1  0  0  0  0  0  0  0  0  0
    2.5996   -3.1057   -3.2903 C   0  0  1  0  0  0  0  0  0  0  0  0
    4.0448   -3.5729   -3.4301 C   0  0  2  0  0  0  0  0  0  0  0  0
    4.0980   -3.8529   -1.9305 C   0  0  1  0  0  0  0  0  0  0  0  0
    4.5775   -2.5768   -1.2568 C   0  0  2  0  0  0  0  0  0  0  0  0
    1.8331   -4.4640   -0.0800 H   0  0  0  0  0  0  0  0  0  0  0  0
    1.3898   -5.1968   -1.6007 H   0  0  0  0  0  0  0  0  0  0  0  0
    0.6263   -3.7238   -1.1698 H   0  0  0  0  0  0  0  0  0  0  0  0
    2.7984   -1.9500   -0.1177 H   0  0  0  0  0  0  0  0  0  0  0  0
    2.2172   -0.3114   -2.0558 H   0  0  0  0  0  0  0  0  0  0  0  0
    4.5943    0.4429   -2.8150 H   0  0  0  0  0  0  0  0  0  0  0  0
    4.6168    0.0874   -1.0573 H   0  0  0  0  0  0  0  0  0  0  0  0
    6.2678   -1.5910   -2.3077 H   0  0  0  0  0  0  0  0  0  0  0  0
    4.8999   -1.7975   -4.5588 H   0  0  0  0  0  0  0  0  0  0  0  0
    2.6534   -1.1572   -4.3504 H   0  0  0  0  0  0  0  0  0  0  0  0
    1.8488   -3.5328   -3.9517 H   0  0  0  0  0  0  0  0  0  0  0  0
    4.2287   -4.3499   -4.1742 H   0  0  0  0  0  0  0  0  0  0  0  0
    4.3854   -4.8104   -1.5133 H   0  0  0  0  0  0  0  0  0  0  0  0
    5.0721   -2.7058   -0.2972 H   0  0  0  0  0  0  0  0  0  0  0  0
  2  1  1  1
  1 13  1  0
  1 14  1  0
  1 15  1  0
  2  9  1  0
  2 11  1  0
  2  3  1  0
  3 12  1  0
  3  4  1  0
  3 16  1  1
  4  8  1  0
  4  5  1  0
  4 17  1  1
  5  6  1  0
  5 18  1  0
  5 19  1  0
  6 12  1  0
  6  7  1  0
  6 20  1  6
  7 10  1  0
  7  8  1  0
  7 21  1  6
  8  9  1  0
  8 22  1  6
  9 10  1  0
  9 23  1  6
 10 11  1  0
 10 24  1  6
 11 12  1  0
 11 25  1  6
 12 26  1  1
M  END
>  <i_m_ct_stereo_status>  (138) 
1

>  <s_m_source_file>  (138) 
/var/tmp/pbs.5076255.sched01/tmp06yssb5m/4267g10r58.sdf

>  <i_m_source_file_index>  (138) 
23

>  <i_lp_mmshare_version>  (138) 
48012

>  <i_f3d_flags>  (138) 
0

>  <s_epik_input>  (138) 
W0NIM11bQ0BdMTJbQ0BASF0zW0NAQEhdNFtDQEhdNVtDQEhdNltDQEBIXShbQ0gyXTQpW0NAQEhdM1tDQEBIXTJbQ0BIXTZbQ0BASF0xNQ==

>  <s_epik_cmdline>  (138) 
J2VwaWtfcHl0aG9uJywgJy1waHQnLCAnMi4wJywgJy1waCcsICc3LjAnLCAnLXRuJywgJzgnLCAnLW1hJywgJzIwMCcsICctaW1hZScsICc8aW5maWxlLm1hZT4nLCAnLW9tYWUnLCAnPG91dGZpbGUubWFlPic=

>  <r_lp_tautomer_probability>  (138) 
1

>  <r_epik_Ionization_Penalty>  (138) 
0

>  <r_epik_Ionization_Penalty_Charging>  (138) 
0

>  <r_epik_Ionization_Penalty_Neutral>  (138) 
0

>  <r_epik_State_Penalty>  (138) 
-0

>  <r_epik_Charging_Adjusted_Penalty>  (138) 
0

>  <i_epik_Tot_Q>  (138) 
0

>  <i_epik_Tot_abs_Q>  (138) 
0

>  <s_lp_Force_Field>  (138) 
OPLS3e

>  <r_lp_Energy>  (138) 
78.431

>  <b_lp_Chiralities_Consistent>  (138) 
1

>  <s_lp_Variant>  (138) 
46:0-1

>  <s_i_glide_gridfile>  (138) 
pfpi4k_grid

>  <i_i_glide_lignum>  (138) 
23

>  <i_i_glide_rotatable_bonds>  (138) 
0

>  <r_i_docking_score>  (138) 
-3.12434

>  <r_i_glide_ligand_efficiency>  (138) 
-0.260362

>  <r_i_glide_ligand_efficiency_sa>  (138) 
-0.596079

>  <r_i_glide_ligand_efficiency_ln>  (138) 
-0.896535

>  <r_i_glide_gscore>  (138) 
-3.12434

>  <r_i_glide_lipo>  (138) 
-0.63656

>  <r_i_glide_hbond>  (138) 
0

>  <r_i_glide_metal>  (138) 
-0

>  <r_i_glide_rewards>  (138) 
-2.25

>  <r_i_glide_evdw>  (138) 
-6.76192

>  <r_i_glide_ecoul>  (138) 
0.66877

>  <r_i_glide_erotb>  (138) 
0

>  <r_i_glide_esite>  (138) 
0

>  <r_i_glide_emodel>  (138) 
-5.80288

>  <r_i_glide_energy>  (138) 
-6.09315

>  <r_i_glide_einternal>  (138) 
0

>  <r_i_glide_intrahb_reward>  (138) 
-0

>  <i_i_glide_confnum>  (138) 
2

>  <i_i_glide_posenum>  (138) 
28

>  <r_i_glide_eff_state_penalty>  (138) 
0

>  <ligand_id>  (138) 
46

>  <original_smiles>  (138) 
CC12C3C4CC5C6C4C1C6C2C53

>  <smiles>  (138) 
[H]C([H])([H])C12C3([H])C4([H])C([H])([H])C5([H])C6([H])C4([H])C1([H])C6([H])C2([H])C53[H]

$$$$
47:0:0
     RDKit          3D

 75 80  0  0  1  0  0  0  0  0999 V2000
    6.3852   -2.9545   -1.2642 C   0  0  0  0  0  0  0  0  0  0  0  0
    6.0035   -3.1377    0.2151 C   0  0  2  0  0  0  0  0  0  0  0  0
    6.8078   -4.2651    0.9050 C   0  0  0  0  0  0  0  0  0  0  0  0
    5.7492   -5.0358    1.6904 C   0  0  2  0  0  0  0  0  0  0  0  0
    6.0235   -6.3881    2.0220 O   0  0  0  0  0  0  0  0  0  0  0  0
    5.0766   -7.1203    2.8359 C   0  0  1  0  0  0  0  0  0  0  0  0
    5.3048   -6.4564    4.2622 C   0  0  1  0  0  0  0  0  0  0  0  0
    4.7931   -7.1588    5.3640 O   0  0  0  0  0  0  0  0  0  0  0  0
    6.7570   -6.0459    4.6550 C   0  0  0  0  0  0  0  0  0  0  0  0
    7.9054   -7.0373    4.3930 C   0  0  0  0  0  0  0  0  0  0  0  0
    8.7142   -6.7895    3.4987 O   0  0  0  0  0  0  0  0  0  0  0  0
    8.0425   -8.3149    5.2648 C   0  0  0  0  0  0  0  0  0  0  0  0
    9.4158   -8.9808    5.0222 C   0  0  0  0  0  0  0  0  0  0  0  0
    7.9673   -7.9319    6.7599 C   0  0  0  0  0  0  0  0  0  0  0  0
    6.9388   -9.3219    4.9394 C   0  0  0  0  0  0  0  0  0  0  0  0
    6.0776   -9.2871    3.9028 C   0  0  0  0  0  0  0  0  0  0  0  0
    4.9120   -9.8878    3.2251 C   0  0  1  0  0  0  0  0  0  0  0  0
    3.5176   -9.9368    3.8374 C   0  0  1  0  0  0  0  0  0  0  0  0
    3.4251   -9.8274    5.3771 C   0  0  0  0  0  0  0  0  0  0  0  0
    2.3827   -9.2630    2.9902 C   0  0  1  0  0  0  0  0  0  0  0  0
    2.5218   -9.7915    1.6785 O   0  0  0  0  0  0  0  0  0  0  0  0
    1.0831   -9.7961    3.5890 C   0  0  0  0  0  0  0  0  0  0  0  0
    0.3075   -9.0763    4.4203 C   0  0  0  0  0  0  0  0  0  0  0  0
    0.6010   -7.6546    4.8595 C   0  0  0  0  0  0  0  0  0  0  0  0
    1.8081   -7.0266    4.1402 C   0  0  0  0  0  0  0  0  0  0  0  0
    2.2520   -5.9604    4.5588 O   0  0  0  0  0  0  0  0  0  0  0  0
    2.3086   -7.6763    2.8220 C   0  0  2  0  0  0  0  0  0  0  0  0
    1.1193   -7.3804    1.8349 C   0  0  0  0  0  0  0  0  0  0  0  0
    3.6132   -6.9815    2.1821 C   0  0  1  0  0  0  0  0  0  0  0  0
    3.3433   -5.5107    1.6796 C   0  0  0  0  0  0  0  0  0  0  0  0
    4.5047   -4.9739    0.8524 C   0  0  2  0  0  0  0  0  0  0  0  0
    4.6557   -5.7481   -0.3202 O   0  0  0  0  0  0  0  0  0  0  0  0
    4.5058   -3.4975    0.4241 C   0  0  0  0  0  0  0  0  0  0  0  0
    5.6190   -8.5827    2.6846 C   0  0  1  0  0  0  0  0  0  0  0  0
    6.3938   -8.8449    1.3892 C   0  0  0  0  0  0  0  0  0  0  0  0
    6.1783   -3.8565   -1.8404 H   0  0  0  0  0  0  0  0  0  0  0  0
    7.4452   -2.7291   -1.3745 H   0  0  0  0  0  0  0  0  0  0  0  0
    5.8209   -2.1408   -1.7176 H   0  0  0  0  0  0  0  0  0  0  0  0
    6.1972   -2.1948    0.7293 H   0  0  0  0  0  0  0  0  0  0  0  0
    7.2840   -4.9158    0.1694 H   0  0  0  0  0  0  0  0  0  0  0  0
    7.5880   -3.8792    1.5629 H   0  0  0  0  0  0  0  0  0  0  0  0
    5.5753   -4.4595    2.5964 H   0  0  0  0  0  0  0  0  0  0  0  0
    4.7434   -5.5255    4.2716 H   0  0  0  0  0  0  0  0  0  0  0  0
    5.1701   -8.0275    5.3647 H   0  0  0  0  0  0  0  0  0  0  0  0
    7.0164   -5.1425    4.1106 H   0  0  0  0  0  0  0  0  0  0  0  0
    6.7810   -5.7465    5.7020 H   0  0  0  0  0  0  0  0  0  0  0  0
    9.5337   -9.3034    3.9869 H   0  0  0  0  0  0  0  0  0  0  0  0
    9.5527   -9.8577    5.6569 H   0  0  0  0  0  0  0  0  0  0  0  0
   10.2374   -8.2955    5.2456 H   0  0  0  0  0  0  0  0  0  0  0  0
    6.9839   -7.5561    7.0447 H   0  0  0  0  0  0  0  0  0  0  0  0
    8.7025   -7.1637    7.0134 H   0  0  0  0  0  0  0  0  0  0  0  0
    8.1741   -8.7923    7.3995 H   0  0  0  0  0  0  0  0  0  0  0  0
    6.8395  -10.1330    5.6407 H   0  0  0  0  0  0  0  0  0  0  0  0
    5.0973  -10.7842    2.6338 H   0  0  0  0  0  0  0  0  0  0  0  0
    3.3004  -11.0040    3.7256 H   0  0  0  0  0  0  0  0  0  0  0  0
    3.1371   -8.8430    5.7258 H   0  0  0  0  0  0  0  0  0  0  0  0
    4.3466  -10.1259    5.8743 H   0  0  0  0  0  0  0  0  0  0  0  0
    2.6503  -10.4986    5.7496 H   0  0  0  0  0  0  0  0  0  0  0  0
    2.9594  -10.6336    1.7133 H   0  0  0  0  0  0  0  0  0  0  0  0
    0.8023  -10.8063    3.3330 H   0  0  0  0  0  0  0  0  0  0  0  0
   -0.5841   -9.5165    4.8307 H   0  0  0  0  0  0  0  0  0  0  0  0
   -0.2775   -7.0386    4.6670 H   0  0  0  0  0  0  0  0  0  0  0  0
    0.7672   -7.6446    5.9371 H   0  0  0  0  0  0  0  0  0  0  0  0
    1.3940   -7.5512    0.7956 H   0  0  0  0  0  0  0  0  0  0  0  0
    0.7662   -6.3529    1.9145 H   0  0  0  0  0  0  0  0  0  0  0  0
    0.2282   -7.9838    2.0026 H   0  0  0  0  0  0  0  0  0  0  0  0
    3.7194   -7.5325    1.2481 H   0  0  0  0  0  0  0  0  0  0  0  0
    2.4730   -5.4392    1.0353 H   0  0  0  0  0  0  0  0  0  0  0  0
    3.1521   -4.8446    2.5168 H   0  0  0  0  0  0  0  0  0  0  0  0
    3.8916   -5.6333   -0.8743 H   0  0  0  0  0  0  0  0  0  0  0  0
    4.1103   -2.8822    1.2350 H   0  0  0  0  0  0  0  0  0  0  0  0
    3.8877   -3.2998   -0.4521 H   0  0  0  0  0  0  0  0  0  0  0  0
    5.7854   -8.5761    0.5271 H   0  0  0  0  0  0  0  0  0  0  0  0
    6.6361   -9.9027    1.2944 H   0  0  0  0  0  0  0  0  0  0  0  0
    7.3389   -8.3009    1.3586 H   0  0  0  0  0  0  0  0  0  0  0  0
  1  2  1  0
  1 36  1  0
  1 37  1  0
  1 38  1  0
  2 33  1  0
  2  3  1  0
  2 39  1  1
  3  4  1  0
  3 40  1  0
  3 41  1  0
  4 31  1  0
  4  5  1  0
  4 42  1  1
  6  5  1  6
  6 29  1  0
  6 34  1  0
  6  7  1  0
  7  8  1  0
  7  9  1  0
  7 43  1  6
  8 44  1  0
  9 10  1  0
  9 45  1  0
  9 46  1  0
 10 11  2  0
 10 12  1  0
 12 13  1  0
 12 14  1  0
 12 15  1  0
 13 47  1  0
 13 48  1  0
 13 49  1  0
 14 50  1  0
 14 51  1  0
 14 52  1  0
 15 16  2  3
 15 53  1  0
 16 34  1  0
 16 17  1  0
 17 18  1  0
 17 34  1  0
 17 54  1  6
 18 19  1  0
 18 20  1  0
 18 55  1  1
 19 56  1  0
 19 57  1  0
 19 58  1  0
 20 27  1  0
 20 21  1  6
 20 22  1  0
 21 59  1  0
 22 23  2  0
 22 60  1  0
 23 24  1  0
 23 61  1  0
 24 25  1  0
 24 62  1  0
 24 63  1  0
 25 26  2  0
 25 27  1  0
 27 28  1  6
 27 29  1  0
 28 64  1  0
 28 65  1  0
 28 66  1  0
 29 30  1  0
 29 67  1  6
 30 31  1  0
 30 68  1  0
 30 69  1  0
 31 32  1  6
 31 33  1  0
 32 70  1  0
 33 71  1  0
 33 72  1  0
 34 35  1  6
 35 73  1  0
 35 74  1  0
 35 75  1  0
M  END
>  <i_m_ct_stereo_status>  (139) 
1

>  <s_m_source_file>  (139) 
/var/tmp/pbs.5076255.sched01/tmp06yssb5m/4267g10r58.sdf

>  <i_m_source_file_index>  (139) 
24

>  <i_lp_mmshare_version>  (139) 
48012

>  <i_f3d_flags>  (139) 
0

>  <s_epik_input>  (139) 
W0NIM11bQ0BASF0oW0NIMl0xKVtDSDJdW0NASF0oTzIpW0NAQF0xKFtPSF0pW0NIMl1bQ0BASF0oW0NAQF0yMzQpW0NAQF01KFtDSDNdKVtDQF0oW09IXSkoW0NIXT1bQ0hdW0NIMl1DNT1PKVtDQEhdKFtDSDNdKVtDSF02XEMoQzQ2W0NIM10pPVtDSF1cQyhbQ0gzXSkoW0NIM10pQyg9TylbQ0gyXVtDQEBIXTNbT0hd

>  <s_epik_cmdline>  (139) 
J2VwaWtfcHl0aG9uJywgJy1waHQnLCAnMi4wJywgJy1waCcsICc3LjAnLCAnLXRuJywgJzgnLCAnLW1hJywgJzIwMCcsICctaW1hZScsICc8aW5maWxlLm1hZT4nLCAnLW9tYWUnLCAnPG91dGZpbGUubWFlPic=

>  <r_lp_tautomer_probability>  (139) 
1

>  <r_epik_Ionization_Penalty>  (139) 
3.40864e-07

>  <r_epik_Ionization_Penalty_Charging>  (139) 
0

>  <r_epik_Ionization_Penalty_Neutral>  (139) 
3.40864e-07

>  <r_epik_State_Penalty>  (139) 
-0

>  <r_epik_Charging_Adjusted_Penalty>  (139) 
0

>  <i_epik_Tot_Q>  (139) 
0

>  <i_epik_Tot_abs_Q>  (139) 
0

>  <s_lp_Force_Field>  (139) 
OPLS3e

>  <r_lp_Energy>  (139) 
85.9608

>  <b_lp_Chiralities_Consistent>  (139) 
1

>  <s_lp_Variant>  (139) 
47:0-1

>  <s_i_glide_gridfile>  (139) 
pfpi4k_grid

>  <i_i_glide_lignum>  (139) 
24

>  <i_i_glide_rotatable_bonds>  (139) 
3

>  <r_i_docking_score>  (139) 
-2.60773

>  <r_i_glide_ligand_efficiency>  (139) 
-0.0745067

>  <r_i_glide_ligand_efficiency_sa>  (139) 
-0.243716

>  <r_i_glide_ligand_efficiency_ln>  (139) 
-0.572455

>  <r_i_glide_gscore>  (139) 
-2.60773

>  <r_i_glide_lipo>  (139) 
-0.471283

>  <r_i_glide_hbond>  (139) 
-0.0351744

>  <r_i_glide_metal>  (139) 
-0

>  <r_i_glide_rewards>  (139) 
-0.115574

>  <r_i_glide_evdw>  (139) 
-30.7232

>  <r_i_glide_ecoul>  (139) 
-2.9705

>  <r_i_glide_erotb>  (139) 
0

>  <r_i_glide_esite>  (139) 
-0.00396821

>  <r_i_glide_emodel>  (139) 
-38.7261

>  <r_i_glide_energy>  (139) 
-33.6937

>  <r_i_glide_einternal>  (139) 
0.51969

>  <r_i_glide_intrahb_reward>  (139) 
-0

>  <i_i_glide_confnum>  (139) 
1

>  <i_i_glide_posenum>  (139) 
1

>  <r_i_glide_eff_state_penalty>  (139) 
0

>  <ligand_id>  (139) 
47

>  <original_smiles>  (139) 
CC1CC2OC34C(O)CC(=O)C(C)(C)C=C5C(C(C)C6(O)C=CCC(=O)C6(C)C3CC2(O)C1)C54C

>  <smiles>  (139) 
[H]OC1([H])C([H])([H])C(=O)C(C([H])([H])[H])(C([H])([H])[H])C([H])=C2C3([H])C([H])(C([H])([H])[H])C4(O[H])C([H])=C([H])C([H])([H])C(=O)C4(C([H])([H])[H])C4([H])C([H])([H])C5(O[H])C([H])([H])C([H])(C([H])([H])[H])C([H])([H])C5([H])OC14C23C([H])([H])[H]

$$$$
47:0:1
     RDKit          3D

 75 80  0  0  1  0  0  0  0  0999 V2000
    3.9628   -2.7800   -1.3073 C   0  0  0  0  0  0  0  0  0  0  0  0
    4.0236   -2.9483    0.2217 C   0  0  2  0  0  0  0  0  0  0  0  0
    5.0835   -3.9833    0.6690 C   0  0  0  0  0  0  0  0  0  0  0  0
    4.3490   -4.8219    1.7113 C   0  0  2  0  0  0  0  0  0  0  0  0
    4.8194   -6.1340    1.9605 O   0  0  0  0  0  0  0  0  0  0  0  0
    4.2008   -6.9178    3.0087 C   0  0  1  0  0  0  0  0  0  0  0  0
    4.7509   -6.1953    4.3135 C   0  0  1  0  0  0  0  0  0  0  0  0
    4.6277   -6.9020    5.5168 O   0  0  0  0  0  0  0  0  0  0  0  0
    6.2109   -5.6512    4.2938 C   0  0  0  0  0  0  0  0  0  0  0  0
    7.3241   -6.5535    3.7330 C   0  0  0  0  0  0  0  0  0  0  0  0
    7.8292   -6.2678    2.6454 O   0  0  0  0  0  0  0  0  0  0  0  0
    7.8074   -7.7875    4.5424 C   0  0  0  0  0  0  0  0  0  0  0  0
    9.1179   -8.3373    3.9409 C   0  0  0  0  0  0  0  0  0  0  0  0
    8.1104   -7.3689    5.9986 C   0  0  0  0  0  0  0  0  0  0  0  0
    6.7522   -8.8961    4.5319 C   0  0  0  0  0  0  0  0  0  0  0  0
    5.6402   -8.9619    3.7719 C   0  0  0  0  0  0  0  0  0  0  0  0
    4.3911   -9.6767    3.4413 C   0  0  1  0  0  0  0  0  0  0  0  0
    3.2245   -9.8255    4.4133 C   0  0  1  0  0  0  0  0  0  0  0  0
    3.5466   -9.6822    5.9188 C   0  0  0  0  0  0  0  0  0  0  0  0
    1.8426   -9.2789    3.9104 C   0  0  1  0  0  0  0  0  0  0  0  0
    1.6422   -9.8480    2.6267 O   0  0  0  0  0  0  0  0  0  0  0  0
    0.8155   -9.8989    4.8540 C   0  0  0  0  0  0  0  0  0  0  0  0
    0.2322   -9.2258    5.8603 C   0  0  0  0  0  0  0  0  0  0  0  0
    0.5116   -7.7696    6.1873 C   0  0  0  0  0  0  0  0  0  0  0  0
    1.4202   -7.0756    5.1594 C   0  0  0  0  0  0  0  0  0  0  0  0
    1.9124   -5.9887    5.4515 O   0  0  0  0  0  0  0  0  0  0  0  0
    1.5893   -7.7092    3.7546 C   0  0  2  0  0  0  0  0  0  0  0  0
    0.1549   -7.5396    3.1278 C   0  0  0  0  0  0  0  0  0  0  0  0
    2.6073   -6.9221    2.7829 C   0  0  1  0  0  0  0  0  0  0  0  0
    2.0847   -5.4918    2.3765 C   0  0  0  0  0  0  0  0  0  0  0  0
    2.9171   -4.8817    1.2563 C   0  0  2  0  0  0  0  0  0  0  0  0
    2.7323   -5.6458    0.0860 O   0  0  0  0  0  0  0  0  0  0  0  0
    2.6815   -3.4232    0.8382 C   0  0  0  0  0  0  0  0  0  0  0  0
    4.8078   -8.3320    2.7225 C   0  0  1  0  0  0  0  0  0  0  0  0
    5.2199   -8.5631    1.2657 C   0  0  0  0  0  0  0  0  0  0  0  0
    3.6898   -3.7099   -1.8056 H   0  0  0  0  0  0  0  0  0  0  0  0
    4.9250   -2.4591   -1.7043 H   0  0  0  0  0  0  0  0  0  0  0  0
    3.2234   -2.0282   -1.5863 H   0  0  0  0  0  0  0  0  0  0  0  0
    4.2630   -1.9739    0.6534 H   0  0  0  0  0  0  0  0  0  0  0  0
    5.4017   -4.6098   -0.1663 H   0  0  0  0  0  0  0  0  0  0  0  0
    5.9738   -3.5079    1.0880 H   0  0  0  0  0  0  0  0  0  0  0  0
    4.3824   -4.2359    2.6267 H   0  0  0  0  0  0  0  0  0  0  0  0
    4.1314   -5.3168    4.4734 H   0  0  0  0  0  0  0  0  0  0  0  0
    3.7178   -7.1394    5.6178 H   0  0  0  0  0  0  0  0  0  0  0  0
    6.2287   -4.7442    3.6944 H   0  0  0  0  0  0  0  0  0  0  0  0
    6.4913   -5.3241    5.2946 H   0  0  0  0  0  0  0  0  0  0  0  0
    8.9814   -8.6627    2.9094 H   0  0  0  0  0  0  0  0  0  0  0  0
    9.4988   -9.1864    4.5102 H   0  0  0  0  0  0  0  0  0  0  0  0
    9.9067   -7.5805    3.9279 H   0  0  0  0  0  0  0  0  0  0  0  0
    7.2109   -7.0713    6.5385 H   0  0  0  0  0  0  0  0  0  0  0  0
    8.8157   -6.5343    6.0369 H   0  0  0  0  0  0  0  0  0  0  0  0
    8.5596   -8.1902    6.5602 H   0  0  0  0  0  0  0  0  0  0  0  0
    6.9200   -9.6889    5.2409 H   0  0  0  0  0  0  0  0  0  0  0  0
    4.4875  -10.5716    2.8260 H   0  0  0  0  0  0  0  0  0  0  0  0
    3.0836  -10.9098    4.3684 H   0  0  0  0  0  0  0  0  0  0  0  0
    3.2797   -8.7197    6.3360 H   0  0  0  0  0  0  0  0  0  0  0  0
    4.5930   -9.8825    6.1412 H   0  0  0  0  0  0  0  0  0  0  0  0
    2.9692  -10.4099    6.4904 H   0  0  0  0  0  0  0  0  0  0  0  0
    1.7962  -10.7805    2.6773 H   0  0  0  0  0  0  0  0  0  0  0  0
    0.5566  -10.9354    4.6916 H   0  0  0  0  0  0  0  0  0  0  0  0
   -0.4788   -9.7393    6.4905 H   0  0  0  0  0  0  0  0  0  0  0  0
   -0.4327   -7.2285    6.2286 H   0  0  0  0  0  0  0  0  0  0  0  0
    0.9635   -7.7109    7.1781 H   0  0  0  0  0  0  0  0  0  0  0  0
    0.1486   -7.7167    2.0510 H   0  0  0  0  0  0  0  0  0  0  0  0
   -0.2532   -6.5435    3.3005 H   0  0  0  0  0  0  0  0  0  0  0  0
   -0.5994   -8.2084    3.5422 H   0  0  0  0  0  0  0  0  0  0  0  0
    2.5046   -7.4892    1.8579 H   0  0  0  0  0  0  0  0  0  0  0  0
    1.0736   -5.5155    1.9912 H   0  0  0  0  0  0  0  0  0  0  0  0
    2.0720   -4.8190    3.2280 H   0  0  0  0  0  0  0  0  0  0  0  0
    3.3365   -5.3472   -0.5860 H   0  0  0  0  0  0  0  0  0  0  0  0
    2.4670   -2.8195    1.7197 H   0  0  0  0  0  0  0  0  0  0  0  0
    1.8433   -3.2967    0.1544 H   0  0  0  0  0  0  0  0  0  0  0  0
    4.3868   -8.3589    0.5932 H   0  0  0  0  0  0  0  0  0  0  0  0
    5.5155   -9.6009    1.1099 H   0  0  0  0  0  0  0  0  0  0  0  0
    6.0736   -7.9475    0.9848 H   0  0  0  0  0  0  0  0  0  0  0  0
  1  2  1  0
  1 36  1  0
  1 37  1  0
  1 38  1  0
  2 33  1  0
  2  3  1  0
  2 39  1  1
  3  4  1  0
  3 40  1  0
  3 41  1  0
  4 31  1  0
  4  5  1  0
  4 42  1  1
  6  5  1  6
  6 29  1  0
  6 34  1  0
  6  7  1  0
  7  8  1  0
  7  9  1  0
  7 43  1  1
  8 44  1  0
  9 10  1  0
  9 45  1  0
  9 46  1  0
 10 11  2  0
 10 12  1  0
 12 13  1  0
 12 14  1  0
 12 15  1  0
 13 47  1  0
 13 48  1  0
 13 49  1  0
 14 50  1  0
 14 51  1  0
 14 52  1  0
 15 16  2  3
 15 53  1  0
 16 34  1  0
 16 17  1  0
 17 18  1  0
 17 34  1  0
 17 54  1  6
 18 19  1  0
 18 20  1  0
 18 55  1  1
 19 56  1  0
 19 57  1  0
 19 58  1  0
 20 27  1  0
 20 21  1  6
 20 22  1  0
 21 59  1  0
 22 23  2  0
 22 60  1  0
 23 24  1  0
 23 61  1  0
 24 25  1  0
 24 62  1  0
 24 63  1  0
 25 26  2  0
 25 27  1  0
 27 28  1  6
 27 29  1  0
 28 64  1  0
 28 65  1  0
 28 66  1  0
 29 30  1  0
 29 67  1  6
 30 31  1  0
 30 68  1  0
 30 69  1  0
 31 32  1  6
 31 33  1  0
 32 70  1  0
 33 71  1  0
 33 72  1  0
 34 35  1  6
 35 73  1  0
 35 74  1  0
 35 75  1  0
M  END
>  <i_m_ct_stereo_status>  (140) 
1

>  <s_m_source_file>  (140) 
/var/tmp/pbs.5076255.sched01/tmp06yssb5m/4267g10r58.sdf

>  <i_m_source_file_index>  (140) 
24

>  <i_lp_mmshare_version>  (140) 
48012

>  <i_f3d_flags>  (140) 
0

>  <s_epik_input>  (140) 
W0NIM11bQ0BASF0oW0NIMl0xKVtDSDJdW0NASF0oTzIpW0NAQF0xKFtPSF0pW0NIMl1bQ0BASF0oW0NAQF0yMzQpW0NAQF01KFtDSDNdKVtDQF0oW09IXSkoW0NIXT1bQ0hdW0NIMl1DNT1PKVtDQEhdKFtDSDNdKVtDSF02XEMoQzQ2W0NIM10pPVtDSF1cQyhbQ0gzXSkoW0NIM10pQyg9TylbQ0gyXVtDQEBIXTNbT0hd

>  <s_epik_cmdline>  (140) 
J2VwaWtfcHl0aG9uJywgJy1waHQnLCAnMi4wJywgJy1waCcsICc3LjAnLCAnLXRuJywgJzgnLCAnLW1hJywgJzIwMCcsICctaW1hZScsICc8aW5maWxlLm1hZT4nLCAnLW9tYWUnLCAnPG91dGZpbGUubWFlPic=

>  <r_lp_tautomer_probability>  (140) 
1

>  <r_epik_Ionization_Penalty>  (140) 
3.40864e-07

>  <r_epik_Ionization_Penalty_Charging>  (140) 
0

>  <r_epik_Ionization_Penalty_Neutral>  (140) 
3.40864e-07

>  <r_epik_State_Penalty>  (140) 
-0

>  <r_epik_Charging_Adjusted_Penalty>  (140) 
0

>  <i_epik_Tot_Q>  (140) 
0

>  <i_epik_Tot_abs_Q>  (140) 
0

>  <s_lp_Force_Field>  (140) 
OPLS3e

>  <r_lp_Energy>  (140) 
85.9608

>  <b_lp_Chiralities_Consistent>  (140) 
1

>  <s_lp_Variant>  (140) 
47:0-1

>  <s_i_glide_gridfile>  (140) 
pfpi4k_grid

>  <i_i_glide_lignum>  (140) 
24

>  <i_i_glide_rotatable_bonds>  (140) 
3

>  <r_i_docking_score>  (140) 
-1.96341

>  <r_i_glide_ligand_efficiency>  (140) 
-0.0560974

>  <r_i_glide_ligand_efficiency_sa>  (140) 
-0.183498

>  <r_i_glide_ligand_efficiency_ln>  (140) 
-0.431012

>  <r_i_glide_gscore>  (140) 
-1.96341

>  <r_i_glide_lipo>  (140) 
-0.0766769

>  <r_i_glide_hbond>  (140) 
0

>  <r_i_glide_metal>  (140) 
-0

>  <r_i_glide_rewards>  (140) 
-0.111712

>  <r_i_glide_evdw>  (140) 
-28.484

>  <r_i_glide_ecoul>  (140) 
-2.31153

>  <r_i_glide_erotb>  (140) 
0

>  <r_i_glide_esite>  (140) 
-0.0040925

>  <r_i_glide_emodel>  (140) 
-34.6085

>  <r_i_glide_energy>  (140) 
-30.7955

>  <r_i_glide_einternal>  (140) 
0.427519

>  <r_i_glide_intrahb_reward>  (140) 
-0

>  <i_i_glide_confnum>  (140) 
1

>  <i_i_glide_posenum>  (140) 
39

>  <r_i_glide_eff_state_penalty>  (140) 
0

>  <ligand_id>  (140) 
47

>  <original_smiles>  (140) 
CC1CC2OC34C(O)CC(=O)C(C)(C)C=C5C(C(C)C6(O)C=CCC(=O)C6(C)C3CC2(O)C1)C54C

>  <smiles>  (140) 
[H]OC1([H])C([H])([H])C(=O)C(C([H])([H])[H])(C([H])([H])[H])C([H])=C2C3([H])C([H])(C([H])([H])[H])C4(O[H])C([H])=C([H])C([H])([H])C(=O)C4(C([H])([H])[H])C4([H])C([H])([H])C5(O[H])C([H])([H])C([H])(C([H])([H])[H])C([H])([H])C5([H])OC14C23C([H])([H])[H]

$$$$
47:0:2
     RDKit          3D

 75 80  0  0  1  0  0  0  0  0999 V2000
    3.9521   -2.8211   -1.3627 C   0  0  0  0  0  0  0  0  0  0  0  0
    4.0269   -2.9702    0.1683 C   0  0  2  0  0  0  0  0  0  0  0  0
    5.0595   -4.0316    0.6169 C   0  0  0  0  0  0  0  0  0  0  0  0
    4.3142   -4.8324    1.6811 C   0  0  2  0  0  0  0  0  0  0  0  0
    4.7479   -6.1551    1.9443 O   0  0  0  0  0  0  0  0  0  0  0  0
    4.1169   -6.9037    3.0118 C   0  0  1  0  0  0  0  0  0  0  0  0
    4.7056   -6.1809    4.3009 C   0  0  1  0  0  0  0  0  0  0  0  0
    4.5770   -6.8673    5.5197 O   0  0  0  0  0  0  0  0  0  0  0  0
    6.1825   -5.6834    4.2488 C   0  0  0  0  0  0  0  0  0  0  0  0
    7.2622   -6.6280    3.6880 C   0  0  0  0  0  0  0  0  0  0  0  0
    7.7626   -6.3759    2.5902 O   0  0  0  0  0  0  0  0  0  0  0  0
    7.7136   -7.8654    4.5098 C   0  0  0  0  0  0  0  0  0  0  0  0
    8.9980   -8.4690    3.9020 C   0  0  0  0  0  0  0  0  0  0  0  0
    8.0479   -7.4376    5.9567 C   0  0  0  0  0  0  0  0  0  0  0  0
    6.6215   -8.9381    4.5297 C   0  0  0  0  0  0  0  0  0  0  0  0
    5.4995   -8.9795    3.7853 C   0  0  0  0  0  0  0  0  0  0  0  0
    4.2251   -9.6603    3.4801 C   0  0  1  0  0  0  0  0  0  0  0  0
    3.0668   -9.7585    4.4679 C   0  0  1  0  0  0  0  0  0  0  0  0
    3.4134   -9.6027    5.9666 C   0  0  0  0  0  0  0  0  0  0  0  0
    1.6972   -9.1725    3.9772 C   0  0  1  0  0  0  0  0  0  0  0  0
    1.4602   -9.7540    2.7036 O   0  0  0  0  0  0  0  0  0  0  0  0
    0.6645   -9.7463    4.9408 C   0  0  0  0  0  0  0  0  0  0  0  0
    0.1231   -9.0413    5.9488 C   0  0  0  0  0  0  0  0  0  0  0  0
    0.4528   -7.5911    6.2515 C   0  0  0  0  0  0  0  0  0  0  0  0
    1.3620   -6.9310    5.2013 C   0  0  0  0  0  0  0  0  0  0  0  0
    1.8404   -5.8268    5.4521 O   0  0  0  0  0  0  0  0  0  0  0  0
    1.4939   -7.5968    3.8053 C   0  0  2  0  0  0  0  0  0  0  0  0
    0.0550   -7.3889    3.1951 C   0  0  0  0  0  0  0  0  0  0  0  0
    2.5220   -6.8597    2.8055 C   0  0  1  0  0  0  0  0  0  0  0  0
    2.0405   -5.4205    2.3839 C   0  0  0  0  0  0  0  0  0  0  0  0
    2.8756   -4.8533    1.2421 C   0  0  2  0  0  0  0  0  0  0  0  0
    2.6520   -5.6284    0.0855 O   0  0  0  0  0  0  0  0  0  0  0  0
    2.6791   -3.3949    0.8065 C   0  0  0  0  0  0  0  0  0  0  0  0
    4.6738   -8.3402    2.7355 C   0  0  1  0  0  0  0  0  0  0  0  0
    5.0588   -8.6057    1.2758 C   0  0  0  0  0  0  0  0  0  0  0  0
    3.6441   -3.7494   -1.8457 H   0  0  0  0  0  0  0  0  0  0  0  0
    4.9193   -2.5369   -1.7773 H   0  0  0  0  0  0  0  0  0  0  0  0
    3.2333   -2.0512   -1.6432 H   0  0  0  0  0  0  0  0  0  0  0  0
    4.3040   -1.9987    0.5814 H   0  0  0  0  0  0  0  0  0  0  0  0
    5.3469   -4.6814   -0.2120 H   0  0  0  0  0  0  0  0  0  0  0  0
    5.9702   -3.5783    1.0186 H   0  0  0  0  0  0  0  0  0  0  0  0
    4.3766   -4.2341    2.5878 H   0  0  0  0  0  0  0  0  0  0  0  0
    4.1142   -5.2814    4.4575 H   0  0  0  0  0  0  0  0  0  0  0  0
    5.0448   -7.6865    5.4504 H   0  0  0  0  0  0  0  0  0  0  0  0
    6.2230   -4.7857    3.6362 H   0  0  0  0  0  0  0  0  0  0  0  0
    6.4881   -5.3467    5.2395 H   0  0  0  0  0  0  0  0  0  0  0  0
    8.8303   -8.8124    2.8812 H   0  0  0  0  0  0  0  0  0  0  0  0
    9.3610   -9.3196    4.4816 H   0  0  0  0  0  0  0  0  0  0  0  0
    9.8102   -7.7382    3.8600 H   0  0  0  0  0  0  0  0  0  0  0  0
    7.1687   -7.1012    6.5055 H   0  0  0  0  0  0  0  0  0  0  0  0
    8.7831   -6.6286    5.9744 H   0  0  0  0  0  0  0  0  0  0  0  0
    8.4755   -8.2664    6.5244 H   0  0  0  0  0  0  0  0  0  0  0  0
    6.7768   -9.7296    5.2440 H   0  0  0  0  0  0  0  0  0  0  0  0
    4.2860  -10.5674    2.8797 H   0  0  0  0  0  0  0  0  0  0  0  0
    2.8876  -10.8374    4.4405 H   0  0  0  0  0  0  0  0  0  0  0  0
    3.1851   -8.6220    6.3664 H   0  0  0  0  0  0  0  0  0  0  0  0
    4.4522   -9.8405    6.1823 H   0  0  0  0  0  0  0  0  0  0  0  0
    2.8149  -10.2978    6.5574 H   0  0  0  0  0  0  0  0  0  0  0  0
    1.5820  -10.6893    2.7665 H   0  0  0  0  0  0  0  0  0  0  0  0
    0.3650  -10.7745    4.7971 H   0  0  0  0  0  0  0  0  0  0  0  0
   -0.5962   -9.5225    6.5935 H   0  0  0  0  0  0  0  0  0  0  0  0
   -0.4756   -7.0207    6.2952 H   0  0  0  0  0  0  0  0  0  0  0  0
    0.9169   -7.5312    7.2355 H   0  0  0  0  0  0  0  0  0  0  0  0
    0.0263   -7.5829    2.1223 H   0  0  0  0  0  0  0  0  0  0  0  0
   -0.3188   -6.3791    3.3592 H   0  0  0  0  0  0  0  0  0  0  0  0
   -0.7139   -8.0276    3.6295 H   0  0  0  0  0  0  0  0  0  0  0  0
    2.3872   -7.4376    1.8920 H   0  0  0  0  0  0  0  0  0  0  0  0
    1.0236   -5.4218    2.0130 H   0  0  0  0  0  0  0  0  0  0  0  0
    2.0607   -4.7341    3.2248 H   0  0  0  0  0  0  0  0  0  0  0  0
    3.2586   -5.3596   -0.5963 H   0  0  0  0  0  0  0  0  0  0  0  0
    2.4939   -2.7704    1.6806 H   0  0  0  0  0  0  0  0  0  0  0  0
    1.8369   -3.2519    0.1316 H   0  0  0  0  0  0  0  0  0  0  0  0
    4.2232   -8.3874    0.6114 H   0  0  0  0  0  0  0  0  0  0  0  0
    5.3208   -9.6546    1.1319 H   0  0  0  0  0  0  0  0  0  0  0  0
    5.9272   -8.0213    0.9733 H   0  0  0  0  0  0  0  0  0  0  0  0
  1  2  1  0
  1 36  1  0
  1 37  1  0
  1 38  1  0
  2 33  1  0
  2  3  1  0
  2 39  1  1
  3  4  1  0
  3 40  1  0
  3 41  1  0
  4 31  1  0
  4  5  1  0
  4 42  1  1
  6  5  1  6
  6 29  1  0
  6 34  1  0
  6  7  1  0
  7  8  1  0
  7  9  1  0
  7 43  1  1
  8 44  1  0
  9 10  1  0
  9 45  1  0
  9 46  1  0
 10 11  2  0
 10 12  1  0
 12 13  1  0
 12 14  1  0
 12 15  1  0
 13 47  1  0
 13 48  1  0
 13 49  1  0
 14 50  1  0
 14 51  1  0
 14 52  1  0
 15 16  2  3
 15 53  1  0
 16 34  1  0
 16 17  1  0
 17 18  1  0
 17 34  1  0
 17 54  1  6
 18 19  1  0
 18 20  1  0
 18 55  1  1
 19 56  1  0
 19 57  1  0
 19 58  1  0
 20 27  1  0
 20 21  1  6
 20 22  1  0
 21 59  1  0
 22 23  2  0
 22 60  1  0
 23 24  1  0
 23 61  1  0
 24 25  1  0
 24 62  1  0
 24 63  1  0
 25 26  2  0
 25 27  1  0
 27 28  1  6
 27 29  1  0
 28 64  1  0
 28 65  1  0
 28 66  1  0
 29 30  1  0
 29 67  1  6
 30 31  1  0
 30 68  1  0
 30 69  1  0
 31 32  1  6
 31 33  1  0
 32 70  1  0
 33 71  1  0
 33 72  1  0
 34 35  1  6
 35 73  1  0
 35 74  1  0
 35 75  1  0
M  END
>  <i_m_ct_stereo_status>  (141) 
1

>  <s_m_source_file>  (141) 
/var/tmp/pbs.5076255.sched01/tmp06yssb5m/4267g10r58.sdf

>  <i_m_source_file_index>  (141) 
24

>  <i_lp_mmshare_version>  (141) 
48012

>  <i_f3d_flags>  (141) 
0

>  <s_epik_input>  (141) 
W0NIM11bQ0BASF0oW0NIMl0xKVtDSDJdW0NASF0oTzIpW0NAQF0xKFtPSF0pW0NIMl1bQ0BASF0oW0NAQF0yMzQpW0NAQF01KFtDSDNdKVtDQF0oW09IXSkoW0NIXT1bQ0hdW0NIMl1DNT1PKVtDQEhdKFtDSDNdKVtDSF02XEMoQzQ2W0NIM10pPVtDSF1cQyhbQ0gzXSkoW0NIM10pQyg9TylbQ0gyXVtDQEBIXTNbT0hd

>  <s_epik_cmdline>  (141) 
J2VwaWtfcHl0aG9uJywgJy1waHQnLCAnMi4wJywgJy1waCcsICc3LjAnLCAnLXRuJywgJzgnLCAnLW1hJywgJzIwMCcsICctaW1hZScsICc8aW5maWxlLm1hZT4nLCAnLW9tYWUnLCAnPG91dGZpbGUubWFlPic=

>  <r_lp_tautomer_probability>  (141) 
1

>  <r_epik_Ionization_Penalty>  (141) 
3.40864e-07

>  <r_epik_Ionization_Penalty_Charging>  (141) 
0

>  <r_epik_Ionization_Penalty_Neutral>  (141) 
3.40864e-07

>  <r_epik_State_Penalty>  (141) 
-0

>  <r_epik_Charging_Adjusted_Penalty>  (141) 
0

>  <i_epik_Tot_Q>  (141) 
0

>  <i_epik_Tot_abs_Q>  (141) 
0

>  <s_lp_Force_Field>  (141) 
OPLS3e

>  <r_lp_Energy>  (141) 
85.9608

>  <b_lp_Chiralities_Consistent>  (141) 
1

>  <s_lp_Variant>  (141) 
47:0-1

>  <s_i_glide_gridfile>  (141) 
pfpi4k_grid

>  <i_i_glide_lignum>  (141) 
24

>  <i_i_glide_rotatable_bonds>  (141) 
3

>  <r_i_docking_score>  (141) 
-1.94593

>  <r_i_glide_ligand_efficiency>  (141) 
-0.055598

>  <r_i_glide_ligand_efficiency_sa>  (141) 
-0.181865

>  <r_i_glide_ligand_efficiency_ln>  (141) 
-0.427175

>  <r_i_glide_gscore>  (141) 
-1.94593

>  <r_i_glide_lipo>  (141) 
-0.0608945

>  <r_i_glide_hbond>  (141) 
0

>  <r_i_glide_metal>  (141) 
-0

>  <r_i_glide_rewards>  (141) 
-0.109441

>  <r_i_glide_evdw>  (141) 
-28.4614

>  <r_i_glide_ecoul>  (141) 
-2.32538

>  <r_i_glide_erotb>  (141) 
0

>  <r_i_glide_esite>  (141) 
-0.00371922

>  <r_i_glide_emodel>  (141) 
-34.7047

>  <r_i_glide_energy>  (141) 
-30.7867

>  <r_i_glide_einternal>  (141) 
0.0826446

>  <r_i_glide_intrahb_reward>  (141) 
-0

>  <i_i_glide_confnum>  (141) 
2

>  <i_i_glide_posenum>  (141) 
28

>  <r_i_glide_eff_state_penalty>  (141) 
0

>  <ligand_id>  (141) 
47

>  <original_smiles>  (141) 
CC1CC2OC34C(O)CC(=O)C(C)(C)C=C5C(C(C)C6(O)C=CCC(=O)C6(C)C3CC2(O)C1)C54C

>  <smiles>  (141) 
[H]OC1([H])C([H])([H])C(=O)C(C([H])([H])[H])(C([H])([H])[H])C([H])=C2C3([H])C([H])(C([H])([H])[H])C4(O[H])C([H])=C([H])C([H])([H])C(=O)C4(C([H])([H])[H])C4([H])C([H])([H])C5(O[H])C([H])([H])C([H])(C([H])([H])[H])C([H])([H])C5([H])OC14C23C([H])([H])[H]

$$$$
47:1:0
     RDKit          3D

 75 80  0  0  1  0  0  0  0  0999 V2000
    4.2675   -1.3510   -1.0154 C   0  0  0  0  0  0  0  0  0  0  0  0
    4.1242   -2.8807   -1.0813 C   0  0  2  0  0  0  0  0  0  0  0  0
    3.0112   -3.4192   -0.1493 C   0  0  0  0  0  0  0  0  0  0  0  0
    3.6623   -4.6227    0.5304 C   0  0  2  0  0  0  0  0  0  0  0  0
    3.1271   -5.0769    1.7731 O   0  0  0  0  0  0  0  0  0  0  0  0
    3.6815   -6.2260    2.4863 C   0  0  1  0  0  0  0  0  0  0  0  0
    3.0746   -7.4302    1.6591 C   0  0  1  0  0  0  0  0  0  0  0  0
    3.9467   -8.4644    1.2968 O   0  0  0  0  0  0  0  0  0  0  0  0
    1.6351   -7.9258    1.9555 C   0  0  0  0  0  0  0  0  0  0  0  0
    1.5153   -9.1352    2.8922 C   0  0  0  0  0  0  0  0  0  0  0  0
    1.9143  -10.2368    2.5158 O   0  0  0  0  0  0  0  0  0  0  0  0
    0.9380   -8.9308    4.3090 C   0  0  0  0  0  0  0  0  0  0  0  0
   -0.3810   -8.1308    4.2835 C   0  0  0  0  0  0  0  0  0  0  0  0
    0.6366  -10.3131    4.9390 C   0  0  0  0  0  0  0  0  0  0  0  0
    1.9988   -8.2337    5.1428 C   0  0  0  0  0  0  0  0  0  0  0  0
    2.7174   -7.1438    4.8157 C   0  0  0  0  0  0  0  0  0  0  0  0
    3.7342   -6.1960    5.2723 C   0  0  1  0  0  0  0  0  0  0  0  0
    5.1528   -6.6731    5.5844 C   0  0  1  0  0  0  0  0  0  0  0  0
    5.1510   -7.1136    7.0714 C   0  0  0  0  0  0  0  0  0  0  0  0
    5.8495   -7.6927    4.6088 C   0  0  1  0  0  0  0  0  0  0  0  0
    7.0112   -8.0887    5.3242 O   0  0  0  0  0  0  0  0  0  0  0  0
    5.1017   -9.0023    4.4526 C   0  0  0  0  0  0  0  0  0  0  0  0
    5.3661   -9.8732    3.4668 C   0  0  0  0  0  0  0  0  0  0  0  0
    6.4597   -9.6551    2.4470 C   0  0  0  0  0  0  0  0  0  0  0  0
    6.8148   -8.1739    2.2293 C   0  0  0  0  0  0  0  0  0  0  0  0
    7.5416   -7.8934    1.2748 O   0  0  0  0  0  0  0  0  0  0  0  0
    6.3278   -7.0610    3.2199 C   0  0  2  0  0  0  0  0  0  0  0  0
    7.6359   -6.2357    3.5252 C   0  0  0  0  0  0  0  0  0  0  0  0
    5.2923   -6.0339    2.5252 C   0  0  1  0  0  0  0  0  0  0  0  0
    5.8299   -5.5055    1.1416 C   0  0  0  0  0  0  0  0  0  0  0  0
    5.1057   -4.2451    0.7009 C   0  0  2  0  0  0  0  0  0  0  0  0
    5.2983   -3.2039    1.6435 O   0  0  0  0  0  0  0  0  0  0  0  0
    5.4155   -3.6378   -0.6753 C   0  0  0  0  0  0  0  0  0  0  0  0
    2.9937   -6.0100    3.8887 C   0  0  1  0  0  0  0  0  0  0  0  0
    1.8926   -4.9347    3.9301 C   0  0  0  0  0  0  0  0  0  0  0  0
    4.5270   -1.0096   -0.0138 H   0  0  0  0  0  0  0  0  0  0  0  0
    3.3340   -0.8658   -1.2984 H   0  0  0  0  0  0  0  0  0  0  0  0
    5.0398   -0.9950   -1.6967 H   0  0  0  0  0  0  0  0  0  0  0  0
    3.8848   -3.1483   -2.1125 H   0  0  0  0  0  0  0  0  0  0  0  0
    2.7126   -2.6708    0.5867 H   0  0  0  0  0  0  0  0  0  0  0  0
    2.1185   -3.7046   -0.7104 H   0  0  0  0  0  0  0  0  0  0  0  0
    3.6181   -5.4117   -0.2182 H   0  0  0  0  0  0  0  0  0  0  0  0
    2.9255   -7.0523    0.6625 H   0  0  0  0  0  0  0  0  0  0  0  0
    3.9539   -9.1138    1.9887 H   0  0  0  0  0  0  0  0  0  0  0  0
    1.0308   -7.0982    2.3140 H   0  0  0  0  0  0  0  0  0  0  0  0
    1.1731   -8.2349    1.0202 H   0  0  0  0  0  0  0  0  0  0  0  0
   -0.2358   -7.0901    4.0014 H   0  0  0  0  0  0  0  0  0  0  0  0
   -0.8505   -8.1297    5.2675 H   0  0  0  0  0  0  0  0  0  0  0  0
   -1.0970   -8.5775    3.5888 H   0  0  0  0  0  0  0  0  0  0  0  0
    1.5247  -10.9441    5.0266 H   0  0  0  0  0  0  0  0  0  0  0  0
   -0.0920  -10.8666    4.3399 H   0  0  0  0  0  0  0  0  0  0  0  0
    0.2156  -10.2195    5.9429 H   0  0  0  0  0  0  0  0  0  0  0  0
    2.2090   -8.6988    6.0936 H   0  0  0  0  0  0  0  0  0  0  0  0
    3.4420   -5.4393    5.9968 H   0  0  0  0  0  0  0  0  0  0  0  0
    5.7516   -5.7635    5.5708 H   0  0  0  0  0  0  0  0  0  0  0  0
    4.6040   -8.0444    7.2110 H   0  0  0  0  0  0  0  0  0  0  0  0
    4.6777   -6.3620    7.7005 H   0  0  0  0  0  0  0  0  0  0  0  0
    6.1550   -7.2481    7.4728 H   0  0  0  0  0  0  0  0  0  0  0  0
    7.4702   -8.7296    4.8038 H   0  0  0  0  0  0  0  0  0  0  0  0
    4.3610   -9.2535    5.1907 H   0  0  0  0  0  0  0  0  0  0  0  0
    4.8393  -10.8155    3.4164 H   0  0  0  0  0  0  0  0  0  0  0  0
    7.3489  -10.2149    2.7368 H   0  0  0  0  0  0  0  0  0  0  0  0
    6.1305  -10.0664    1.4920 H   0  0  0  0  0  0  0  0  0  0  0  0
    7.4770   -5.4601    4.2714 H   0  0  0  0  0  0  0  0  0  0  0  0
    8.0862   -5.7454    2.6699 H   0  0  0  0  0  0  0  0  0  0  0  0
    8.4618   -6.8500    3.8847 H   0  0  0  0  0  0  0  0  0  0  0  0
    5.3856   -5.1678    3.1779 H   0  0  0  0  0  0  0  0  0  0  0  0
    6.8826   -5.2561    1.1391 H   0  0  0  0  0  0  0  0  0  0  0  0
    5.7125   -6.2725    0.3766 H   0  0  0  0  0  0  0  0  0  0  0  0
    4.7116   -2.5008    1.4105 H   0  0  0  0  0  0  0  0  0  0  0  0
    5.5915   -4.4318   -1.4021 H   0  0  0  0  0  0  0  0  0  0  0  0
    6.3028   -3.0056   -0.6730 H   0  0  0  0  0  0  0  0  0  0  0  0
    2.3221   -3.9418    3.7986 H   0  0  0  0  0  0  0  0  0  0  0  0
    1.3924   -4.9368    4.8989 H   0  0  0  0  0  0  0  0  0  0  0  0
    1.1273   -5.0938    3.1746 H   0  0  0  0  0  0  0  0  0  0  0  0
  1  2  1  0
  1 36  1  0
  1 37  1  0
  1 38  1  0
  2 33  1  0
  2  3  1  0
  2 39  1  6
  3  4  1  0
  3 40  1  0
  3 41  1  0
  4 31  1  0
  4  5  1  0
  4 42  1  6
  6  5  1  6
  6 29  1  0
  6 34  1  0
  6  7  1  0
  7  8  1  0
  7  9  1  0
  7 43  1  6
  8 44  1  0
  9 10  1  0
  9 45  1  0
  9 46  1  0
 10 11  2  0
 10 12  1  0
 12 13  1  0
 12 14  1  0
 12 15  1  0
 13 47  1  0
 13 48  1  0
 13 49  1  0
 14 50  1  0
 14 51  1  0
 14 52  1  0
 15 16  2  3
 15 53  1  0
 16 34  1  0
 16 17  1  0
 17 18  1  0
 17 34  1  0
 17 54  1  1
 18 19  1  0
 18 20  1  0
 18 55  1  1
 19 56  1  0
 19 57  1  0
 19 58  1  0
 20 27  1  0
 20 21  1  1
 20 22  1  0
 21 59  1  0
 22 23  2  0
 22 60  1  0
 23 24  1  0
 23 61  1  0
 24 25  1  0
 24 62  1  0
 24 63  1  0
 25 26  2  0
 25 27  1  0
 27 28  1  1
 27 29  1  0
 28 64  1  0
 28 65  1  0
 28 66  1  0
 29 30  1  0
 29 67  1  1
 30 31  1  0
 30 68  1  0
 30 69  1  0
 31 32  1  1
 31 33  1  0
 32 70  1  0
 33 71  1  0
 33 72  1  0
 34 35  1  6
 35 73  1  0
 35 74  1  0
 35 75  1  0
M  END
>  <i_m_ct_stereo_status>  (142) 
1

>  <s_m_source_file>  (142) 
/var/tmp/pbs.5076255.sched01/tmp06yssb5m/4267g10r58.sdf

>  <i_m_source_file_index>  (142) 
25

>  <i_lp_mmshare_version>  (142) 
48012

>  <i_f3d_flags>  (142) 
0

>  <s_epik_input>  (142) 
W0NIM11bQ0BASF0oW0NIMl0xKVtDSDJdW0NASF0oTzIpW0NAQF0xKFtPSF0pW0NIMl1bQ0BASF0oW0NAQF0yMzQpW0NAQF01KFtDSDNdKVtDQF0oW09IXSkoW0NIXT1bQ0hdW0NIMl1DNT1PKVtDQEhdKFtDSDNdKVtDSF02XEMoQzQ2W0NIM10pPVtDSF1cQyhbQ0gzXSkoW0NIM10pQyg9TylbQ0gyXVtDQEBIXTNbT0hd

>  <s_epik_cmdline>  (142) 
J2VwaWtfcHl0aG9uJywgJy1waHQnLCAnMi4wJywgJy1waCcsICc3LjAnLCAnLXRuJywgJzgnLCAnLW1hJywgJzIwMCcsICctaW1hZScsICc8aW5maWxlLm1hZT4nLCAnLW9tYWUnLCAnPG91dGZpbGUubWFlPic=

>  <r_lp_tautomer_probability>  (142) 
1

>  <r_epik_Ionization_Penalty>  (142) 
3.40864e-07

>  <r_epik_Ionization_Penalty_Charging>  (142) 
0

>  <r_epik_Ionization_Penalty_Neutral>  (142) 
3.40864e-07

>  <r_epik_State_Penalty>  (142) 
-0

>  <r_epik_Charging_Adjusted_Penalty>  (142) 
0

>  <i_epik_Tot_Q>  (142) 
0

>  <i_epik_Tot_abs_Q>  (142) 
0

>  <s_lp_Force_Field>  (142) 
OPLS3e

>  <r_lp_Energy>  (142) 
101.959

>  <b_lp_Chiralities_Consistent>  (142) 
1

>  <s_lp_Variant>  (142) 
47:0-2

>  <s_i_glide_gridfile>  (142) 
pfpi4k_grid

>  <i_i_glide_lignum>  (142) 
25

>  <i_i_glide_rotatable_bonds>  (142) 
3

>  <r_i_docking_score>  (142) 
-2.27927

>  <r_i_glide_ligand_efficiency>  (142) 
-0.065122

>  <r_i_glide_ligand_efficiency_sa>  (142) 
-0.213018

>  <r_i_glide_ligand_efficiency_ln>  (142) 
-0.50035

>  <r_i_glide_gscore>  (142) 
-2.27927

>  <r_i_glide_lipo>  (142) 
-0.249921

>  <r_i_glide_hbond>  (142) 
0

>  <r_i_glide_metal>  (142) 
-0

>  <r_i_glide_rewards>  (142) 
-0.21442

>  <r_i_glide_evdw>  (142) 
-33.0845

>  <r_i_glide_ecoul>  (142) 
-1.07137

>  <r_i_glide_erotb>  (142) 
0

>  <r_i_glide_esite>  (142) 
0

>  <r_i_glide_emodel>  (142) 
-38.3286

>  <r_i_glide_energy>  (142) 
-34.1558

>  <r_i_glide_einternal>  (142) 
0.26529

>  <r_i_glide_intrahb_reward>  (142) 
-0

>  <i_i_glide_confnum>  (142) 
1

>  <i_i_glide_posenum>  (142) 
10

>  <r_i_glide_eff_state_penalty>  (142) 
0

>  <ligand_id>  (142) 
47

>  <original_smiles>  (142) 
CC1CC2OC34C(O)CC(=O)C(C)(C)C=C5C(C(C)C6(O)C=CCC(=O)C6(C)C3CC2(O)C1)C54C

>  <smiles>  (142) 
[H]OC1([H])C([H])([H])C(=O)C(C([H])([H])[H])(C([H])([H])[H])C([H])=C2C3([H])C([H])(C([H])([H])[H])C4(O[H])C([H])=C([H])C([H])([H])C(=O)C4(C([H])([H])[H])C4([H])C([H])([H])C5(O[H])C([H])([H])C([H])(C([H])([H])[H])C([H])([H])C5([H])OC14C23C([H])([H])[H]

$$$$
47:1:1
     RDKit          3D

 75 80  0  0  1  0  0  0  0  0999 V2000
    4.0614   -1.5842   -1.2092 C   0  0  0  0  0  0  0  0  0  0  0  0
    3.9374   -3.1179   -1.2118 C   0  0  2  0  0  0  0  0  0  0  0  0
    2.8940   -3.6402   -0.1947 C   0  0  0  0  0  0  0  0  0  0  0  0
    3.6069   -4.8112    0.4849 C   0  0  2  0  0  0  0  0  0  0  0  0
    3.1559   -5.2294    1.7730 O   0  0  0  0  0  0  0  0  0  0  0  0
    3.7731   -6.3454    2.4877 C   0  0  1  0  0  0  0  0  0  0  0  0
    3.1398   -7.5897    1.7400 C   0  0  1  0  0  0  0  0  0  0  0  0
    4.0176   -8.6142    1.3555 O   0  0  0  0  0  0  0  0  0  0  0  0
    1.7318   -8.0939    2.1514 C   0  0  0  0  0  0  0  0  0  0  0  0
    1.6882   -9.2668    3.1346 C   0  0  0  0  0  0  0  0  0  0  0  0
    2.0576  -10.3812    2.7643 O   0  0  0  0  0  0  0  0  0  0  0  0
    1.1976   -9.0193    4.5767 C   0  0  0  0  0  0  0  0  0  0  0  0
   -0.1353   -8.2400    4.6050 C   0  0  0  0  0  0  0  0  0  0  0  0
    0.9608  -10.3805    5.2771 C   0  0  0  0  0  0  0  0  0  0  0  0
    2.2946   -8.2772    5.3186 C   0  0  0  0  0  0  0  0  0  0  0  0
    2.9739   -7.1873    4.9079 C   0  0  0  0  0  0  0  0  0  0  0  0
    4.0009   -6.2098    5.2653 C   0  0  1  0  0  0  0  0  0  0  0  0
    5.4431   -6.6544    5.5075 C   0  0  1  0  0  0  0  0  0  0  0  0
    5.5410   -7.0423    7.0052 C   0  0  0  0  0  0  0  0  0  0  0  0
    6.0942   -7.6998    4.5293 C   0  0  1  0  0  0  0  0  0  0  0  0
    7.3063   -8.0521    5.1797 O   0  0  0  0  0  0  0  0  0  0  0  0
    5.3587   -9.0244    4.4666 C   0  0  0  0  0  0  0  0  0  0  0  0
    5.5739   -9.9271    3.5004 C   0  0  0  0  0  0  0  0  0  0  0  0
    6.5946   -9.7316    2.4040 C   0  0  0  0  0  0  0  0  0  0  0  0
    6.9193   -8.2546    2.1214 C   0  0  0  0  0  0  0  0  0  0  0  0
    7.6094   -7.9993    1.1342 O   0  0  0  0  0  0  0  0  0  0  0  0
    6.4725   -7.1121    3.0930 C   0  0  2  0  0  0  0  0  0  0  0  0
    7.7834   -6.2558    3.2802 C   0  0  0  0  0  0  0  0  0  0  0  0
    5.3792   -6.1273    2.4229 C   0  0  1  0  0  0  0  0  0  0  0  0
    5.8227   -5.6411    0.9906 C   0  0  0  0  0  0  0  0  0  0  0  0
    5.0515   -4.4075    0.5514 C   0  0  2  0  0  0  0  0  0  0  0  0
    5.2874   -3.3304    1.4431 O   0  0  0  0  0  0  0  0  0  0  0  0
    5.2627   -3.8444   -0.8625 C   0  0  0  0  0  0  0  0  0  0  0  0
    3.1698   -6.0875    3.9240 C   0  0  1  0  0  0  0  0  0  0  0  0
    2.0569   -5.0254    3.9989 C   0  0  0  0  0  0  0  0  0  0  0  0
    4.3771   -1.2059   -0.2378 H   0  0  0  0  0  0  0  0  0  0  0  0
    3.1060   -1.1169   -1.4499 H   0  0  0  0  0  0  0  0  0  0  0  0
    4.7866   -1.2451   -1.9476 H   0  0  0  0  0  0  0  0  0  0  0  0
    3.6390   -3.4251   -2.2159 H   0  0  0  0  0  0  0  0  0  0  0  0
    2.6283   -2.8708    0.5329 H   0  0  0  0  0  0  0  0  0  0  0  0
    1.9748   -3.9627   -0.6905 H   0  0  0  0  0  0  0  0  0  0  0  0
    3.5280   -5.6279   -0.2300 H   0  0  0  0  0  0  0  0  0  0  0  0
    2.9094   -7.2493    0.7475 H   0  0  0  0  0  0  0  0  0  0  0  0
    3.5202   -9.3514    1.0272 H   0  0  0  0  0  0  0  0  0  0  0  0
    1.1397   -7.2603    2.5192 H   0  0  0  0  0  0  0  0  0  0  0  0
    1.2059   -8.4392    1.2642 H   0  0  0  0  0  0  0  0  0  0  0  0
   -0.0256   -7.2085    4.2750 H   0  0  0  0  0  0  0  0  0  0  0  0
   -0.5424   -8.2063    5.6160 H   0  0  0  0  0  0  0  0  0  0  0  0
   -0.8859   -8.7240    3.9766 H   0  0  0  0  0  0  0  0  0  0  0  0
    1.8630  -10.9941    5.3335 H   0  0  0  0  0  0  0  0  0  0  0  0
    0.2155  -10.9748    4.7463 H   0  0  0  0  0  0  0  0  0  0  0  0
    0.5946  -10.2516    6.2987 H   0  0  0  0  0  0  0  0  0  0  0  0
    2.5704   -8.7036    6.2714 H   0  0  0  0  0  0  0  0  0  0  0  0
    3.7395   -5.4334    5.9816 H   0  0  0  0  0  0  0  0  0  0  0  0
    6.0237   -5.7389    5.4235 H   0  0  0  0  0  0  0  0  0  0  0  0
    5.0203   -7.9764    7.2106 H   0  0  0  0  0  0  0  0  0  0  0  0
    5.0937   -6.2759    7.6361 H   0  0  0  0  0  0  0  0  0  0  0  0
    6.5697   -7.1468    7.3476 H   0  0  0  0  0  0  0  0  0  0  0  0
    7.7468   -8.6945    4.6444 H   0  0  0  0  0  0  0  0  0  0  0  0
    4.6676   -9.2587    5.2560 H   0  0  0  0  0  0  0  0  0  0  0  0
    5.0549  -10.8751    3.5100 H   0  0  0  0  0  0  0  0  0  0  0  0
    7.5049  -10.2720    2.6593 H   0  0  0  0  0  0  0  0  0  0  0  0
    6.2105  -10.1799    1.4853 H   0  0  0  0  0  0  0  0  0  0  0  0
    7.6578   -5.4598    4.0084 H   0  0  0  0  0  0  0  0  0  0  0  0
    8.1711   -5.7901    2.3835 H   0  0  0  0  0  0  0  0  0  0  0  0
    8.6410   -6.8448    3.6065 H   0  0  0  0  0  0  0  0  0  0  0  0
    5.4957   -5.2357    3.0386 H   0  0  0  0  0  0  0  0  0  0  0  0
    6.8689   -5.3774    0.9117 H   0  0  0  0  0  0  0  0  0  0  0  0
    5.6685   -6.4371    0.2644 H   0  0  0  0  0  0  0  0  0  0  0  0
    4.6803   -2.6399    1.2216 H   0  0  0  0  0  0  0  0  0  0  0  0
    5.4050   -4.6622   -1.5704 H   0  0  0  0  0  0  0  0  0  0  0  0
    6.1394   -3.2025   -0.9405 H   0  0  0  0  0  0  0  0  0  0  0  0
    2.4613   -4.0327    3.8079 H   0  0  0  0  0  0  0  0  0  0  0  0
    1.6186   -4.9987    4.9959 H   0  0  0  0  0  0  0  0  0  0  0  0
    1.2486   -5.2217    3.2995 H   0  0  0  0  0  0  0  0  0  0  0  0
  1  2  1  0
  1 36  1  0
  1 37  1  0
  1 38  1  0
  2 33  1  0
  2  3  1  0
  2 39  1  6
  3  4  1  0
  3 40  1  0
  3 41  1  0
  4 31  1  0
  4  5  1  0
  4 42  1  6
  6  5  1  6
  6 29  1  0
  6 34  1  0
  6  7  1  0
  7  8  1  0
  7  9  1  0
  7 43  1  6
  8 44  1  0
  9 10  1  0
  9 45  1  0
  9 46  1  0
 10 11  2  0
 10 12  1  0
 12 13  1  0
 12 14  1  0
 12 15  1  0
 13 47  1  0
 13 48  1  0
 13 49  1  0
 14 50  1  0
 14 51  1  0
 14 52  1  0
 15 16  2  3
 15 53  1  0
 16 34  1  0
 16 17  1  0
 17 18  1  0
 17 34  1  0
 17 54  1  1
 18 19  1  0
 18 20  1  0
 18 55  1  1
 19 56  1  0
 19 57  1  0
 19 58  1  0
 20 27  1  0
 20 21  1  1
 20 22  1  0
 21 59  1  0
 22 23  2  0
 22 60  1  0
 23 24  1  0
 23 61  1  0
 24 25  1  0
 24 62  1  0
 24 63  1  0
 25 26  2  0
 25 27  1  0
 27 28  1  1
 27 29  1  0
 28 64  1  0
 28 65  1  0
 28 66  1  0
 29 30  1  0
 29 67  1  1
 30 31  1  0
 30 68  1  0
 30 69  1  0
 31 32  1  1
 31 33  1  0
 32 70  1  0
 33 71  1  0
 33 72  1  0
 34 35  1  6
 35 73  1  0
 35 74  1  0
 35 75  1  0
M  END
>  <i_m_ct_stereo_status>  (143) 
1

>  <s_m_source_file>  (143) 
/var/tmp/pbs.5076255.sched01/tmp06yssb5m/4267g10r58.sdf

>  <i_m_source_file_index>  (143) 
25

>  <i_lp_mmshare_version>  (143) 
48012

>  <i_f3d_flags>  (143) 
0

>  <s_epik_input>  (143) 
W0NIM11bQ0BASF0oW0NIMl0xKVtDSDJdW0NASF0oTzIpW0NAQF0xKFtPSF0pW0NIMl1bQ0BASF0oW0NAQF0yMzQpW0NAQF01KFtDSDNdKVtDQF0oW09IXSkoW0NIXT1bQ0hdW0NIMl1DNT1PKVtDQEhdKFtDSDNdKVtDSF02XEMoQzQ2W0NIM10pPVtDSF1cQyhbQ0gzXSkoW0NIM10pQyg9TylbQ0gyXVtDQEBIXTNbT0hd

>  <s_epik_cmdline>  (143) 
J2VwaWtfcHl0aG9uJywgJy1waHQnLCAnMi4wJywgJy1waCcsICc3LjAnLCAnLXRuJywgJzgnLCAnLW1hJywgJzIwMCcsICctaW1hZScsICc8aW5maWxlLm1hZT4nLCAnLW9tYWUnLCAnPG91dGZpbGUubWFlPic=

>  <r_lp_tautomer_probability>  (143) 
1

>  <r_epik_Ionization_Penalty>  (143) 
3.40864e-07

>  <r_epik_Ionization_Penalty_Charging>  (143) 
0

>  <r_epik_Ionization_Penalty_Neutral>  (143) 
3.40864e-07

>  <r_epik_State_Penalty>  (143) 
-0

>  <r_epik_Charging_Adjusted_Penalty>  (143) 
0

>  <i_epik_Tot_Q>  (143) 
0

>  <i_epik_Tot_abs_Q>  (143) 
0

>  <s_lp_Force_Field>  (143) 
OPLS3e

>  <r_lp_Energy>  (143) 
101.959

>  <b_lp_Chiralities_Consistent>  (143) 
1

>  <s_lp_Variant>  (143) 
47:0-2

>  <s_i_glide_gridfile>  (143) 
pfpi4k_grid

>  <i_i_glide_lignum>  (143) 
25

>  <i_i_glide_rotatable_bonds>  (143) 
3

>  <r_i_docking_score>  (143) 
-2.26457

>  <r_i_glide_ligand_efficiency>  (143) 
-0.0647021

>  <r_i_glide_ligand_efficiency_sa>  (143) 
-0.211645

>  <r_i_glide_ligand_efficiency_ln>  (143) 
-0.497124

>  <r_i_glide_gscore>  (143) 
-2.26457

>  <r_i_glide_lipo>  (143) 
-0.230833

>  <r_i_glide_hbond>  (143) 
0

>  <r_i_glide_metal>  (143) 
-0

>  <r_i_glide_rewards>  (143) 
-0.23746

>  <r_i_glide_evdw>  (143) 
-32.2916

>  <r_i_glide_ecoul>  (143) 
-1.18829

>  <r_i_glide_erotb>  (143) 
0

>  <r_i_glide_esite>  (143) 
-0.00346041

>  <r_i_glide_emodel>  (143) 
-37.4568

>  <r_i_glide_energy>  (143) 
-33.4798

>  <r_i_glide_einternal>  (143) 
0.531567

>  <r_i_glide_intrahb_reward>  (143) 
-0

>  <i_i_glide_confnum>  (143) 
2

>  <i_i_glide_posenum>  (143) 
9

>  <r_i_glide_eff_state_penalty>  (143) 
0

>  <ligand_id>  (143) 
47

>  <original_smiles>  (143) 
CC1CC2OC34C(O)CC(=O)C(C)(C)C=C5C(C(C)C6(O)C=CCC(=O)C6(C)C3CC2(O)C1)C54C

>  <smiles>  (143) 
[H]OC1([H])C([H])([H])C(=O)C(C([H])([H])[H])(C([H])([H])[H])C([H])=C2C3([H])C([H])(C([H])([H])[H])C4(O[H])C([H])=C([H])C([H])([H])C(=O)C4(C([H])([H])[H])C4([H])C([H])([H])C5(O[H])C([H])([H])C([H])(C([H])([H])[H])C([H])([H])C5([H])OC14C23C([H])([H])[H]

$$$$
47:1:2
     RDKit          3D

 75 80  0  0  1  0  0  0  0  0999 V2000
    4.2517   -1.3925   -0.9959 C   0  0  0  0  0  0  0  0  0  0  0  0
    4.1311   -2.9240   -1.0655 C   0  0  2  0  0  0  0  0  0  0  0  0
    3.0248   -3.4814   -0.1370 C   0  0  0  0  0  0  0  0  0  0  0  0
    3.6960   -4.6778    0.5410 C   0  0  2  0  0  0  0  0  0  0  0  0
    3.1666   -5.1444    1.7818 O   0  0  0  0  0  0  0  0  0  0  0  0
    3.7400   -6.2861    2.4916 C   0  0  1  0  0  0  0  0  0  0  0  0
    3.1571   -7.4980    1.6579 C   0  0  1  0  0  0  0  0  0  0  0  0
    4.0569   -8.5105    1.2912 O   0  0  0  0  0  0  0  0  0  0  0  0
    1.7251   -8.0107    1.9597 C   0  0  0  0  0  0  0  0  0  0  0  0
    1.6220   -9.2209    2.8902 C   0  0  0  0  0  0  0  0  0  0  0  0
    2.0258  -10.3148    2.4976 O   0  0  0  0  0  0  0  0  0  0  0  0
    1.0393   -9.0355    4.3081 C   0  0  0  0  0  0  0  0  0  0  0  0
   -0.2934   -8.2559    4.2832 C   0  0  0  0  0  0  0  0  0  0  0  0
    0.7585  -10.4253    4.9344 C   0  0  0  0  0  0  0  0  0  0  0  0
    2.0851   -8.3243    5.1469 C   0  0  0  0  0  0  0  0  0  0  0  0
    2.7869   -7.2207    4.8225 C   0  0  0  0  0  0  0  0  0  0  0  0
    3.7881   -6.2579    5.2814 C   0  0  1  0  0  0  0  0  0  0  0  0
    5.2126   -6.7141    5.5956 C   0  0  1  0  0  0  0  0  0  0  0  0
    5.2171   -7.1582    7.0828 C   0  0  0  0  0  0  0  0  0  0  0  0
    5.9236   -7.7217    4.6174 C   0  0  1  0  0  0  0  0  0  0  0  0
    7.0898   -8.1026    5.3315 O   0  0  0  0  0  0  0  0  0  0  0  0
    5.1947   -9.0418    4.4573 C   0  0  0  0  0  0  0  0  0  0  0  0
    5.4796   -9.9073    3.4744 C   0  0  0  0  0  0  0  0  0  0  0  0
    6.5722   -9.6694    2.4591 C   0  0  0  0  0  0  0  0  0  0  0  0
    6.9022   -8.1822    2.2445 C   0  0  0  0  0  0  0  0  0  0  0  0
    7.6185   -7.8844    1.2857 O   0  0  0  0  0  0  0  0  0  0  0  0
    6.3953   -7.0792    3.2329 C   0  0  2  0  0  0  0  0  0  0  0  0
    7.6888   -6.2335    3.5438 C   0  0  0  0  0  0  0  0  0  0  0  0
    5.3460   -6.0674    2.5350 C   0  0  1  0  0  0  0  0  0  0  0  0
    5.8780   -5.5273    1.1537 C   0  0  0  0  0  0  0  0  0  0  0  0
    5.1332   -4.2782    0.7144 C   0  0  2  0  0  0  0  0  0  0  0  0
    5.3100   -3.2361    1.6593 O   0  0  0  0  0  0  0  0  0  0  0  0
    5.4336   -3.6613   -0.6602 C   0  0  0  0  0  0  0  0  0  0  0  0
    3.0459   -6.0834    3.8956 C   0  0  1  0  0  0  0  0  0  0  0  0
    1.9285   -5.0244    3.9389 C   0  0  0  0  0  0  0  0  0  0  0  0
    4.5041   -1.0496    0.0068 H   0  0  0  0  0  0  0  0  0  0  0  0
    3.3109   -0.9214   -1.2794 H   0  0  0  0  0  0  0  0  0  0  0  0
    5.0198   -1.0229   -1.6738 H   0  0  0  0  0  0  0  0  0  0  0  0
    3.8978   -3.1916   -2.0977 H   0  0  0  0  0  0  0  0  0  0  0  0
    2.7135   -2.7393    0.6009 H   0  0  0  0  0  0  0  0  0  0  0  0
    2.1376   -3.7813   -0.7005 H   0  0  0  0  0  0  0  0  0  0  0  0
    3.6642   -5.4654   -0.2096 H   0  0  0  0  0  0  0  0  0  0  0  0
    2.9925   -7.1225    0.6627 H   0  0  0  0  0  0  0  0  0  0  0  0
    3.5796   -9.2436    0.9258 H   0  0  0  0  0  0  0  0  0  0  0  0
    1.1078   -7.1929    2.3214 H   0  0  0  0  0  0  0  0  0  0  0  0
    1.2611   -8.3187    1.0255 H   0  0  0  0  0  0  0  0  0  0  0  0
   -0.1645   -7.2126    4.0010 H   0  0  0  0  0  0  0  0  0  0  0  0
   -0.7647   -8.2631    5.2666 H   0  0  0  0  0  0  0  0  0  0  0  0
   -1.0014   -8.7144    3.5895 H   0  0  0  0  0  0  0  0  0  0  0  0
    1.6560  -11.0426    5.0236 H   0  0  0  0  0  0  0  0  0  0  0  0
    0.0413  -10.9908    4.3349 H   0  0  0  0  0  0  0  0  0  0  0  0
    0.3306  -10.3410    5.9372 H   0  0  0  0  0  0  0  0  0  0  0  0
    2.3006   -8.7875    6.0979 H   0  0  0  0  0  0  0  0  0  0  0  0
    3.4803   -5.5078    6.0082 H   0  0  0  0  0  0  0  0  0  0  0  0
    5.7948   -5.7958    5.5839 H   0  0  0  0  0  0  0  0  0  0  0  0
    4.6846   -8.0984    7.2212 H   0  0  0  0  0  0  0  0  0  0  0  0
    4.7265   -6.4154    7.7114 H   0  0  0  0  0  0  0  0  0  0  0  0
    6.2207   -7.2690    7.4926 H   0  0  0  0  0  0  0  0  0  0  0  0
    6.8157   -8.5803    6.0991 H   0  0  0  0  0  0  0  0  0  0  0  0
    4.4522   -9.3083    5.1889 H   0  0  0  0  0  0  0  0  0  0  0  0
    4.9639  -10.8545    3.4144 H   0  0  0  0  0  0  0  0  0  0  0  0
    7.4678  -10.2163    2.7522 H   0  0  0  0  0  0  0  0  0  0  0  0
    6.2506  -10.0825    1.5018 H   0  0  0  0  0  0  0  0  0  0  0  0
    7.5189   -5.4566    4.2861 H   0  0  0  0  0  0  0  0  0  0  0  0
    8.1347   -5.7401    2.6883 H   0  0  0  0  0  0  0  0  0  0  0  0
    8.5215   -6.8407    3.9044 H   0  0  0  0  0  0  0  0  0  0  0  0
    5.4229   -5.2009    3.1913 H   0  0  0  0  0  0  0  0  0  0  0  0
    6.9274   -5.2619    1.1529 H   0  0  0  0  0  0  0  0  0  0  0  0
    5.7732   -6.2949    0.3882 H   0  0  0  0  0  0  0  0  0  0  0  0
    4.7130   -2.5398    1.4280 H   0  0  0  0  0  0  0  0  0  0  0  0
    5.6234   -4.4508   -1.3888 H   0  0  0  0  0  0  0  0  0  0  0  0
    6.3114   -3.0156   -0.6555 H   0  0  0  0  0  0  0  0  0  0  0  0
    2.3426   -4.0254    3.8115 H   0  0  0  0  0  0  0  0  0  0  0  0
    1.4277   -5.0356    4.9064 H   0  0  0  0  0  0  0  0  0  0  0  0
    1.1661   -5.1933    3.1825 H   0  0  0  0  0  0  0  0  0  0  0  0
  1  2  1  0
  1 36  1  0
  1 37  1  0
  1 38  1  0
  2 33  1  0
  2  3  1  0
  2 39  1  6
  3  4  1  0
  3 40  1  0
  3 41  1  0
  4 31  1  0
  4  5  1  0
  4 42  1  6
  6  5  1  6
  6 29  1  0
  6 34  1  0
  6  7  1  0
  7  8  1  0
  7  9  1  0
  7 43  1  6
  8 44  1  0
  9 10  1  0
  9 45  1  0
  9 46  1  0
 10 11  2  0
 10 12  1  0
 12 13  1  0
 12 14  1  0
 12 15  1  0
 13 47  1  0
 13 48  1  0
 13 49  1  0
 14 50  1  0
 14 51  1  0
 14 52  1  0
 15 16  2  3
 15 53  1  0
 16 34  1  0
 16 17  1  0
 17 18  1  0
 17 34  1  0
 17 54  1  1
 18 19  1  0
 18 20  1  0
 18 55  1  1
 19 56  1  0
 19 57  1  0
 19 58  1  0
 20 27  1  0
 20 21  1  1
 20 22  1  0
 21 59  1  0
 22 23  2  0
 22 60  1  0
 23 24  1  0
 23 61  1  0
 24 25  1  0
 24 62  1  0
 24 63  1  0
 25 26  2  0
 25 27  1  0
 27 28  1  1
 27 29  1  0
 28 64  1  0
 28 65  1  0
 28 66  1  0
 29 30  1  0
 29 67  1  1
 30 31  1  0
 30 68  1  0
 30 69  1  0
 31 32  1  1
 31 33  1  0
 32 70  1  0
 33 71  1  0
 33 72  1  0
 34 35  1  6
 35 73  1  0
 35 74  1  0
 35 75  1  0
M  END
>  <i_m_ct_stereo_status>  (144) 
1

>  <s_m_source_file>  (144) 
/var/tmp/pbs.5076255.sched01/tmp06yssb5m/4267g10r58.sdf

>  <i_m_source_file_index>  (144) 
25

>  <i_lp_mmshare_version>  (144) 
48012

>  <i_f3d_flags>  (144) 
0

>  <s_epik_input>  (144) 
W0NIM11bQ0BASF0oW0NIMl0xKVtDSDJdW0NASF0oTzIpW0NAQF0xKFtPSF0pW0NIMl1bQ0BASF0oW0NAQF0yMzQpW0NAQF01KFtDSDNdKVtDQF0oW09IXSkoW0NIXT1bQ0hdW0NIMl1DNT1PKVtDQEhdKFtDSDNdKVtDSF02XEMoQzQ2W0NIM10pPVtDSF1cQyhbQ0gzXSkoW0NIM10pQyg9TylbQ0gyXVtDQEBIXTNbT0hd

>  <s_epik_cmdline>  (144) 
J2VwaWtfcHl0aG9uJywgJy1waHQnLCAnMi4wJywgJy1waCcsICc3LjAnLCAnLXRuJywgJzgnLCAnLW1hJywgJzIwMCcsICctaW1hZScsICc8aW5maWxlLm1hZT4nLCAnLW9tYWUnLCAnPG91dGZpbGUubWFlPic=

>  <r_lp_tautomer_probability>  (144) 
1

>  <r_epik_Ionization_Penalty>  (144) 
3.40864e-07

>  <r_epik_Ionization_Penalty_Charging>  (144) 
0

>  <r_epik_Ionization_Penalty_Neutral>  (144) 
3.40864e-07

>  <r_epik_State_Penalty>  (144) 
-0

>  <r_epik_Charging_Adjusted_Penalty>  (144) 
0

>  <i_epik_Tot_Q>  (144) 
0

>  <i_epik_Tot_abs_Q>  (144) 
0

>  <s_lp_Force_Field>  (144) 
OPLS3e

>  <r_lp_Energy>  (144) 
101.959

>  <b_lp_Chiralities_Consistent>  (144) 
1

>  <s_lp_Variant>  (144) 
47:0-2

>  <s_i_glide_gridfile>  (144) 
pfpi4k_grid

>  <i_i_glide_lignum>  (144) 
25

>  <i_i_glide_rotatable_bonds>  (144) 
3

>  <r_i_docking_score>  (144) 
-2.25666

>  <r_i_glide_ligand_efficiency>  (144) 
-0.0644759

>  <r_i_glide_ligand_efficiency_sa>  (144) 
-0.210905

>  <r_i_glide_ligand_efficiency_ln>  (144) 
-0.495386

>  <r_i_glide_gscore>  (144) 
-2.25666

>  <r_i_glide_lipo>  (144) 
-0.250496

>  <r_i_glide_hbond>  (144) 
0

>  <r_i_glide_metal>  (144) 
-0

>  <r_i_glide_rewards>  (144) 
-0.227623

>  <r_i_glide_evdw>  (144) 
-32.9148

>  <r_i_glide_ecoul>  (144) 
-0.885315

>  <r_i_glide_erotb>  (144) 
0

>  <r_i_glide_esite>  (144) 
0

>  <r_i_glide_emodel>  (144) 
-37.7284

>  <r_i_glide_energy>  (144) 
-33.8001

>  <r_i_glide_einternal>  (144) 
0.605786

>  <r_i_glide_intrahb_reward>  (144) 
-0

>  <i_i_glide_confnum>  (144) 
2

>  <i_i_glide_posenum>  (144) 
40

>  <r_i_glide_eff_state_penalty>  (144) 
0

>  <ligand_id>  (144) 
47

>  <original_smiles>  (144) 
CC1CC2OC34C(O)CC(=O)C(C)(C)C=C5C(C(C)C6(O)C=CCC(=O)C6(C)C3CC2(O)C1)C54C

>  <smiles>  (144) 
[H]OC1([H])C([H])([H])C(=O)C(C([H])([H])[H])(C([H])([H])[H])C([H])=C2C3([H])C([H])(C([H])([H])[H])C4(O[H])C([H])=C([H])C([H])([H])C(=O)C4(C([H])([H])[H])C4([H])C([H])([H])C5(O[H])C([H])([H])C([H])(C([H])([H])[H])C([H])([H])C5([H])OC14C23C([H])([H])[H]

$$$$
47:2:0
     RDKit          3D

 75 80  0  0  1  0  0  0  0  0999 V2000
    4.7859   -3.3667   -0.4469 C   0  0  0  0  0  0  0  0  0  0  0  0
    5.0696   -2.1025    0.3857 C   0  0  2  0  0  0  0  0  0  0  0  0
    5.0128   -2.3595    1.9144 C   0  0  0  0  0  0  0  0  0  0  0  0
    4.2242   -1.1650    2.4486 C   0  0  2  0  0  0  0  0  0  0  0  0
    3.6053   -1.2571    3.7304 O   0  0  0  0  0  0  0  0  0  0  0  0
    2.9289   -0.0738    4.2243 C   0  0  1  0  0  0  0  0  0  0  0  0
    4.1261    0.9208    4.5545 C   0  0  1  0  0  0  0  0  0  0  0  0
    3.8256    2.1350    5.2044 O   0  0  0  0  0  0  0  0  0  0  0  0
    5.4125    0.2884    5.1962 C   0  0  0  0  0  0  0  0  0  0  0  0
    5.6030    0.3295    6.7318 C   0  0  0  0  0  0  0  0  0  0  0  0
    6.4080    1.1429    7.1945 O   0  0  0  0  0  0  0  0  0  0  0  0
    4.8222   -0.6324    7.6731 C   0  0  0  0  0  0  0  0  0  0  0  0
    4.8226   -2.0726    7.1184 C   0  0  0  0  0  0  0  0  0  0  0  0
    5.4838   -0.6759    9.0706 C   0  0  0  0  0  0  0  0  0  0  0  0
    3.4250   -0.0462    7.7949 C   0  0  0  0  0  0  0  0  0  0  0  0
    2.4828   -0.1403    6.8470 C   0  0  0  0  0  0  0  0  0  0  0  0
    1.3940    0.6104    6.1932 C   0  0  2  0  0  0  0  0  0  0  0  0
   -0.0792    0.4081    6.0193 C   0  0  1  0  0  0  0  0  0  0  0  0
   -0.8260    1.0019    7.2315 C   0  0  0  0  0  0  0  0  0  0  0  0
   -0.5155    0.9162    4.5742 C   0  0  1  0  0  0  0  0  0  0  0  0
   -1.2748   -0.1705    4.0702 O   0  0  0  0  0  0  0  0  0  0  0  0
   -1.5115    2.0530    4.7632 C   0  0  0  0  0  0  0  0  0  0  0  0
   -1.1664    3.3474    4.6989 C   0  0  0  0  0  0  0  0  0  0  0  0
    0.2577    3.8144    4.4744 C   0  0  0  0  0  0  0  0  0  0  0  0
    1.1219    2.7951    3.7129 C   0  0  0  0  0  0  0  0  0  0  0  0
    2.2234    3.1541    3.2868 O   0  0  0  0  0  0  0  0  0  0  0  0
    0.5894    1.3591    3.4520 C   0  0  2  0  0  0  0  0  0  0  0  0
   -0.2080    1.5504    2.1149 C   0  0  0  0  0  0  0  0  0  0  0  0
    1.7956    0.3223    3.1424 C   0  0  1  0  0  0  0  0  0  0  0  0
    2.4527    0.4249    1.7156 C   0  0  0  0  0  0  0  0  0  0  0  0
    3.1946   -0.8739    1.3849 C   0  0  2  0  0  0  0  0  0  0  0  0
    2.2396   -1.9099    1.2748 O   0  0  0  0  0  0  0  0  0  0  0  0
    4.0584   -0.9541    0.1157 C   0  0  0  0  0  0  0  0  0  0  0  0
    2.2008   -0.5480    5.4749 C   0  0  1  0  0  0  0  0  0  0  0  0
    1.6645   -1.9856    5.4041 C   0  0  0  0  0  0  0  0  0  0  0  0
    3.7862   -3.7534   -0.2515 H   0  0  0  0  0  0  0  0  0  0  0  0
    5.4991   -4.1577   -0.2192 H   0  0  0  0  0  0  0  0  0  0  0  0
    4.8542   -3.1605   -1.5151 H   0  0  0  0  0  0  0  0  0  0  0  0
    6.0663   -1.7449    0.1179 H   0  0  0  0  0  0  0  0  0  0  0  0
    4.4914   -3.2928    2.1308 H   0  0  0  0  0  0  0  0  0  0  0  0
    6.0064   -2.4182    2.3594 H   0  0  0  0  0  0  0  0  0  0  0  0
    4.9419   -0.3463    2.4467 H   0  0  0  0  0  0  0  0  0  0  0  0
    4.4539    1.3026    3.5992 H   0  0  0  0  0  0  0  0  0  0  0  0
    3.2802    2.6424    4.6099 H   0  0  0  0  0  0  0  0  0  0  0  0
    5.5579   -0.7373    4.8581 H   0  0  0  0  0  0  0  0  0  0  0  0
    6.2700    0.8212    4.7876 H   0  0  0  0  0  0  0  0  0  0  0  0
    4.4275   -2.1420    6.1091 H   0  0  0  0  0  0  0  0  0  0  0  0
    4.2246   -2.7250    7.7533 H   0  0  0  0  0  0  0  0  0  0  0  0
    5.8357   -2.4796    7.0952 H   0  0  0  0  0  0  0  0  0  0  0  0
    5.5293    0.3047    9.5486 H   0  0  0  0  0  0  0  0  0  0  0  0
    6.5080   -1.0528    9.0150 H   0  0  0  0  0  0  0  0  0  0  0  0
    4.9395   -1.3389    9.7426 H   0  0  0  0  0  0  0  0  0  0  0  0
    3.2784    0.6667    8.5878 H   0  0  0  0  0  0  0  0  0  0  0  0
    1.6436    1.6559    6.0652 H   0  0  0  0  0  0  0  0  0  0  0  0
   -0.2901   -0.6548    6.0924 H   0  0  0  0  0  0  0  0  0  0  0  0
   -0.6514    2.0751    7.3343 H   0  0  0  0  0  0  0  0  0  0  0  0
   -0.4785    0.5281    8.1511 H   0  0  0  0  0  0  0  0  0  0  0  0
   -1.9001    0.8337    7.1562 H   0  0  0  0  0  0  0  0  0  0  0  0
   -1.8588    0.1763    3.4092 H   0  0  0  0  0  0  0  0  0  0  0  0
   -2.5373    1.7757    4.9477 H   0  0  0  0  0  0  0  0  0  0  0  0
   -1.9096    4.1097    4.8731 H   0  0  0  0  0  0  0  0  0  0  0  0
    0.2283    4.7417    3.9006 H   0  0  0  0  0  0  0  0  0  0  0  0
    0.7206    4.0422    5.4352 H   0  0  0  0  0  0  0  0  0  0  0  0
   -0.4986    0.6046    1.6552 H   0  0  0  0  0  0  0  0  0  0  0  0
    0.3639    2.1124    1.3736 H   0  0  0  0  0  0  0  0  0  0  0  0
   -1.1168    2.1428    2.2185 H   0  0  0  0  0  0  0  0  0  0  0  0
    1.2049   -0.5848    3.0545 H   0  0  0  0  0  0  0  0  0  0  0  0
    1.7369    0.5554    0.9092 H   0  0  0  0  0  0  0  0  0  0  0  0
    3.1263    1.2765    1.6519 H   0  0  0  0  0  0  0  0  0  0  0  0
    1.6434   -1.6329    0.5732 H   0  0  0  0  0  0  0  0  0  0  0  0
    4.6117   -0.0208    0.0019 H   0  0  0  0  0  0  0  0  0  0  0  0
    3.4792   -1.0909   -0.7987 H   0  0  0  0  0  0  0  0  0  0  0  0
    0.9041   -2.0911    4.6313 H   0  0  0  0  0  0  0  0  0  0  0  0
    1.2205   -2.2610    6.3626 H   0  0  0  0  0  0  0  0  0  0  0  0
    2.4580   -2.7066    5.2212 H   0  0  0  0  0  0  0  0  0  0  0  0
  1  2  1  0
  1 36  1  0
  1 37  1  0
  1 38  1  0
  2 33  1  0
  2  3  1  0
  2 39  1  6
  3  4  1  0
  3 40  1  0
  3 41  1  0
  4 31  1  0
  4  5  1  0
  4 42  1  1
  6  5  1  6
  6 29  1  0
  6 34  1  0
  6  7  1  0
  7  8  1  0
  7  9  1  0
  7 43  1  6
  8 44  1  0
  9 10  1  0
  9 45  1  0
  9 46  1  0
 10 11  2  0
 10 12  1  0
 12 13  1  0
 12 14  1  0
 12 15  1  0
 13 47  1  0
 13 48  1  0
 13 49  1  0
 14 50  1  0
 14 51  1  0
 14 52  1  0
 15 16  2  3
 15 53  1  0
 16 34  1  0
 16 17  1  0
 17 18  1  0
 17 34  1  0
 17 54  1  6
 18 19  1  0
 18 20  1  0
 18 55  1  6
 19 56  1  0
 19 57  1  0
 19 58  1  0
 20 27  1  0
 20 21  1  6
 20 22  1  0
 21 59  1  0
 22 23  2  0
 22 60  1  0
 23 24  1  0
 23 61  1  0
 24 25  1  0
 24 62  1  0
 24 63  1  0
 25 26  2  0
 25 27  1  0
 27 28  1  6
 27 29  1  0
 28 64  1  0
 28 65  1  0
 28 66  1  0
 29 30  1  0
 29 67  1  6
 30 31  1  0
 30 68  1  0
 30 69  1  0
 31 32  1  6
 31 33  1  0
 32 70  1  0
 33 71  1  0
 33 72  1  0
 34 35  1  1
 35 73  1  0
 35 74  1  0
 35 75  1  0
M  END
>  <i_m_ct_stereo_status>  (145) 
1

>  <s_m_source_file>  (145) 
/var/tmp/pbs.5076255.sched01/tmp06yssb5m/4267g10r58.sdf

>  <i_m_source_file_index>  (145) 
26

>  <i_lp_mmshare_version>  (145) 
48012

>  <i_f3d_flags>  (145) 
0

>  <s_epik_input>  (145) 
W0NIM11bQ0BASF0oW0NIMl0xKVtDSDJdW0NASF0oTzIpW0NAQF0xKFtPSF0pW0NIMl1bQ0BASF0oW0NAQF0yMzQpW0NAQF01KFtDSDNdKVtDQF0oW09IXSkoW0NIXT1bQ0hdW0NIMl1DNT1PKVtDQEhdKFtDSDNdKVtDSF02XEMoQzQ2W0NIM10pPVtDSF1cQyhbQ0gzXSkoW0NIM10pQyg9TylbQ0gyXVtDQEBIXTNbT0hd

>  <s_epik_cmdline>  (145) 
J2VwaWtfcHl0aG9uJywgJy1waHQnLCAnMi4wJywgJy1waCcsICc3LjAnLCAnLXRuJywgJzgnLCAnLW1hJywgJzIwMCcsICctaW1hZScsICc8aW5maWxlLm1hZT4nLCAnLW9tYWUnLCAnPG91dGZpbGUubWFlPic=

>  <r_lp_tautomer_probability>  (145) 
1

>  <r_epik_Ionization_Penalty>  (145) 
3.40864e-07

>  <r_epik_Ionization_Penalty_Charging>  (145) 
0

>  <r_epik_Ionization_Penalty_Neutral>  (145) 
3.40864e-07

>  <r_epik_State_Penalty>  (145) 
-0

>  <r_epik_Charging_Adjusted_Penalty>  (145) 
0

>  <i_epik_Tot_Q>  (145) 
0

>  <i_epik_Tot_abs_Q>  (145) 
0

>  <s_lp_Force_Field>  (145) 
OPLS3e

>  <r_lp_Energy>  (145) 
108.315

>  <b_lp_Chiralities_Consistent>  (145) 
1

>  <s_lp_Variant>  (145) 
47:0-3

>  <s_i_glide_gridfile>  (145) 
pfpi4k_grid

>  <i_i_glide_lignum>  (145) 
26

>  <i_i_glide_rotatable_bonds>  (145) 
3

>  <r_i_docking_score>  (145) 
-3.07742

>  <r_i_glide_ligand_efficiency>  (145) 
-0.0879263

>  <r_i_glide_ligand_efficiency_sa>  (145) 
-0.287613

>  <r_i_glide_ligand_efficiency_ln>  (145) 
-0.675562

>  <r_i_glide_gscore>  (145) 
-3.07742

>  <r_i_glide_lipo>  (145) 
-0.222499

>  <r_i_glide_hbond>  (145) 
-0.142416

>  <r_i_glide_metal>  (145) 
-0

>  <r_i_glide_rewards>  (145) 
-0.631223

>  <r_i_glide_evdw>  (145) 
-30.3059

>  <r_i_glide_ecoul>  (145) 
-3.48789

>  <r_i_glide_erotb>  (145) 
0

>  <r_i_glide_esite>  (145) 
-0.0428058

>  <r_i_glide_emodel>  (145) 
-45.0828

>  <r_i_glide_energy>  (145) 
-33.7938

>  <r_i_glide_einternal>  (145) 
0.735763

>  <r_i_glide_intrahb_reward>  (145) 
-0.5

>  <i_i_glide_confnum>  (145) 
1

>  <i_i_glide_posenum>  (145) 
11

>  <r_i_glide_eff_state_penalty>  (145) 
0

>  <ligand_id>  (145) 
47

>  <original_smiles>  (145) 
CC1CC2OC34C(O)CC(=O)C(C)(C)C=C5C(C(C)C6(O)C=CCC(=O)C6(C)C3CC2(O)C1)C54C

>  <smiles>  (145) 
[H]OC1([H])C([H])([H])C(=O)C(C([H])([H])[H])(C([H])([H])[H])C([H])=C2C3([H])C([H])(C([H])([H])[H])C4(O[H])C([H])=C([H])C([H])([H])C(=O)C4(C([H])([H])[H])C4([H])C([H])([H])C5(O[H])C([H])([H])C([H])(C([H])([H])[H])C([H])([H])C5([H])OC14C23C([H])([H])[H]

$$$$
47:2:1
     RDKit          3D

 75 80  0  0  1  0  0  0  0  0999 V2000
    3.2618   -1.7719    0.8771 C   0  0  0  0  0  0  0  0  0  0  0  0
    3.6089   -0.4931    1.6582 C   0  0  2  0  0  0  0  0  0  0  0  0
    3.9873   -0.7800    3.1346 C   0  0  0  0  0  0  0  0  0  0  0  0
    3.2311    0.2973    3.9076 C   0  0  2  0  0  0  0  0  0  0  0  0
    2.9867    0.1117    5.3004 O   0  0  0  0  0  0  0  0  0  0  0  0
    2.3409    1.1976    6.0074 C   0  0  1  0  0  0  0  0  0  0  0  0
    3.4634    2.3266    6.0536 C   0  0  1  0  0  0  0  0  0  0  0  0
    3.2118    3.4791    6.8253 O   0  0  0  0  0  0  0  0  0  0  0  0
    4.9349    1.8416    6.3207 C   0  0  0  0  0  0  0  0  0  0  0  0
    5.5163    1.8813    7.7566 C   0  0  0  0  0  0  0  0  0  0  0  0
    6.3159    2.7789    8.0355 O   0  0  0  0  0  0  0  0  0  0  0  0
    5.1288    0.8157    8.8220 C   0  0  0  0  0  0  0  0  0  0  0  0
    5.1456   -0.6046    8.2188 C   0  0  0  0  0  0  0  0  0  0  0  0
    6.1379    0.8303    9.9955 C   0  0  0  0  0  0  0  0  0  0  0  0
    3.7554    1.2267    9.3293 C   0  0  0  0  0  0  0  0  0  0  0  0
    2.6140    1.0339    8.6548 C   0  0  0  0  0  0  0  0  0  0  0  0
    1.3125    1.6551    8.3433 C   0  0  2  0  0  0  0  0  0  0  0  0
   -0.1232    1.2752    8.5479 C   0  0  1  0  0  0  0  0  0  0  0  0
   -0.5773    1.7603    9.9427 C   0  0  0  0  0  0  0  0  0  0  0  0
   -0.9780    1.7446    7.2854 C   0  0  1  0  0  0  0  0  0  0  0  0
   -1.6920    0.5825    6.8732 O   0  0  0  0  0  0  0  0  0  0  0  0
   -2.0149    2.7421    7.7873 C   0  0  0  0  0  0  0  0  0  0  0  0
   -1.8388    4.0715    7.7095 C   0  0  0  0  0  0  0  0  0  0  0  0
   -0.5842    4.7156    7.1524 C   0  0  0  0  0  0  0  0  0  0  0  0
    0.1521    3.8290    6.1372 C   0  0  0  0  0  0  0  0  0  0  0  0
    1.0303    4.3361    5.4397 O   0  0  0  0  0  0  0  0  0  0  0  0
   -0.2648    2.3451    5.9443 C   0  0  2  0  0  0  0  0  0  0  0  0
   -1.4071    2.4751    4.8709 C   0  0  0  0  0  0  0  0  0  0  0  0
    0.9249    1.4674    5.2776 C   0  0  1  0  0  0  0  0  0  0  0  0
    1.1583    1.6668    3.7339 C   0  0  0  0  0  0  0  0  0  0  0  0
    1.9293    0.4696    3.1594 C   0  0  2  0  0  0  0  0  0  0  0  0
    1.1270   -0.6965    3.2378 O   0  0  0  0  0  0  0  0  0  0  0  0
    2.4377    0.5277    1.7122 C   0  0  0  0  0  0  0  0  0  0  0  0
    2.0302    0.6179    7.3841 C   0  0  1  0  0  0  0  0  0  0  0  0
    1.6596   -0.8725    7.3912 C   0  0  0  0  0  0  0  0  0  0  0  0
    2.3970   -2.2783    1.3053 H   0  0  0  0  0  0  0  0  0  0  0  0
    4.0943   -2.4740    0.8701 H   0  0  0  0  0  0  0  0  0  0  0  0
    3.0165   -1.5373   -0.1595 H   0  0  0  0  0  0  0  0  0  0  0  0
    4.4500   -0.0123    1.1544 H   0  0  0  0  0  0  0  0  0  0  0  0
    3.6509   -1.7728    3.4365 H   0  0  0  0  0  0  0  0  0  0  0  0
    5.0634   -0.7238    3.3046 H   0  0  0  0  0  0  0  0  0  0  0  0
    3.8261    1.1959    3.7585 H   0  0  0  0  0  0  0  0  0  0  0  0
    3.4879    2.7631    5.0613 H   0  0  0  0  0  0  0  0  0  0  0  0
    2.4536    3.9150    6.4488 H   0  0  0  0  0  0  0  0  0  0  0  0
    5.1014    0.8466    5.9092 H   0  0  0  0  0  0  0  0  0  0  0  0
    5.5920    2.4804    5.7321 H   0  0  0  0  0  0  0  0  0  0  0  0
    4.5084   -0.7046    7.3452 H   0  0  0  0  0  0  0  0  0  0  0  0
    4.8145   -1.3356    8.9553 H   0  0  0  0  0  0  0  0  0  0  0  0
    6.1553   -0.8853    7.9129 H   0  0  0  0  0  0  0  0  0  0  0  0
    6.1958    1.8013   10.4907 H   0  0  0  0  0  0  0  0  0  0  0  0
    7.1468    0.5817    9.6574 H   0  0  0  0  0  0  0  0  0  0  0  0
    5.8698    0.0951   10.7539 H   0  0  0  0  0  0  0  0  0  0  0  0
    3.7448    1.9014   10.1696 H   0  0  0  0  0  0  0  0  0  0  0  0
    1.4012    2.7263    8.2110 H   0  0  0  0  0  0  0  0  0  0  0  0
   -0.1879    0.1943    8.6283 H   0  0  0  0  0  0  0  0  0  0  0  0
   -0.5054    2.8447   10.0501 H   0  0  0  0  0  0  0  0  0  0  0  0
    0.0518    1.3151   10.7152 H   0  0  0  0  0  0  0  0  0  0  0  0
   -1.6005    1.4640   10.1641 H   0  0  0  0  0  0  0  0  0  0  0  0
   -1.9625    0.7310    5.9798 H   0  0  0  0  0  0  0  0  0  0  0  0
   -2.9145    2.3397    8.2261 H   0  0  0  0  0  0  0  0  0  0  0  0
   -2.5853    4.7365    8.1149 H   0  0  0  0  0  0  0  0  0  0  0  0
   -0.8677    5.6427    6.6526 H   0  0  0  0  0  0  0  0  0  0  0  0
    0.0856    4.9869    7.9677 H   0  0  0  0  0  0  0  0  0  0  0  0
   -1.6974    1.5179    4.4344 H   0  0  0  0  0  0  0  0  0  0  0  0
   -1.1155    3.1195    4.0392 H   0  0  0  0  0  0  0  0  0  0  0  0
   -2.3209    2.9380    5.2459 H   0  0  0  0  0  0  0  0  0  0  0  0
    0.4479    0.4923    5.3022 H   0  0  0  0  0  0  0  0  0  0  0  0
    0.2434    1.7351    3.1543 H   0  0  0  0  0  0  0  0  0  0  0  0
    1.6927    2.5942    3.5389 H   0  0  0  0  0  0  0  0  0  0  0  0
    0.4112   -0.5833    2.6299 H   0  0  0  0  0  0  0  0  0  0  0  0
    2.8337    1.5240    1.5152 H   0  0  0  0  0  0  0  0  0  0  0  0
    1.6643    0.3422    0.9640 H   0  0  0  0  0  0  0  0  0  0  0  0
    0.7387   -1.0589    6.8408 H   0  0  0  0  0  0  0  0  0  0  0  0
    1.5178   -1.2135    8.4191 H   0  0  0  0  0  0  0  0  0  0  0  0
    2.4521   -1.4909    6.9761 H   0  0  0  0  0  0  0  0  0  0  0  0
  1  2  1  0
  1 36  1  0
  1 37  1  0
  1 38  1  0
  2 33  1  0
  2  3  1  0
  2 39  1  6
  3  4  1  0
  3 40  1  0
  3 41  1  0
  4 31  1  0
  4  5  1  0
  4 42  1  1
  6  5  1  6
  6 29  1  0
  6 34  1  0
  6  7  1  0
  7  8  1  0
  7  9  1  0
  7 43  1  6
  8 44  1  0
  9 10  1  0
  9 45  1  0
  9 46  1  0
 10 11  2  0
 10 12  1  0
 12 13  1  0
 12 14  1  0
 12 15  1  0
 13 47  1  0
 13 48  1  0
 13 49  1  0
 14 50  1  0
 14 51  1  0
 14 52  1  0
 15 16  2  3
 15 53  1  0
 16 34  1  0
 16 17  1  0
 17 18  1  0
 17 34  1  0
 17 54  1  6
 18 19  1  0
 18 20  1  0
 18 55  1  1
 19 56  1  0
 19 57  1  0
 19 58  1  0
 20 27  1  0
 20 21  1  6
 20 22  1  0
 21 59  1  0
 22 23  2  0
 22 60  1  0
 23 24  1  0
 23 61  1  0
 24 25  1  0
 24 62  1  0
 24 63  1  0
 25 26  2  0
 25 27  1  0
 27 28  1  6
 27 29  1  0
 28 64  1  0
 28 65  1  0
 28 66  1  0
 29 30  1  0
 29 67  1  6
 30 31  1  0
 30 68  1  0
 30 69  1  0
 31 32  1  6
 31 33  1  0
 32 70  1  0
 33 71  1  0
 33 72  1  0
 34 35  1  6
 35 73  1  0
 35 74  1  0
 35 75  1  0
M  END
>  <i_m_ct_stereo_status>  (146) 
1

>  <s_m_source_file>  (146) 
/var/tmp/pbs.5076255.sched01/tmp06yssb5m/4267g10r58.sdf

>  <i_m_source_file_index>  (146) 
26

>  <i_lp_mmshare_version>  (146) 
48012

>  <i_f3d_flags>  (146) 
0

>  <s_epik_input>  (146) 
W0NIM11bQ0BASF0oW0NIMl0xKVtDSDJdW0NASF0oTzIpW0NAQF0xKFtPSF0pW0NIMl1bQ0BASF0oW0NAQF0yMzQpW0NAQF01KFtDSDNdKVtDQF0oW09IXSkoW0NIXT1bQ0hdW0NIMl1DNT1PKVtDQEhdKFtDSDNdKVtDSF02XEMoQzQ2W0NIM10pPVtDSF1cQyhbQ0gzXSkoW0NIM10pQyg9TylbQ0gyXVtDQEBIXTNbT0hd

>  <s_epik_cmdline>  (146) 
J2VwaWtfcHl0aG9uJywgJy1waHQnLCAnMi4wJywgJy1waCcsICc3LjAnLCAnLXRuJywgJzgnLCAnLW1hJywgJzIwMCcsICctaW1hZScsICc8aW5maWxlLm1hZT4nLCAnLW9tYWUnLCAnPG91dGZpbGUubWFlPic=

>  <r_lp_tautomer_probability>  (146) 
1

>  <r_epik_Ionization_Penalty>  (146) 
3.40864e-07

>  <r_epik_Ionization_Penalty_Charging>  (146) 
0

>  <r_epik_Ionization_Penalty_Neutral>  (146) 
3.40864e-07

>  <r_epik_State_Penalty>  (146) 
-0

>  <r_epik_Charging_Adjusted_Penalty>  (146) 
0

>  <i_epik_Tot_Q>  (146) 
0

>  <i_epik_Tot_abs_Q>  (146) 
0

>  <s_lp_Force_Field>  (146) 
OPLS3e

>  <r_lp_Energy>  (146) 
108.315

>  <b_lp_Chiralities_Consistent>  (146) 
1

>  <s_lp_Variant>  (146) 
47:0-3

>  <s_i_glide_gridfile>  (146) 
pfpi4k_grid

>  <i_i_glide_lignum>  (146) 
26

>  <i_i_glide_rotatable_bonds>  (146) 
3

>  <r_i_docking_score>  (146) 
-2.64828

>  <r_i_glide_ligand_efficiency>  (146) 
-0.0756652

>  <r_i_glide_ligand_efficiency_sa>  (146) 
-0.247506

>  <r_i_glide_ligand_efficiency_ln>  (146) 
-0.581357

>  <r_i_glide_gscore>  (146) 
-2.64828

>  <r_i_glide_lipo>  (146) 
-0.0539984

>  <r_i_glide_hbond>  (146) 
-0.16

>  <r_i_glide_metal>  (146) 
-0

>  <r_i_glide_rewards>  (146) 
-0.604834

>  <r_i_glide_evdw>  (146) 
-22.5333

>  <r_i_glide_ecoul>  (146) 
-4.67318

>  <r_i_glide_erotb>  (146) 
0

>  <r_i_glide_esite>  (146) 
-0.00180549

>  <r_i_glide_emodel>  (146) 
-37.5783

>  <r_i_glide_energy>  (146) 
-27.2065

>  <r_i_glide_einternal>  (146) 
0.630751

>  <r_i_glide_intrahb_reward>  (146) 
-0.5

>  <i_i_glide_confnum>  (146) 
1

>  <i_i_glide_posenum>  (146) 
17

>  <r_i_glide_eff_state_penalty>  (146) 
0

>  <ligand_id>  (146) 
47

>  <original_smiles>  (146) 
CC1CC2OC34C(O)CC(=O)C(C)(C)C=C5C(C(C)C6(O)C=CCC(=O)C6(C)C3CC2(O)C1)C54C

>  <smiles>  (146) 
[H]OC1([H])C([H])([H])C(=O)C(C([H])([H])[H])(C([H])([H])[H])C([H])=C2C3([H])C([H])(C([H])([H])[H])C4(O[H])C([H])=C([H])C([H])([H])C(=O)C4(C([H])([H])[H])C4([H])C([H])([H])C5(O[H])C([H])([H])C([H])(C([H])([H])[H])C([H])([H])C5([H])OC14C23C([H])([H])[H]

$$$$
47:2:2
     RDKit          3D

 75 80  0  0  1  0  0  0  0  0999 V2000
    4.5682   -4.0987    0.6842 C   0  0  0  0  0  0  0  0  0  0  0  0
    4.8931   -2.7055    1.2558 C   0  0  2  0  0  0  0  0  0  0  0  0
    4.8082   -2.6546    2.8045 C   0  0  0  0  0  0  0  0  0  0  0  0
    4.0621   -1.3481    3.0747 C   0  0  2  0  0  0  0  0  0  0  0  0
    3.4100   -1.1713    4.3318 O   0  0  0  0  0  0  0  0  0  0  0  0
    2.7869    0.1138    4.5773 C   0  0  1  0  0  0  0  0  0  0  0  0
    4.0214    1.1070    4.7244 C   0  0  1  0  0  0  0  0  0  0  0  0
    3.7635    2.4333    5.1226 O   0  0  0  0  0  0  0  0  0  0  0  0
    5.2707    0.5660    5.5098 C   0  0  0  0  0  0  0  0  0  0  0  0
    5.4418    0.9038    7.0123 C   0  0  0  0  0  0  0  0  0  0  0  0
    6.2694    1.7639    7.3237 O   0  0  0  0  0  0  0  0  0  0  0  0
    4.6136    0.1747    8.1100 C   0  0  0  0  0  0  0  0  0  0  0  0
    4.5641   -1.3458    7.8494 C   0  0  0  0  0  0  0  0  0  0  0  0
    5.2563    0.3821    9.5021 C   0  0  0  0  0  0  0  0  0  0  0  0
    3.2400    0.8248    8.0851 C   0  0  0  0  0  0  0  0  0  0  0  0
    2.3047    0.5778    7.1572 C   0  0  0  0  0  0  0  0  0  0  0  0
    1.2554    1.2237    6.3476 C   0  0  2  0  0  0  0  0  0  0  0  0
   -0.2231    1.0407    6.1841 C   0  0  1  0  0  0  0  0  0  0  0  0
   -0.9630    1.8848    7.2441 C   0  0  0  0  0  0  0  0  0  0  0  0
   -0.6159    1.2681    4.6556 C   0  0  1  0  0  0  0  0  0  0  0  0
   -1.3882    0.1199    4.3249 O   0  0  0  0  0  0  0  0  0  0  0  0
   -1.5726    2.4514    4.6036 C   0  0  0  0  0  0  0  0  0  0  0  0
   -1.1741    3.6969    4.2982 C   0  0  0  0  0  0  0  0  0  0  0  0
    0.2695    4.0652    4.0228 C   0  0  0  0  0  0  0  0  0  0  0  0
    1.1056    2.8905    3.4888 C   0  0  0  0  0  0  0  0  0  0  0  0
    2.2227    3.1182    3.0220 O   0  0  0  0  0  0  0  0  0  0  0  0
    0.5180    1.4515    3.4949 C   0  0  2  0  0  0  0  0  0  0  0  0
   -0.2552    1.4120    2.1282 C   0  0  0  0  0  0  0  0  0  0  0  0
    1.6853    0.3321    3.4169 C   0  0  1  0  0  0  0  0  0  0  0  0
    2.3629    0.1278    2.0101 C   0  0  0  0  0  0  0  0  0  0  0  0
    3.0605   -1.2385    1.9501 C   0  0  2  0  0  0  0  0  0  0  0  0
    2.0943   -2.2684    2.0427 O   0  0  0  0  0  0  0  0  0  0  0  0
    3.9360   -1.5923    0.7400 C   0  0  0  0  0  0  0  0  0  0  0  0
    2.0268   -0.0798    5.8853 C   0  0  1  0  0  0  0  0  0  0  0  0
    1.4352   -1.4829    6.0892 C   0  0  0  0  0  0  0  0  0  0  0  0
    3.5517   -4.4028    0.9323 H   0  0  0  0  0  0  0  0  0  0  0  0
    5.2474   -4.8542    1.0768 H   0  0  0  0  0  0  0  0  0  0  0  0
    4.6575   -4.1094   -0.4026 H   0  0  0  0  0  0  0  0  0  0  0  0
    5.9077   -2.4480    0.9446 H   0  0  0  0  0  0  0  0  0  0  0  0
    4.2490   -3.5078    3.1913 H   0  0  0  0  0  0  0  0  0  0  0  0
    5.7934   -2.6627    3.2722 H   0  0  0  0  0  0  0  0  0  0  0  0
    4.8170   -0.5756    2.9371 H   0  0  0  0  0  0  0  0  0  0  0  0
    4.3776    1.2827    3.7163 H   0  0  0  0  0  0  0  0  0  0  0  0
    3.2498    2.8410    4.4286 H   0  0  0  0  0  0  0  0  0  0  0  0
    5.3771   -0.5108    5.3844 H   0  0  0  0  0  0  0  0  0  0  0  0
    6.1564    0.9731    5.0246 H   0  0  0  0  0  0  0  0  0  0  0  0
    4.1795   -1.5981    6.8655 H   0  0  0  0  0  0  0  0  0  0  0  0
    3.9338   -1.8393    8.5879 H   0  0  0  0  0  0  0  0  0  0  0  0
    5.5609   -1.7864    7.9263 H   0  0  0  0  0  0  0  0  0  0  0  0
    5.3347    1.4352    9.7802 H   0  0  0  0  0  0  0  0  0  0  0  0
    6.2659   -0.0354    9.5421 H   0  0  0  0  0  0  0  0  0  0  0  0
    4.6786   -0.1158   10.2810 H   0  0  0  0  0  0  0  0  0  0  0  0
    3.1111    1.6821    8.7244 H   0  0  0  0  0  0  0  0  0  0  0  0
    1.5462    2.2162    6.0231 H   0  0  0  0  0  0  0  0  0  0  0  0
   -0.4797    0.0216    6.4590 H   0  0  0  0  0  0  0  0  0  0  0  0
   -0.7517    2.9514    7.1404 H   0  0  0  0  0  0  0  0  0  0  0  0
   -0.6427    1.5918    8.2448 H   0  0  0  0  0  0  0  0  0  0  0  0
   -2.0423    1.7378    7.1941 H   0  0  0  0  0  0  0  0  0  0  0  0
   -1.9408    0.3482    3.5915 H   0  0  0  0  0  0  0  0  0  0  0  0
   -2.6087    2.2515    4.8185 H   0  0  0  0  0  0  0  0  0  0  0  0
   -1.8880    4.5034    4.3052 H   0  0  0  0  0  0  0  0  0  0  0  0
    0.2802    4.8613    3.2757 H   0  0  0  0  0  0  0  0  0  0  0  0
    0.7295    4.4646    4.9275 H   0  0  0  0  0  0  0  0  0  0  0  0
   -0.5696    0.4087    1.8418 H   0  0  0  0  0  0  0  0  0  0  0  0
    0.3453    1.7998    1.3033 H   0  0  0  0  0  0  0  0  0  0  0  0
   -1.1471    2.0395    2.1029 H   0  0  0  0  0  0  0  0  0  0  0  0
    1.0569   -0.5484    3.5023 H   0  0  0  0  0  0  0  0  0  0  0  0
    1.6575    0.1304    1.1856 H   0  0  0  0  0  0  0  0  0  0  0  0
    3.0678    0.9291    1.7936 H   0  0  0  0  0  0  0  0  0  0  0  0
    1.5549   -2.0728    2.7930 H   0  0  0  0  0  0  0  0  0  0  0  0
    4.5293   -0.7225    0.4505 H   0  0  0  0  0  0  0  0  0  0  0  0
    3.3536   -1.8894   -0.1332 H   0  0  0  0  0  0  0  0  0  0  0  0
    0.6782   -1.7110    5.3411 H   0  0  0  0  0  0  0  0  0  0  0  0
    0.9695   -1.5471    7.0750 H   0  0  0  0  0  0  0  0  0  0  0  0
    2.2002   -2.2548    6.0690 H   0  0  0  0  0  0  0  0  0  0  0  0
  1  2  1  0
  1 36  1  0
  1 37  1  0
  1 38  1  0
  2 33  1  0
  2  3  1  0
  2 39  1  1
  3  4  1  0
  3 40  1  0
  3 41  1  0
  4 31  1  0
  4  5  1  0
  4 42  1  6
  6  5  1  6
  6 29  1  0
  6 34  1  0
  6  7  1  0
  7  8  1  0
  7  9  1  0
  7 43  1  6
  8 44  1  0
  9 10  1  0
  9 45  1  0
  9 46  1  0
 10 11  2  0
 10 12  1  0
 12 13  1  0
 12 14  1  0
 12 15  1  0
 13 47  1  0
 13 48  1  0
 13 49  1  0
 14 50  1  0
 14 51  1  0
 14 52  1  0
 15 16  2  3
 15 53  1  0
 16 34  1  0
 16 17  1  0
 17 18  1  0
 17 34  1  0
 17 54  1  6
 18 19  1  0
 18 20  1  0
 18 55  1  1
 19 56  1  0
 19 57  1  0
 19 58  1  0
 20 27  1  0
 20 21  1  6
 20 22  1  0
 21 59  1  0
 22 23  2  0
 22 60  1  0
 23 24  1  0
 23 61  1  0
 24 25  1  0
 24 62  1  0
 24 63  1  0
 25 26  2  0
 25 27  1  0
 27 28  1  6
 27 29  1  0
 28 64  1  0
 28 65  1  0
 28 66  1  0
 29 30  1  0
 29 67  1  1
 30 31  1  0
 30 68  1  0
 30 69  1  0
 31 32  1  1
 31 33  1  0
 32 70  1  0
 33 71  1  0
 33 72  1  0
 34 35  1  1
 35 73  1  0
 35 74  1  0
 35 75  1  0
M  END
>  <i_m_ct_stereo_status>  (147) 
1

>  <s_m_source_file>  (147) 
/var/tmp/pbs.5076255.sched01/tmp06yssb5m/4267g10r58.sdf

>  <i_m_source_file_index>  (147) 
26

>  <i_lp_mmshare_version>  (147) 
48012

>  <i_f3d_flags>  (147) 
0

>  <s_epik_input>  (147) 
W0NIM11bQ0BASF0oW0NIMl0xKVtDSDJdW0NASF0oTzIpW0NAQF0xKFtPSF0pW0NIMl1bQ0BASF0oW0NAQF0yMzQpW0NAQF01KFtDSDNdKVtDQF0oW09IXSkoW0NIXT1bQ0hdW0NIMl1DNT1PKVtDQEhdKFtDSDNdKVtDSF02XEMoQzQ2W0NIM10pPVtDSF1cQyhbQ0gzXSkoW0NIM10pQyg9TylbQ0gyXVtDQEBIXTNbT0hd

>  <s_epik_cmdline>  (147) 
J2VwaWtfcHl0aG9uJywgJy1waHQnLCAnMi4wJywgJy1waCcsICc3LjAnLCAnLXRuJywgJzgnLCAnLW1hJywgJzIwMCcsICctaW1hZScsICc8aW5maWxlLm1hZT4nLCAnLW9tYWUnLCAnPG91dGZpbGUubWFlPic=

>  <r_lp_tautomer_probability>  (147) 
1

>  <r_epik_Ionization_Penalty>  (147) 
3.40864e-07

>  <r_epik_Ionization_Penalty_Charging>  (147) 
0

>  <r_epik_Ionization_Penalty_Neutral>  (147) 
3.40864e-07

>  <r_epik_State_Penalty>  (147) 
-0

>  <r_epik_Charging_Adjusted_Penalty>  (147) 
0

>  <i_epik_Tot_Q>  (147) 
0

>  <i_epik_Tot_abs_Q>  (147) 
0

>  <s_lp_Force_Field>  (147) 
OPLS3e

>  <r_lp_Energy>  (147) 
108.315

>  <b_lp_Chiralities_Consistent>  (147) 
1

>  <s_lp_Variant>  (147) 
47:0-3

>  <s_i_glide_gridfile>  (147) 
pfpi4k_grid

>  <i_i_glide_lignum>  (147) 
26

>  <i_i_glide_rotatable_bonds>  (147) 
3

>  <r_i_docking_score>  (147) 
-2.62328

>  <r_i_glide_ligand_efficiency>  (147) 
-0.074951

>  <r_i_glide_ligand_efficiency_sa>  (147) 
-0.24517

>  <r_i_glide_ligand_efficiency_ln>  (147) 
-0.575869

>  <r_i_glide_gscore>  (147) 
-2.62328

>  <r_i_glide_lipo>  (147) 
-0.162159

>  <r_i_glide_hbond>  (147) 
-0.153844

>  <r_i_glide_metal>  (147) 
-0

>  <r_i_glide_rewards>  (147) 
-0.615365

>  <r_i_glide_evdw>  (147) 
-29.7555

>  <r_i_glide_ecoul>  (147) 
-0.991946

>  <r_i_glide_erotb>  (147) 
0

>  <r_i_glide_esite>  (147) 
-0.0553482

>  <r_i_glide_emodel>  (147) 
-41.0308

>  <r_i_glide_energy>  (147) 
-30.7474

>  <r_i_glide_einternal>  (147) 
0.683911

>  <r_i_glide_intrahb_reward>  (147) 
-0.5

>  <i_i_glide_confnum>  (147) 
1

>  <i_i_glide_posenum>  (147) 
30

>  <r_i_glide_eff_state_penalty>  (147) 
0

>  <ligand_id>  (147) 
47

>  <original_smiles>  (147) 
CC1CC2OC34C(O)CC(=O)C(C)(C)C=C5C(C(C)C6(O)C=CCC(=O)C6(C)C3CC2(O)C1)C54C

>  <smiles>  (147) 
[H]OC1([H])C([H])([H])C(=O)C(C([H])([H])[H])(C([H])([H])[H])C([H])=C2C3([H])C([H])(C([H])([H])[H])C4(O[H])C([H])=C([H])C([H])([H])C(=O)C4(C([H])([H])[H])C4([H])C([H])([H])C5(O[H])C([H])([H])C([H])(C([H])([H])[H])C([H])([H])C5([H])OC14C23C([H])([H])[H]

$$$$
47:3:0
     RDKit          3D

 75 80  0  0  1  0  0  0  0  0999 V2000
    3.6978   -2.7688    0.2841 C   0  0  0  0  0  0  0  0  0  0  0  0
    4.2108   -1.6054    1.1548 C   0  0  2  0  0  0  0  0  0  0  0  0
    4.1204   -1.8989    2.6805 C   0  0  0  0  0  0  0  0  0  0  0  0
    3.5882   -0.5778    3.2379 C   0  0  2  0  0  0  0  0  0  0  0  0
    3.0877   -0.4625    4.5807 O   0  0  0  0  0  0  0  0  0  0  0  0
    2.6919    0.8692    5.0357 C   0  0  1  0  0  0  0  0  0  0  0  0
    4.0307    1.7161    5.0658 C   0  0  1  0  0  0  0  0  0  0  0  0
    3.8459    3.1063    5.2087 O   0  0  0  0  0  0  0  0  0  0  0  0
    5.1159    1.3037    6.1287 C   0  0  0  0  0  0  0  0  0  0  0  0
    5.2759   -0.1863    6.5243 C   0  0  0  0  0  0  0  0  0  0  0  0
    5.8058   -0.9536    5.7209 O   0  0  0  0  0  0  0  0  0  0  0  0
    4.7916   -0.7108    7.9238 C   0  0  0  0  0  0  0  0  0  0  0  0
    5.6493   -1.9481    8.2959 C   0  0  0  0  0  0  0  0  0  0  0  0
    5.0062    0.3256    9.0474 C   0  0  0  0  0  0  0  0  0  0  0  0
    3.3181   -1.1460    7.8441 C   0  0  0  0  0  0  0  0  0  0  0  0
    2.3559   -0.4451    7.2238 C   0  0  0  0  0  0  0  0  0  0  0  0
    1.0057   -0.3630    6.5737 C   0  0  1  0  0  0  0  0  0  0  0  0
   -0.3209    0.3594    6.8151 C   0  0  1  0  0  0  0  0  0  0  0  0
   -0.5468    0.9742    8.2258 C   0  0  0  0  0  0  0  0  0  0  0  0
   -0.8259    1.2063    5.5484 C   0  0  1  0  0  0  0  0  0  0  0  0
   -1.5007    0.2023    4.7957 O   0  0  0  0  0  0  0  0  0  0  0  0
   -1.9085    2.1523    6.0421 C   0  0  0  0  0  0  0  0  0  0  0  0
   -1.7560    3.4825    6.1496 C   0  0  0  0  0  0  0  0  0  0  0  0
   -0.4689    4.2189    5.8451 C   0  0  0  0  0  0  0  0  0  0  0  0
    0.4796    3.4508    4.9083 C   0  0  0  0  0  0  0  0  0  0  0  0
    1.4382    4.0442    4.4152 O   0  0  0  0  0  0  0  0  0  0  0  0
    0.1548    1.9904    4.4955 C   0  0  2  0  0  0  0  0  0  0  0  0
   -0.7088    2.2576    3.2159 C   0  0  0  0  0  0  0  0  0  0  0  0
    1.4715    1.1799    4.0476 C   0  0  1  0  0  0  0  0  0  0  0  0
    2.0044    1.2763    2.5762 C   0  0  0  0  0  0  0  0  0  0  0  0
    2.5821   -0.1050    2.2021 C   0  0  2  0  0  0  0  0  0  0  0  0
    1.5039   -1.0158    2.0467 O   0  0  0  0  0  0  0  0  0  0  0  0
    3.4195   -0.2837    0.9317 C   0  0  0  0  0  0  0  0  0  0  0  0
    2.1278    0.7358    6.4492 C   0  0  2  0  0  0  0  0  0  0  0  0
    2.1734    1.9622    7.3824 C   0  0  0  0  0  0  0  0  0  0  0  0
    2.6451   -2.9762    0.4721 H   0  0  0  0  0  0  0  0  0  0  0  0
    4.2570   -3.6827    0.4771 H   0  0  0  0  0  0  0  0  0  0  0  0
    3.7965   -2.5425   -0.7779 H   0  0  0  0  0  0  0  0  0  0  0  0
    5.2515   -1.4197    0.8789 H   0  0  0  0  0  0  0  0  0  0  0  0
    3.4249   -2.7131    2.8828 H   0  0  0  0  0  0  0  0  0  0  0  0
    5.0904   -2.1645    3.1037 H   0  0  0  0  0  0  0  0  0  0  0  0
    4.4759    0.0366    3.1549 H   0  0  0  0  0  0  0  0  0  0  0  0
    4.5116    1.7261    4.1013 H   0  0  0  0  0  0  0  0  0  0  0  0
    3.2408    3.4108    4.5374 H   0  0  0  0  0  0  0  0  0  0  0  0
    6.0801    1.6152    5.7370 H   0  0  0  0  0  0  0  0  0  0  0  0
    5.0104    1.8875    7.0351 H   0  0  0  0  0  0  0  0  0  0  0  0
    5.5345   -2.7673    7.5823 H   0  0  0  0  0  0  0  0  0  0  0  0
    5.3853   -2.3409    9.2800 H   0  0  0  0  0  0  0  0  0  0  0  0
    6.7138   -1.6975    8.3315 H   0  0  0  0  0  0  0  0  0  0  0  0
    4.3320    1.1746    8.9661 H   0  0  0  0  0  0  0  0  0  0  0  0
    6.0317    0.7056    9.0444 H   0  0  0  0  0  0  0  0  0  0  0  0
    4.8296   -0.1203   10.0269 H   0  0  0  0  0  0  0  0  0  0  0  0
    3.0847   -2.1288    8.2134 H   0  0  0  0  0  0  0  0  0  0  0  0
    0.8823   -1.0948    5.7748 H   0  0  0  0  0  0  0  0  0  0  0  0
   -1.0019   -0.4901    6.8832 H   0  0  0  0  0  0  0  0  0  0  0  0
   -0.2625    2.0229    8.2998 H   0  0  0  0  0  0  0  0  0  0  0  0
   -0.0174    0.4149    8.9988 H   0  0  0  0  0  0  0  0  0  0  0  0
   -1.6066    0.9520    8.4854 H   0  0  0  0  0  0  0  0  0  0  0  0
   -1.8899    0.6222    4.0390 H   0  0  0  0  0  0  0  0  0  0  0  0
   -2.8480    1.7112    6.3261 H   0  0  0  0  0  0  0  0  0  0  0  0
   -2.5710    4.0765    6.5328 H   0  0  0  0  0  0  0  0  0  0  0  0
   -0.7189    5.1684    5.3721 H   0  0  0  0  0  0  0  0  0  0  0  0
    0.0318    4.4636    6.7827 H   0  0  0  0  0  0  0  0  0  0  0  0
   -0.9140    1.3604    2.6321 H   0  0  0  0  0  0  0  0  0  0  0  0
   -0.2092    2.9446    2.5329 H   0  0  0  0  0  0  0  0  0  0  0  0
   -1.6679    2.7304    3.4340 H   0  0  0  0  0  0  0  0  0  0  0  0
    0.9646    0.2234    4.0123 H   0  0  0  0  0  0  0  0  0  0  0  0
    1.2504    1.5235    1.8361 H   0  0  0  0  0  0  0  0  0  0  0  0
    2.7568    2.0570    2.4882 H   0  0  0  0  0  0  0  0  0  0  0  0
    1.1646   -0.8905    1.1636 H   0  0  0  0  0  0  0  0  0  0  0  0
    4.1236    0.5453    0.8254 H   0  0  0  0  0  0  0  0  0  0  0  0
    2.8036   -0.3090    0.0392 H   0  0  0  0  0  0  0  0  0  0  0  0
    1.4506    2.7170    7.1220 H   0  0  0  0  0  0  0  0  0  0  0  0
    3.1350    2.4456    7.4456 H   0  0  0  0  0  0  0  0  0  0  0  0
    1.9648    1.6603    8.4100 H   0  0  0  0  0  0  0  0  0  0  0  0
  1  2  1  0
  1 36  1  0
  1 37  1  0
  1 38  1  0
  2 33  1  0
  2  3  1  0
  2 39  1  6
  3  4  1  0
  3 40  1  0
  3 41  1  0
  4 31  1  0
  4  5  1  0
  4 42  1  1
  6  5  1  6
  6 29  1  0
  6 34  1  0
  6  7  1  0
  7  8  1  0
  7  9  1  0
  7 43  1  6
  8 44  1  0
  9 10  1  0
  9 45  1  0
  9 46  1  0
 10 11  2  0
 10 12  1  0
 12 13  1  0
 12 14  1  0
 12 15  1  0
 13 47  1  0
 13 48  1  0
 13 49  1  0
 14 50  1  0
 14 51  1  0
 14 52  1  0
 15 16  2  3
 15 53  1  0
 16 34  1  0
 16 17  1  0
 17 18  1  0
 17 34  1  0
 17 54  1  6
 18 19  1  0
 18 20  1  0
 18 55  1  1
 19 56  1  0
 19 57  1  0
 19 58  1  0
 20 27  1  0
 20 21  1  6
 20 22  1  0
 21 59  1  0
 22 23  2  0
 22 60  1  0
 23 24  1  0
 23 61  1  0
 24 25  1  0
 24 62  1  0
 24 63  1  0
 25 26  2  0
 25 27  1  0
 27 28  1  6
 27 29  1  0
 28 64  1  0
 28 65  1  0
 28 66  1  0
 29 30  1  0
 29 67  1  6
 30 31  1  0
 30 68  1  0
 30 69  1  0
 31 32  1  6
 31 33  1  0
 32 70  1  0
 33 71  1  0
 33 72  1  0
 34 35  1  1
 35 73  1  0
 35 74  1  0
 35 75  1  0
M  END
>  <i_m_ct_stereo_status>  (148) 
1

>  <s_m_source_file>  (148) 
/var/tmp/pbs.5076255.sched01/tmp06yssb5m/4267g10r58.sdf

>  <i_m_source_file_index>  (148) 
27

>  <i_lp_mmshare_version>  (148) 
48012

>  <i_f3d_flags>  (148) 
0

>  <s_epik_input>  (148) 
W0NIM11bQ0BASF0oW0NIMl0xKVtDSDJdW0NASF0oTzIpW0NAQF0xKFtPSF0pW0NIMl1bQ0BASF0oW0NAQF0yMzQpW0NAQF01KFtDSDNdKVtDQF0oW09IXSkoW0NIXT1bQ0hdW0NIMl1DNT1PKVtDQEhdKFtDSDNdKVtDSF02XEMoQzQ2W0NIM10pPVtDSF1cQyhbQ0gzXSkoW0NIM10pQyg9TylbQ0gyXVtDQEBIXTNbT0hd

>  <s_epik_cmdline>  (148) 
J2VwaWtfcHl0aG9uJywgJy1waHQnLCAnMi4wJywgJy1waCcsICc3LjAnLCAnLXRuJywgJzgnLCAnLW1hJywgJzIwMCcsICctaW1hZScsICc8aW5maWxlLm1hZT4nLCAnLW9tYWUnLCAnPG91dGZpbGUubWFlPic=

>  <r_lp_tautomer_probability>  (148) 
1

>  <r_epik_Ionization_Penalty>  (148) 
3.40864e-07

>  <r_epik_Ionization_Penalty_Charging>  (148) 
0

>  <r_epik_Ionization_Penalty_Neutral>  (148) 
3.40864e-07

>  <r_epik_State_Penalty>  (148) 
-0

>  <r_epik_Charging_Adjusted_Penalty>  (148) 
0

>  <i_epik_Tot_Q>  (148) 
0

>  <i_epik_Tot_abs_Q>  (148) 
0

>  <s_lp_Force_Field>  (148) 
OPLS3e

>  <r_lp_Energy>  (148) 
126.904

>  <b_lp_Chiralities_Consistent>  (148) 
1

>  <s_lp_Variant>  (148) 
47:0-4

>  <s_i_glide_gridfile>  (148) 
pfpi4k_grid

>  <i_i_glide_lignum>  (148) 
27

>  <i_i_glide_rotatable_bonds>  (148) 
3

>  <r_i_docking_score>  (148) 
-2.38689

>  <r_i_glide_ligand_efficiency>  (148) 
-0.068197

>  <r_i_glide_ligand_efficiency_sa>  (148) 
-0.223077

>  <r_i_glide_ligand_efficiency_ln>  (148) 
-0.523976

>  <r_i_glide_gscore>  (148) 
-2.38689

>  <r_i_glide_lipo>  (148) 
-0.0687259

>  <r_i_glide_hbond>  (148) 
0

>  <r_i_glide_metal>  (148) 
-0

>  <r_i_glide_rewards>  (148) 
-0.616192

>  <r_i_glide_evdw>  (148) 
-26.2788

>  <r_i_glide_ecoul>  (148) 
-2.4811

>  <r_i_glide_erotb>  (148) 
0

>  <r_i_glide_esite>  (148) 
-0.0158691

>  <r_i_glide_emodel>  (148) 
-37.8249

>  <r_i_glide_energy>  (148) 
-28.7599

>  <r_i_glide_einternal>  (148) 
0.70984

>  <r_i_glide_intrahb_reward>  (148) 
-0.5

>  <i_i_glide_confnum>  (148) 
1

>  <i_i_glide_posenum>  (148) 
30

>  <r_i_glide_eff_state_penalty>  (148) 
0

>  <ligand_id>  (148) 
47

>  <original_smiles>  (148) 
CC1CC2OC34C(O)CC(=O)C(C)(C)C=C5C(C(C)C6(O)C=CCC(=O)C6(C)C3CC2(O)C1)C54C

>  <smiles>  (148) 
[H]OC1([H])C([H])([H])C(=O)C(C([H])([H])[H])(C([H])([H])[H])C([H])=C2C3([H])C([H])(C([H])([H])[H])C4(O[H])C([H])=C([H])C([H])([H])C(=O)C4(C([H])([H])[H])C4([H])C([H])([H])C5(O[H])C([H])([H])C([H])(C([H])([H])[H])C([H])([H])C5([H])OC14C23C([H])([H])[H]

$$$$
47:3:1
     RDKit          3D

 75 80  0  0  1  0  0  0  0  0999 V2000
    3.8623   -3.8433    0.1749 C   0  0  0  0  0  0  0  0  0  0  0  0
    4.4465   -2.7496    1.0893 C   0  0  2  0  0  0  0  0  0  0  0  0
    4.1278   -2.9824    2.5964 C   0  0  0  0  0  0  0  0  0  0  0  0
    3.7668   -1.5765    3.0766 C   0  0  2  0  0  0  0  0  0  0  0  0
    3.1222   -1.3528    4.3424 O   0  0  0  0  0  0  0  0  0  0  0  0
    2.8954    0.0349    4.7418 C   0  0  1  0  0  0  0  0  0  0  0  0
    4.3400    0.6546    4.9337 C   0  0  1  0  0  0  0  0  0  0  0  0
    4.3431    2.0563    5.0597 O   0  0  0  0  0  0  0  0  0  0  0  0
    5.2066    0.1006    6.1247 C   0  0  0  0  0  0  0  0  0  0  0  0
    5.0648   -1.3841    6.5491 C   0  0  0  0  0  0  0  0  0  0  0  0
    5.5456   -2.2534    5.8217 O   0  0  0  0  0  0  0  0  0  0  0  0
    4.3340   -1.7803    7.8819 C   0  0  0  0  0  0  0  0  0  0  0  0
    4.9240   -3.1296    8.3681 C   0  0  0  0  0  0  0  0  0  0  0  0
    4.5786   -0.7608    9.0152 C   0  0  0  0  0  0  0  0  0  0  0  0
    2.8300   -1.9723    7.6223 C   0  0  0  0  0  0  0  0  0  0  0  0
    2.0789   -1.1429    6.8794 C   0  0  0  0  0  0  0  0  0  0  0  0
    0.8500   -0.8584    6.0648 C   0  0  1  0  0  0  0  0  0  0  0  0
   -0.3588    0.0800    6.1355 C   0  0  1  0  0  0  0  0  0  0  0  0
   -0.6442    0.7630    7.4992 C   0  0  0  0  0  0  0  0  0  0  0  0
   -0.5525    0.9671    4.8119 C   0  0  1  0  0  0  0  0  0  0  0  0
   -1.2815    0.0650    3.9920 O   0  0  0  0  0  0  0  0  0  0  0  0
   -1.5245    2.0891    5.1465 C   0  0  0  0  0  0  0  0  0  0  0  0
   -1.1656    3.3802    5.2647 C   0  0  0  0  0  0  0  0  0  0  0  0
    0.2559    3.8851    5.1217 C   0  0  0  0  0  0  0  0  0  0  0  0
    1.1733    2.9491    4.3146 C   0  0  0  0  0  0  0  0  0  0  0  0
    2.2683    3.3673    3.9336 O   0  0  0  0  0  0  0  0  0  0  0  0
    0.6677    1.5473    3.8834 C   0  0  2  0  0  0  0  0  0  0  0  0
    0.0292    1.9100    2.5000 C   0  0  0  0  0  0  0  0  0  0  0  0
    1.8745    0.5171    3.6083 C   0  0  1  0  0  0  0  0  0  0  0  0
    2.5934    0.4902    2.2146 C   0  0  0  0  0  0  0  0  0  0  0  0
    2.9885   -0.9734    1.9191 C   0  0  2  0  0  0  0  0  0  0  0  0
    1.8046   -1.7080    1.6675 O   0  0  0  0  0  0  0  0  0  0  0  0
    3.9207   -1.3200    0.7503 C   0  0  0  0  0  0  0  0  0  0  0  0
    2.1457    0.0371    6.0742 C   0  0  2  0  0  0  0  0  0  0  0  0
    2.2787    1.2663    6.9977 C   0  0  0  0  0  0  0  0  0  0  0  0
    2.7751   -3.8741    0.2330 H   0  0  0  0  0  0  0  0  0  0  0  0
    4.2377   -4.8283    0.4478 H   0  0  0  0  0  0  0  0  0  0  0  0
    4.1281   -3.6704   -0.8683 H   0  0  0  0  0  0  0  0  0  0  0  0
    5.5295   -2.7461    0.9489 H   0  0  0  0  0  0  0  0  0  0  0  0
    3.2882   -3.6661    2.7212 H   0  0  0  0  0  0  0  0  0  0  0  0
    4.9797   -3.3937    3.1392 H   0  0  0  0  0  0  0  0  0  0  0  0
    4.7482   -1.1210    3.1104 H   0  0  0  0  0  0  0  0  0  0  0  0
    4.9353    0.5743    4.0375 H   0  0  0  0  0  0  0  0  0  0  0  0
    3.9288    2.4391    4.2915 H   0  0  0  0  0  0  0  0  0  0  0  0
    6.2503    0.2423    5.8563 H   0  0  0  0  0  0  0  0  0  0  0  0
    5.0876    0.7195    7.0058 H   0  0  0  0  0  0  0  0  0  0  0  0
    4.7643   -3.9386    7.6514 H   0  0  0  0  0  0  0  0  0  0  0  0
    4.4802   -3.4469    9.3141 H   0  0  0  0  0  0  0  0  0  0  0  0
    6.0028   -3.0546    8.5347 H   0  0  0  0  0  0  0  0  0  0  0  0
    4.0693    0.1843    8.8438 H   0  0  0  0  0  0  0  0  0  0  0  0
    5.6454   -0.5534    9.1386 H   0  0  0  0  0  0  0  0  0  0  0  0
    4.2121   -1.1441    9.9683 H   0  0  0  0  0  0  0  0  0  0  0  0
    2.3941   -2.8931    7.9657 H   0  0  0  0  0  0  0  0  0  0  0  0
    0.7067   -1.5809    5.2612 H   0  0  0  0  0  0  0  0  0  0  0  0
   -1.1832   -0.6373    6.1297 H   0  0  0  0  0  0  0  0  0  0  0  0
   -0.2083    1.7557    7.5953 H   0  0  0  0  0  0  0  0  0  0  0  0
   -0.3058    0.1487    8.3350 H   0  0  0  0  0  0  0  0  0  0  0  0
   -1.7186    0.9132    7.6231 H   0  0  0  0  0  0  0  0  0  0  0  0
   -1.6149    0.5598    3.2563 H   0  0  0  0  0  0  0  0  0  0  0  0
   -2.5559    1.8094    5.2910 H   0  0  0  0  0  0  0  0  0  0  0  0
   -1.9103    4.1159    5.5265 H   0  0  0  0  0  0  0  0  0  0  0  0
    0.2268    4.8490    4.6132 H   0  0  0  0  0  0  0  0  0  0  0  0
    0.6733    4.0713    6.1112 H   0  0  0  0  0  0  0  0  0  0  0  0
   -0.2476    1.0454    1.8969 H   0  0  0  0  0  0  0  0  0  0  0  0
    0.7180    2.4987    1.8921 H   0  0  0  0  0  0  0  0  0  0  0  0
   -0.8586    2.5390    2.5877 H   0  0  0  0  0  0  0  0  0  0  0  0
    1.2213   -0.3418    3.5178 H   0  0  0  0  0  0  0  0  0  0  0  0
    1.9818    0.8263    1.3830 H   0  0  0  0  0  0  0  0  0  0  0  0
    3.4587    1.1486    2.2156 H   0  0  0  0  0  0  0  0  0  0  0  0
    1.4748   -1.4271    0.8129 H   0  0  0  0  0  0  0  0  0  0  0  0
    4.7620   -0.6238    0.7322 H   0  0  0  0  0  0  0  0  0  0  0  0
    3.4317   -1.2575   -0.2224 H   0  0  0  0  0  0  0  0  0  0  0  0
    1.7314    2.1231    6.6405 H   0  0  0  0  0  0  0  0  0  0  0  0
    3.2913    1.5870    7.1835 H   0  0  0  0  0  0  0  0  0  0  0  0
    1.8990    1.0337    7.9937 H   0  0  0  0  0  0  0  0  0  0  0  0
  1  2  1  0
  1 36  1  0
  1 37  1  0
  1 38  1  0
  2 33  1  0
  2  3  1  0
  2 39  1  1
  3  4  1  0
  3 40  1  0
  3 41  1  0
  4 31  1  0
  4  5  1  0
  4 42  1  1
  6  5  1  6
  6 29  1  0
  6 34  1  0
  6  7  1  0
  7  8  1  0
  7  9  1  0
  7 43  1  6
  8 44  1  0
  9 10  1  0
  9 45  1  0
  9 46  1  0
 10 11  2  0
 10 12  1  0
 12 13  1  0
 12 14  1  0
 12 15  1  0
 13 47  1  0
 13 48  1  0
 13 49  1  0
 14 50  1  0
 14 51  1  0
 14 52  1  0
 15 16  2  3
 15 53  1  0
 16 34  1  0
 16 17  1  0
 17 18  1  0
 17 34  1  0
 17 54  1  6
 18 19  1  0
 18 20  1  0
 18 55  1  6
 19 56  1  0
 19 57  1  0
 19 58  1  0
 20 27  1  0
 20 21  1  6
 20 22  1  0
 21 59  1  0
 22 23  2  0
 22 60  1  0
 23 24  1  0
 23 61  1  0
 24 25  1  0
 24 62  1  0
 24 63  1  0
 25 26  2  0
 25 27  1  0
 27 28  1  6
 27 29  1  0
 28 64  1  0
 28 65  1  0
 28 66  1  0
 29 30  1  0
 29 67  1  6
 30 31  1  0
 30 68  1  0
 30 69  1  0
 31 32  1  6
 31 33  1  0
 32 70  1  0
 33 71  1  0
 33 72  1  0
 34 35  1  1
 35 73  1  0
 35 74  1  0
 35 75  1  0
M  END
>  <i_m_ct_stereo_status>  (149) 
1

>  <s_m_source_file>  (149) 
/var/tmp/pbs.5076255.sched01/tmp06yssb5m/4267g10r58.sdf

>  <i_m_source_file_index>  (149) 
27

>  <i_lp_mmshare_version>  (149) 
48012

>  <i_f3d_flags>  (149) 
0

>  <s_epik_input>  (149) 
W0NIM11bQ0BASF0oW0NIMl0xKVtDSDJdW0NASF0oTzIpW0NAQF0xKFtPSF0pW0NIMl1bQ0BASF0oW0NAQF0yMzQpW0NAQF01KFtDSDNdKVtDQF0oW09IXSkoW0NIXT1bQ0hdW0NIMl1DNT1PKVtDQEhdKFtDSDNdKVtDSF02XEMoQzQ2W0NIM10pPVtDSF1cQyhbQ0gzXSkoW0NIM10pQyg9TylbQ0gyXVtDQEBIXTNbT0hd

>  <s_epik_cmdline>  (149) 
J2VwaWtfcHl0aG9uJywgJy1waHQnLCAnMi4wJywgJy1waCcsICc3LjAnLCAnLXRuJywgJzgnLCAnLW1hJywgJzIwMCcsICctaW1hZScsICc8aW5maWxlLm1hZT4nLCAnLW9tYWUnLCAnPG91dGZpbGUubWFlPic=

>  <r_lp_tautomer_probability>  (149) 
1

>  <r_epik_Ionization_Penalty>  (149) 
3.40864e-07

>  <r_epik_Ionization_Penalty_Charging>  (149) 
0

>  <r_epik_Ionization_Penalty_Neutral>  (149) 
3.40864e-07

>  <r_epik_State_Penalty>  (149) 
-0

>  <r_epik_Charging_Adjusted_Penalty>  (149) 
0

>  <i_epik_Tot_Q>  (149) 
0

>  <i_epik_Tot_abs_Q>  (149) 
0

>  <s_lp_Force_Field>  (149) 
OPLS3e

>  <r_lp_Energy>  (149) 
126.904

>  <b_lp_Chiralities_Consistent>  (149) 
1

>  <s_lp_Variant>  (149) 
47:0-4

>  <s_i_glide_gridfile>  (149) 
pfpi4k_grid

>  <i_i_glide_lignum>  (149) 
27

>  <i_i_glide_rotatable_bonds>  (149) 
3

>  <r_i_docking_score>  (149) 
-2.32717

>  <r_i_glide_ligand_efficiency>  (149) 
-0.0664906

>  <r_i_glide_ligand_efficiency_sa>  (149) 
-0.217495

>  <r_i_glide_ligand_efficiency_ln>  (149) 
-0.510865

>  <r_i_glide_gscore>  (149) 
-2.32717

>  <r_i_glide_lipo>  (149) 
-0.0513168

>  <r_i_glide_hbond>  (149) 
0

>  <r_i_glide_metal>  (149) 
-0

>  <r_i_glide_rewards>  (149) 
-0.604834

>  <r_i_glide_evdw>  (149) 
-24.8652

>  <r_i_glide_ecoul>  (149) 
-2.71517

>  <r_i_glide_erotb>  (149) 
0

>  <r_i_glide_esite>  (149) 
-0.0204844

>  <r_i_glide_emodel>  (149) 
-36.6794

>  <r_i_glide_energy>  (149) 
-27.5803

>  <r_i_glide_einternal>  (149) 
0.516757

>  <r_i_glide_intrahb_reward>  (149) 
-0.5

>  <i_i_glide_confnum>  (149) 
1

>  <i_i_glide_posenum>  (149) 
31

>  <r_i_glide_eff_state_penalty>  (149) 
0

>  <ligand_id>  (149) 
47

>  <original_smiles>  (149) 
CC1CC2OC34C(O)CC(=O)C(C)(C)C=C5C(C(C)C6(O)C=CCC(=O)C6(C)C3CC2(O)C1)C54C

>  <smiles>  (149) 
[H]OC1([H])C([H])([H])C(=O)C(C([H])([H])[H])(C([H])([H])[H])C([H])=C2C3([H])C([H])(C([H])([H])[H])C4(O[H])C([H])=C([H])C([H])([H])C(=O)C4(C([H])([H])[H])C4([H])C([H])([H])C5(O[H])C([H])([H])C([H])(C([H])([H])[H])C([H])([H])C5([H])OC14C23C([H])([H])[H]

$$$$
47:3:2
     RDKit          3D

 75 80  0  0  1  0  0  0  0  0999 V2000
    3.7982   -2.6335    0.9617 C   0  0  0  0  0  0  0  0  0  0  0  0
    4.1832   -1.3127    1.6539 C   0  0  2  0  0  0  0  0  0  0  0  0
    4.2941   -1.4492    3.2020 C   0  0  0  0  0  0  0  0  0  0  0  0
    3.6069   -0.1730    3.6899 C   0  0  2  0  0  0  0  0  0  0  0  0
    3.2129   -0.0030    5.0644 O   0  0  0  0  0  0  0  0  0  0  0  0
    2.6525    1.2940    5.4460 C   0  0  1  0  0  0  0  0  0  0  0  0
    3.8255    2.3378    5.2451 C   0  0  1  0  0  0  0  0  0  0  0  0
    3.4299    3.6910    5.2717 O   0  0  0  0  0  0  0  0  0  0  0  0
    5.0574    2.2192    6.2153 C   0  0  0  0  0  0  0  0  0  0  0  0
    5.5127    0.8260    6.7201 C   0  0  0  0  0  0  0  0  0  0  0  0
    6.0894    0.0734    5.9342 O   0  0  0  0  0  0  0  0  0  0  0  0
    5.2593    0.3874    8.2064 C   0  0  0  0  0  0  0  0  0  0  0  0
    6.3457   -0.6481    8.5926 C   0  0  0  0  0  0  0  0  0  0  0  0
    5.4013    1.5597    9.2004 C   0  0  0  0  0  0  0  0  0  0  0  0
    3.8801   -0.2826    8.3331 C   0  0  0  0  0  0  0  0  0  0  0  0
    2.7580    0.1853    7.7676 C   0  0  0  0  0  0  0  0  0  0  0  0
    1.3552   -0.0205    7.2694 C   0  0  1  0  0  0  0  0  0  0  0  0
   -0.0463    0.5036    7.5952 C   0  0  1  0  0  0  0  0  0  0  0  0
   -0.2328    1.2173    8.9605 C   0  0  0  0  0  0  0  0  0  0  0  0
   -0.8080    1.1184    6.3221 C   0  0  1  0  0  0  0  0  0  0  0  0
   -1.3679   -0.0548    5.7383 O   0  0  0  0  0  0  0  0  0  0  0  0
   -1.9912    1.9218    6.8380 C   0  0  0  0  0  0  0  0  0  0  0  0
   -2.0495    3.2635    6.8102 C   0  0  0  0  0  0  0  0  0  0  0  0
   -0.9318    4.1504    6.3088 C   0  0  0  0  0  0  0  0  0  0  0  0
    0.0356    3.4542    5.3381 C   0  0  0  0  0  0  0  0  0  0  0  0
    0.8149    4.1366    4.6777 O   0  0  0  0  0  0  0  0  0  0  0  0
   -0.0792    1.9295    5.0967 C   0  0  2  0  0  0  0  0  0  0  0  0
   -1.0904    1.9237    3.8954 C   0  0  0  0  0  0  0  0  0  0  0  0
    1.3087    1.3011    4.5781 C   0  0  1  0  0  0  0  0  0  0  0  0
    1.6783    1.3232    3.0510 C   0  0  0  0  0  0  0  0  0  0  0  0
    2.4410    0.0180    2.7294 C   0  0  2  0  0  0  0  0  0  0  0  0
    1.5282   -1.0660    2.8055 O   0  0  0  0  0  0  0  0  0  0  0  0
    3.1636   -0.1656    1.3930 C   0  0  0  0  0  0  0  0  0  0  0  0
    2.2573    1.2244    6.9201 C   0  0  2  0  0  0  0  0  0  0  0  0
    2.1850    2.5369    7.7246 C   0  0  0  0  0  0  0  0  0  0  0  0
    2.8184   -2.9859    1.2870 H   0  0  0  0  0  0  0  0  0  0  0  0
    4.5213   -3.4197    1.1740 H   0  0  0  0  0  0  0  0  0  0  0  0
    3.7533   -2.5113   -0.1207 H   0  0  0  0  0  0  0  0  0  0  0  0
    5.1457   -0.9971    1.2478 H   0  0  0  0  0  0  0  0  0  0  0  0
    3.7711   -2.3380    3.5557 H   0  0  0  0  0  0  0  0  0  0  0  0
    5.3326   -1.5152    3.5350 H   0  0  0  0  0  0  0  0  0  0  0  0
    4.3744    0.5552    3.4620 H   0  0  0  0  0  0  0  0  0  0  0  0
    4.2061    2.3177    4.2362 H   0  0  0  0  0  0  0  0  0  0  0  0
    2.7364    3.8276    4.6339 H   0  0  0  0  0  0  0  0  0  0  0  0
    5.9135    2.6384    5.6949 H   0  0  0  0  0  0  0  0  0  0  0  0
    4.9411    2.8742    7.0700 H   0  0  0  0  0  0  0  0  0  0  0  0
    6.3041   -1.5486    7.9747 H   0  0  0  0  0  0  0  0  0  0  0  0
    6.2480   -0.9686    9.6316 H   0  0  0  0  0  0  0  0  0  0  0  0
    7.3514   -0.2313    8.4843 H   0  0  0  0  0  0  0  0  0  0  0  0
    4.5875    2.2771    9.1187 H   0  0  0  0  0  0  0  0  0  0  0  0
    6.3428    2.0959    9.0500 H   0  0  0  0  0  0  0  0  0  0  0  0
    5.3949    1.2006   10.2306 H   0  0  0  0  0  0  0  0  0  0  0  0
    3.8531   -1.2428    8.8157 H   0  0  0  0  0  0  0  0  0  0  0  0
    1.2816   -0.8472    6.5650 H   0  0  0  0  0  0  0  0  0  0  0  0
   -0.5681   -0.4264    7.8245 H   0  0  0  0  0  0  0  0  0  0  0  0
   -0.1395    2.3003    8.9088 H   0  0  0  0  0  0  0  0  0  0  0  0
    0.4617    0.8403    9.7120 H   0  0  0  0  0  0  0  0  0  0  0  0
   -1.2372    1.0317    9.3435 H   0  0  0  0  0  0  0  0  0  0  0  0
   -1.6771    0.1905    4.8777 H   0  0  0  0  0  0  0  0  0  0  0  0
   -2.8214    1.3628    7.2370 H   0  0  0  0  0  0  0  0  0  0  0  0
   -2.9159    3.7665    7.2124 H   0  0  0  0  0  0  0  0  0  0  0  0
   -1.3806    4.9805    5.7674 H   0  0  0  0  0  0  0  0  0  0  0  0
   -0.3924    4.5729    7.1568 H   0  0  0  0  0  0  0  0  0  0  0  0
   -1.1962    0.9520    3.4144 H   0  0  0  0  0  0  0  0  0  0  0  0
   -0.7888    2.6189    3.1095 H   0  0  0  0  0  0  0  0  0  0  0  0
   -2.0929    2.2497    4.1824 H   0  0  0  0  0  0  0  0  0  0  0  0
    0.9688    0.2823    4.7009 H   0  0  0  0  0  0  0  0  0  0  0  0
    0.8237    1.3592    2.3823 H   0  0  0  0  0  0  0  0  0  0  0  0
    2.2735    2.2017    2.8081 H   0  0  0  0  0  0  0  0  0  0  0  0
    1.1629   -1.0602    3.6753 H   0  0  0  0  0  0  0  0  0  0  0  0
    3.7093    0.7449    1.1361 H   0  0  0  0  0  0  0  0  0  0  0  0
    2.4830   -0.3765    0.5688 H   0  0  0  0  0  0  0  0  0  0  0  0
    1.3217    3.1320    7.4847 H   0  0  0  0  0  0  0  0  0  0  0  0
    3.0504    3.1717    7.6301 H   0  0  0  0  0  0  0  0  0  0  0  0
    2.1327    2.3177    8.7936 H   0  0  0  0  0  0  0  0  0  0  0  0
  1  2  1  0
  1 36  1  0
  1 37  1  0
  1 38  1  0
  2 33  1  0
  2  3  1  0
  2 39  1  6
  3  4  1  0
  3 40  1  0
  3 41  1  0
  4 31  1  0
  4  5  1  0
  4 42  1  6
  6  5  1  6
  6 29  1  0
  6 34  1  0
  6  7  1  0
  7  8  1  0
  7  9  1  0
  7 43  1  6
  8 44  1  0
  9 10  1  0
  9 45  1  0
  9 46  1  0
 10 11  2  0
 10 12  1  0
 12 13  1  0
 12 14  1  0
 12 15  1  0
 13 47  1  0
 13 48  1  0
 13 49  1  0
 14 50  1  0
 14 51  1  0
 14 52  1  0
 15 16  2  3
 15 53  1  0
 16 34  1  0
 16 17  1  0
 17 18  1  0
 17 34  1  0
 17 54  1  6
 18 19  1  0
 18 20  1  0
 18 55  1  1
 19 56  1  0
 19 57  1  0
 19 58  1  0
 20 27  1  0
 20 21  1  6
 20 22  1  0
 21 59  1  0
 22 23  2  0
 22 60  1  0
 23 24  1  0
 23 61  1  0
 24 25  1  0
 24 62  1  0
 24 63  1  0
 25 26  2  0
 25 27  1  0
 27 28  1  6
 27 29  1  0
 28 64  1  0
 28 65  1  0
 28 66  1  0
 29 30  1  0
 29 67  1  6
 30 31  1  0
 30 68  1  0
 30 69  1  0
 31 32  1  1
 31 33  1  0
 32 70  1  0
 33 71  1  0
 33 72  1  0
 34 35  1  1
 35 73  1  0
 35 74  1  0
 35 75  1  0
M  END
>  <i_m_ct_stereo_status>  (150) 
1

>  <s_m_source_file>  (150) 
/var/tmp/pbs.5076255.sched01/tmp06yssb5m/4267g10r58.sdf

>  <i_m_source_file_index>  (150) 
27

>  <i_lp_mmshare_version>  (150) 
48012

>  <i_f3d_flags>  (150) 
0

>  <s_epik_input>  (150) 
W0NIM11bQ0BASF0oW0NIMl0xKVtDSDJdW0NASF0oTzIpW0NAQF0xKFtPSF0pW0NIMl1bQ0BASF0oW0NAQF0yMzQpW0NAQF01KFtDSDNdKVtDQF0oW09IXSkoW0NIXT1bQ0hdW0NIMl1DNT1PKVtDQEhdKFtDSDNdKVtDSF02XEMoQzQ2W0NIM10pPVtDSF1cQyhbQ0gzXSkoW0NIM10pQyg9TylbQ0gyXVtDQEBIXTNbT0hd

>  <s_epik_cmdline>  (150) 
J2VwaWtfcHl0aG9uJywgJy1waHQnLCAnMi4wJywgJy1waCcsICc3LjAnLCAnLXRuJywgJzgnLCAnLW1hJywgJzIwMCcsICctaW1hZScsICc8aW5maWxlLm1hZT4nLCAnLW9tYWUnLCAnPG91dGZpbGUubWFlPic=

>  <r_lp_tautomer_probability>  (150) 
1

>  <r_epik_Ionization_Penalty>  (150) 
3.40864e-07

>  <r_epik_Ionization_Penalty_Charging>  (150) 
0

>  <r_epik_Ionization_Penalty_Neutral>  (150) 
3.40864e-07

>  <r_epik_State_Penalty>  (150) 
-0

>  <r_epik_Charging_Adjusted_Penalty>  (150) 
0

>  <i_epik_Tot_Q>  (150) 
0

>  <i_epik_Tot_abs_Q>  (150) 
0

>  <s_lp_Force_Field>  (150) 
OPLS3e

>  <r_lp_Energy>  (150) 
126.904

>  <b_lp_Chiralities_Consistent>  (150) 
1

>  <s_lp_Variant>  (150) 
47:0-4

>  <s_i_glide_gridfile>  (150) 
pfpi4k_grid

>  <i_i_glide_lignum>  (150) 
27

>  <i_i_glide_rotatable_bonds>  (150) 
3

>  <r_i_docking_score>  (150) 
-2.12721

>  <r_i_glide_ligand_efficiency>  (150) 
-0.0607774

>  <r_i_glide_ligand_efficiency_sa>  (150) 
-0.198807

>  <r_i_glide_ligand_efficiency_ln>  (150) 
-0.46697

>  <r_i_glide_gscore>  (150) 
-2.12721

>  <r_i_glide_lipo>  (150) 
-0.108542

>  <r_i_glide_hbond>  (150) 
0

>  <r_i_glide_metal>  (150) 
-0

>  <r_i_glide_rewards>  (150) 
-0.627262

>  <r_i_glide_evdw>  (150) 
-26.5165

>  <r_i_glide_ecoul>  (150) 
-0.391974

>  <r_i_glide_erotb>  (150) 
0

>  <r_i_glide_esite>  (150) 
-0.00678494

>  <r_i_glide_emodel>  (150) 
-35.6175

>  <r_i_glide_energy>  (150) 
-26.9085

>  <r_i_glide_einternal>  (150) 
0.495916

>  <r_i_glide_intrahb_reward>  (150) 
-0.5

>  <i_i_glide_confnum>  (150) 
2

>  <i_i_glide_posenum>  (150) 
9

>  <r_i_glide_eff_state_penalty>  (150) 
0

>  <ligand_id>  (150) 
47

>  <original_smiles>  (150) 
CC1CC2OC34C(O)CC(=O)C(C)(C)C=C5C(C(C)C6(O)C=CCC(=O)C6(C)C3CC2(O)C1)C54C

>  <smiles>  (150) 
[H]OC1([H])C([H])([H])C(=O)C(C([H])([H])[H])(C([H])([H])[H])C([H])=C2C3([H])C([H])(C([H])([H])[H])C4(O[H])C([H])=C([H])C([H])([H])C(=O)C4(C([H])([H])[H])C4([H])C([H])([H])C5(O[H])C([H])([H])C([H])(C([H])([H])[H])C([H])([H])C5([H])OC14C23C([H])([H])[H]

$$$$
47:4:0
     RDKit          3D

 75 80  0  0  1  0  0  0  0  0999 V2000
    3.4400   -1.9982    1.3428 C   0  0  0  0  0  0  0  0  0  0  0  0
    3.8646   -0.7051    2.0602 C   0  0  2  0  0  0  0  0  0  0  0  0
    4.0482   -0.8861    3.5964 C   0  0  0  0  0  0  0  0  0  0  0  0
    3.4227    0.3978    4.1405 C   0  0  2  0  0  0  0  0  0  0  0  0
    3.1908    0.6270    5.5536 O   0  0  0  0  0  0  0  0  0  0  0  0
    2.6827    1.9482    5.9582 C   0  0  1  0  0  0  0  0  0  0  0  0
    3.7831    2.9830    5.4799 C   0  0  1  0  0  0  0  0  0  0  0  0
    3.3704    4.3306    5.4682 O   0  0  0  0  0  0  0  0  0  0  0  0
    5.1386    2.9060    6.2551 C   0  0  0  0  0  0  0  0  0  0  0  0
    5.7712    1.5112    6.4708 C   0  0  0  0  0  0  0  0  0  0  0  0
    6.2710    0.9342    5.5027 O   0  0  0  0  0  0  0  0  0  0  0  0
    5.8289    0.8742    7.8992 C   0  0  0  0  0  0  0  0  0  0  0  0
    6.7735   -0.3562    7.8505 C   0  0  0  0  0  0  0  0  0  0  0  0
    6.4479    1.8690    8.9027 C   0  0  0  0  0  0  0  0  0  0  0  0
    4.4589    0.3922    8.4131 C   0  0  0  0  0  0  0  0  0  0  0  0
    3.2587    0.9525    8.1827 C   0  0  0  0  0  0  0  0  0  0  0  0
    1.7892    1.0147    8.4129 C   0  0  2  0  0  0  0  0  0  0  0  0
    0.7203    0.2139    7.7060 C   0  0  1  0  0  0  0  0  0  0  0  0
    0.2301   -0.8752    8.6868 C   0  0  0  0  0  0  0  0  0  0  0  0
   -0.4422    1.1351    7.0999 C   0  0  1  0  0  0  0  0  0  0  0  0
   -1.2851    0.1612    6.4866 O   0  0  0  0  0  0  0  0  0  0  0  0
   -1.2589    1.7393    8.2297 C   0  0  0  0  0  0  0  0  0  0  0  0
   -1.3911    3.0466    8.4971 C   0  0  0  0  0  0  0  0  0  0  0  0
   -0.7136    4.1603    7.7410 C   0  0  0  0  0  0  0  0  0  0  0  0
   -0.0079    3.7165    6.4535 C   0  0  0  0  0  0  0  0  0  0  0  0
    0.5301    4.5733    5.7550 O   0  0  0  0  0  0  0  0  0  0  0  0
   -0.0784    2.2463    5.9623 C   0  0  2  0  0  0  0  0  0  0  0  0
   -1.2573    2.3430    4.9408 C   0  0  0  0  0  0  0  0  0  0  0  0
    1.2709    1.8657    5.2195 C   0  0  1  0  0  0  0  0  0  0  0  0
    1.4366    1.9140    3.6617 C   0  0  0  0  0  0  0  0  0  0  0  0
    2.1925    0.6195    3.2558 C   0  0  2  0  0  0  0  0  0  0  0  0
    1.2757   -0.4647    3.3364 O   0  0  0  0  0  0  0  0  0  0  0  0
    2.8399    0.4569    1.8744 C   0  0  0  0  0  0  0  0  0  0  0  0
    2.5576    2.0524    7.5260 C   0  0  2  0  0  0  0  0  0  0  0  0
    2.6623    3.4196    8.2263 C   0  0  0  0  0  0  0  0  0  0  0  0
    2.4722   -2.3496    1.6978 H   0  0  0  0  0  0  0  0  0  0  0  0
    4.1651   -2.7956    1.5023 H   0  0  0  0  0  0  0  0  0  0  0  0
    3.3529   -1.8383    0.2682 H   0  0  0  0  0  0  0  0  0  0  0  0
    4.8141   -0.3851    1.6245 H   0  0  0  0  0  0  0  0  0  0  0  0
    3.5149   -1.7639    3.9609 H   0  0  0  0  0  0  0  0  0  0  0  0
    5.0990   -0.9883    3.8777 H   0  0  0  0  0  0  0  0  0  0  0  0
    4.1982    1.0870    3.8353 H   0  0  0  0  0  0  0  0  0  0  0  0
    3.9975    2.9085    4.4268 H   0  0  0  0  0  0  0  0  0  0  0  0
    2.6050    4.4154    4.9124 H   0  0  0  0  0  0  0  0  0  0  0  0
    5.8644    3.4885    5.6948 H   0  0  0  0  0  0  0  0  0  0  0  0
    5.0734    3.4175    7.2060 H   0  0  0  0  0  0  0  0  0  0  0  0
    6.3939   -1.1370    7.1871 H   0  0  0  0  0  0  0  0  0  0  0  0
    6.9010   -0.8049    8.8377 H   0  0  0  0  0  0  0  0  0  0  0  0
    7.7728   -0.0858    7.4957 H   0  0  0  0  0  0  0  0  0  0  0  0
    5.7910    2.7112    9.1111 H   0  0  0  0  0  0  0  0  0  0  0  0
    7.3959    2.2670    8.5347 H   0  0  0  0  0  0  0  0  0  0  0  0
    6.6533    1.3874    9.8584 H   0  0  0  0  0  0  0  0  0  0  0  0
    4.4857   -0.4727    9.0535 H   0  0  0  0  0  0  0  0  0  0  0  0
    1.4573    1.3497    9.3966 H   0  0  0  0  0  0  0  0  0  0  0  0
    1.2174   -0.3576    6.9235 H   0  0  0  0  0  0  0  0  0  0  0  0
   -0.2464   -0.4608    9.5780 H   0  0  0  0  0  0  0  0  0  0  0  0
    1.0671   -1.4799    9.0324 H   0  0  0  0  0  0  0  0  0  0  0  0
   -0.4617   -1.5631    8.2028 H   0  0  0  0  0  0  0  0  0  0  0  0
   -0.8933   -0.0642    5.6565 H   0  0  0  0  0  0  0  0  0  0  0  0
   -1.7882    1.0424    8.8549 H   0  0  0  0  0  0  0  0  0  0  0  0
   -2.0056    3.3538    9.3300 H   0  0  0  0  0  0  0  0  0  0  0  0
   -1.4565    4.9127    7.4827 H   0  0  0  0  0  0  0  0  0  0  0  0
    0.0022    4.6440    8.4043 H   0  0  0  0  0  0  0  0  0  0  0  0
   -1.3899    1.4441    4.3380 H   0  0  0  0  0  0  0  0  0  0  0  0
   -1.1163    3.1607    4.2325 H   0  0  0  0  0  0  0  0  0  0  0  0
   -2.2065    2.5362    5.4447 H   0  0  0  0  0  0  0  0  0  0  0  0
    1.0304    0.8193    5.2792 H   0  0  0  0  0  0  0  0  0  0  0  0
    0.4926    1.9550    3.1230 H   0  0  0  0  0  0  0  0  0  0  0  0
    1.9749    2.8075    3.3580 H   0  0  0  0  0  0  0  0  0  0  0  0
    0.6615   -0.3602    2.6245 H   0  0  0  0  0  0  0  0  0  0  0  0
    3.3973    1.3587    1.6253 H   0  0  0  0  0  0  0  0  0  0  0  0
    2.1270    0.2845    1.0677 H   0  0  0  0  0  0  0  0  0  0  0  0
    2.3432    4.2577    7.6216 H   0  0  0  0  0  0  0  0  0  0  0  0
    3.6654    3.6105    8.5937 H   0  0  0  0  0  0  0  0  0  0  0  0
    2.0266    3.4365    9.1107 H   0  0  0  0  0  0  0  0  0  0  0  0
  1  2  1  0
  1 36  1  0
  1 37  1  0
  1 38  1  0
  2 33  1  0
  2  3  1  0
  2 39  1  6
  3  4  1  0
  3 40  1  0
  3 41  1  0
  4 31  1  0
  4  5  1  0
  4 42  1  6
  6  5  1  1
  6 29  1  0
  6 34  1  0
  6  7  1  0
  7  8  1  0
  7  9  1  0
  7 43  1  6
  8 44  1  0
  9 10  1  0
  9 45  1  0
  9 46  1  0
 10 11  2  0
 10 12  1  0
 12 13  1  0
 12 14  1  0
 12 15  1  0
 13 47  1  0
 13 48  1  0
 13 49  1  0
 14 50  1  0
 14 51  1  0
 14 52  1  0
 15 16  2  3
 15 53  1  0
 16 34  1  0
 16 17  1  0
 17 18  1  0
 17 34  1  0
 17 54  1  1
 18 19  1  0
 18 20  1  0
 18 55  1  6
 19 56  1  0
 19 57  1  0
 19 58  1  0
 20 27  1  0
 20 21  1  6
 20 22  1  0
 21 59  1  0
 22 23  2  0
 22 60  1  0
 23 24  1  0
 23 61  1  0
 24 25  1  0
 24 62  1  0
 24 63  1  0
 25 26  2  0
 25 27  1  0
 27 28  1  6
 27 29  1  0
 28 64  1  0
 28 65  1  0
 28 66  1  0
 29 30  1  0
 29 67  1  6
 30 31  1  0
 30 68  1  0
 30 69  1  0
 31 32  1  1
 31 33  1  0
 32 70  1  0
 33 71  1  0
 33 72  1  0
 34 35  1  1
 35 73  1  0
 35 74  1  0
 35 75  1  0
M  END
>  <i_m_ct_stereo_status>  (151) 
1

>  <s_m_source_file>  (151) 
/var/tmp/pbs.5076255.sched01/tmp06yssb5m/4267g10r58.sdf

>  <i_m_source_file_index>  (151) 
28

>  <i_lp_mmshare_version>  (151) 
48012

>  <i_f3d_flags>  (151) 
0

>  <s_epik_input>  (151) 
W0NIM11bQ0BASF0oW0NIMl0xKVtDSDJdW0NASF0oTzIpW0NAQF0xKFtPSF0pW0NIMl1bQ0BASF0oW0NAQF0yMzQpW0NAQF01KFtDSDNdKVtDQF0oW09IXSkoW0NIXT1bQ0hdW0NIMl1DNT1PKVtDQEhdKFtDSDNdKVtDSF02XEMoQzQ2W0NIM10pPVtDSF1cQyhbQ0gzXSkoW0NIM10pQyg9TylbQ0gyXVtDQEBIXTNbT0hd

>  <s_epik_cmdline>  (151) 
J2VwaWtfcHl0aG9uJywgJy1waHQnLCAnMi4wJywgJy1waCcsICc3LjAnLCAnLXRuJywgJzgnLCAnLW1hJywgJzIwMCcsICctaW1hZScsICc8aW5maWxlLm1hZT4nLCAnLW9tYWUnLCAnPG91dGZpbGUubWFlPic=

>  <r_lp_tautomer_probability>  (151) 
1

>  <r_epik_Ionization_Penalty>  (151) 
3.40864e-07

>  <r_epik_Ionization_Penalty_Charging>  (151) 
0

>  <r_epik_Ionization_Penalty_Neutral>  (151) 
3.40864e-07

>  <r_epik_State_Penalty>  (151) 
-0

>  <r_epik_Charging_Adjusted_Penalty>  (151) 
0

>  <i_epik_Tot_Q>  (151) 
0

>  <i_epik_Tot_abs_Q>  (151) 
0

>  <s_lp_Force_Field>  (151) 
OPLS3e

>  <r_lp_Energy>  (151) 
114.957

>  <b_lp_Chiralities_Consistent>  (151) 
1

>  <s_lp_Variant>  (151) 
47:0-5

>  <s_i_glide_gridfile>  (151) 
pfpi4k_grid

>  <i_i_glide_lignum>  (151) 
28

>  <i_i_glide_rotatable_bonds>  (151) 
3

>  <r_i_docking_score>  (151) 
-2.68225

>  <r_i_glide_ligand_efficiency>  (151) 
-0.0766358

>  <r_i_glide_ligand_efficiency_sa>  (151) 
-0.250681

>  <r_i_glide_ligand_efficiency_ln>  (151) 
-0.588814

>  <r_i_glide_gscore>  (151) 
-2.68225

>  <r_i_glide_lipo>  (151) 
-0.118284

>  <r_i_glide_hbond>  (151) 
-0.153922

>  <r_i_glide_metal>  (151) 
-0

>  <r_i_glide_rewards>  (151) 
-0.657055

>  <r_i_glide_evdw>  (151) 
-23.0813

>  <r_i_glide_ecoul>  (151) 
-3.99196

>  <r_i_glide_erotb>  (151) 
0

>  <r_i_glide_esite>  (151) 
-0.000129798

>  <r_i_glide_emodel>  (151) 
-36.4436

>  <r_i_glide_energy>  (151) 
-27.0733

>  <r_i_glide_einternal>  (151) 
0.745381

>  <r_i_glide_intrahb_reward>  (151) 
-0.5

>  <i_i_glide_confnum>  (151) 
2

>  <i_i_glide_posenum>  (151) 
31

>  <r_i_glide_eff_state_penalty>  (151) 
0

>  <ligand_id>  (151) 
47

>  <original_smiles>  (151) 
CC1CC2OC34C(O)CC(=O)C(C)(C)C=C5C(C(C)C6(O)C=CCC(=O)C6(C)C3CC2(O)C1)C54C

>  <smiles>  (151) 
[H]OC1([H])C([H])([H])C(=O)C(C([H])([H])[H])(C([H])([H])[H])C([H])=C2C3([H])C([H])(C([H])([H])[H])C4(O[H])C([H])=C([H])C([H])([H])C(=O)C4(C([H])([H])[H])C4([H])C([H])([H])C5(O[H])C([H])([H])C([H])(C([H])([H])[H])C([H])([H])C5([H])OC14C23C([H])([H])[H]

$$$$
47:4:1
     RDKit          3D

 75 80  0  0  1  0  0  0  0  0999 V2000
    4.9018   -2.4762    0.4079 C   0  0  0  0  0  0  0  0  0  0  0  0
    5.0542   -1.2444    1.3178 C   0  0  2  0  0  0  0  0  0  0  0  0
    4.8088   -1.5595    2.8236 C   0  0  0  0  0  0  0  0  0  0  0  0
    3.9920   -0.3472    3.2711 C   0  0  2  0  0  0  0  0  0  0  0  0
    3.3722   -0.2493    4.5799 O   0  0  0  0  0  0  0  0  0  0  0  0
    2.7023    1.0145    4.9381 C   0  0  1  0  0  0  0  0  0  0  0  0
    3.8280    2.1166    4.8839 C   0  0  1  0  0  0  0  0  0  0  0  0
    3.3864    3.4541    4.8540 O   0  0  0  0  0  0  0  0  0  0  0  0
    4.9363    2.0077    5.9827 C   0  0  0  0  0  0  0  0  0  0  0  0
    5.5558    0.6158    6.2400 C   0  0  0  0  0  0  0  0  0  0  0  0
    6.3291    0.1519    5.4020 O   0  0  0  0  0  0  0  0  0  0  0  0
    5.2567   -0.1520    7.5711 C   0  0  0  0  0  0  0  0  0  0  0  0
    6.2351   -1.3489    7.6840 C   0  0  0  0  0  0  0  0  0  0  0  0
    5.5274    0.7614    8.7832 C   0  0  0  0  0  0  0  0  0  0  0  0
    3.8243   -0.7109    7.6468 C   0  0  0  0  0  0  0  0  0  0  0  0
    2.7038   -0.1638    7.1432 C   0  0  0  0  0  0  0  0  0  0  0  0
    1.2279   -0.1655    6.9653 C   0  0  2  0  0  0  0  0  0  0  0  0
    0.4404   -0.9169    5.9183 C   0  0  1  0  0  0  0  0  0  0  0  0
   -0.2487   -2.1143    6.6028 C   0  0  0  0  0  0  0  0  0  0  0  0
   -0.5492    0.0431    5.1093 C   0  0  1  0  0  0  0  0  0  0  0  0
   -1.1431   -0.8769    4.2256 O   0  0  0  0  0  0  0  0  0  0  0  0
   -1.6842    0.5120    5.9998 C   0  0  0  0  0  0  0  0  0  0  0  0
   -1.9443    1.7859    6.3334 C   0  0  0  0  0  0  0  0  0  0  0  0
   -1.1398    2.9803    5.8798 C   0  0  0  0  0  0  0  0  0  0  0  0
   -0.0893    2.6691    4.8078 C   0  0  0  0  0  0  0  0  0  0  0  0
    0.5914    3.5992    4.3717 O   0  0  0  0  0  0  0  0  0  0  0  0
    0.0484    1.2517    4.1947 C   0  0  2  0  0  0  0  0  0  0  0  0
   -0.8106    1.4040    2.8976 C   0  0  0  0  0  0  0  0  0  0  0  0
    1.5612    0.9651    3.8254 C   0  0  1  0  0  0  0  0  0  0  0  0
    2.1449    1.1599    2.3821 C   0  0  0  0  0  0  0  0  0  0  0  0
    3.0443   -0.0775    2.0944 C   0  0  2  0  0  0  0  0  0  0  0  0
    2.1939   -1.1837    1.8106 O   0  0  0  0  0  0  0  0  0  0  0  0
    4.0570   -0.1087    0.9371 C   0  0  0  0  0  0  0  0  0  0  0  0
    2.1503    0.9696    6.4099 C   0  0  2  0  0  0  0  0  0  0  0  0
    1.9981    2.2733    7.2176 C   0  0  0  0  0  0  0  0  0  0  0  0
    3.8893   -2.8772    0.4499 H   0  0  0  0  0  0  0  0  0  0  0  0
    5.5883   -3.2702    0.6947 H   0  0  0  0  0  0  0  0  0  0  0  0
    5.1035   -2.2227   -0.6336 H   0  0  0  0  0  0  0  0  0  0  0  0
    6.0696   -0.8583    1.1925 H   0  0  0  0  0  0  0  0  0  0  0  0
    4.2376   -2.4783    2.9485 H   0  0  0  0  0  0  0  0  0  0  0  0
    5.7439   -1.6621    3.3757 H   0  0  0  0  0  0  0  0  0  0  0  0
    4.7860    0.3889    3.2490 H   0  0  0  0  0  0  0  0  0  0  0  0
    4.3022    2.1268    3.9243 H   0  0  0  0  0  0  0  0  0  0  0  0
    2.8081    3.5697    4.1087 H   0  0  0  0  0  0  0  0  0  0  0  0
    5.7585    2.6489    5.6827 H   0  0  0  0  0  0  0  0  0  0  0  0
    4.6016    2.4261    6.9217 H   0  0  0  0  0  0  0  0  0  0  0  0
    6.0895   -2.0757    6.8813 H   0  0  0  0  0  0  0  0  0  0  0  0
    6.1083   -1.8815    8.6292 H   0  0  0  0  0  0  0  0  0  0  0  0
    7.2790   -1.0220    7.6460 H   0  0  0  0  0  0  0  0  0  0  0  0
    4.7996    1.5656    8.8718 H   0  0  0  0  0  0  0  0  0  0  0  0
    6.5199    1.2161    8.7244 H   0  0  0  0  0  0  0  0  0  0  0  0
    5.4886    0.2003    9.7165 H   0  0  0  0  0  0  0  0  0  0  0  0
    3.7163   -1.6305    8.1956 H   0  0  0  0  0  0  0  0  0  0  0  0
    0.6186    0.0790    7.8383 H   0  0  0  0  0  0  0  0  0  0  0  0
    1.1575   -1.3917    5.2510 H   0  0  0  0  0  0  0  0  0  0  0  0
   -0.9696   -1.7841    7.3379 H   0  0  0  0  0  0  0  0  0  0  0  0
    0.4842   -2.7316    7.1231 H   0  0  0  0  0  0  0  0  0  0  0  0
   -0.7754   -2.7569    5.8979 H   0  0  0  0  0  0  0  0  0  0  0  0
   -1.4195   -0.3711    3.4755 H   0  0  0  0  0  0  0  0  0  0  0  0
   -2.3596   -0.2570    6.3279 H   0  0  0  0  0  0  0  0  0  0  0  0
   -2.7906    2.0113    6.9650 H   0  0  0  0  0  0  0  0  0  0  0  0
   -1.8253    3.7258    5.4787 H   0  0  0  0  0  0  0  0  0  0  0  0
   -0.6583    3.4273    6.7493 H   0  0  0  0  0  0  0  0  0  0  0  0
   -0.7214    0.5659    2.2070 H   0  0  0  0  0  0  0  0  0  0  0  0
   -0.5229    2.2882    2.3242 H   0  0  0  0  0  0  0  0  0  0  0  0
   -1.8705    1.5349    3.1275 H   0  0  0  0  0  0  0  0  0  0  0  0
    1.3616   -0.0873    3.7211 H   0  0  0  0  0  0  0  0  0  0  0  0
    1.3833    1.2279    1.6089 H   0  0  0  0  0  0  0  0  0  0  0  0
    2.7027    2.0914    2.3142 H   0  0  0  0  0  0  0  0  0  0  0  0
    1.7314   -1.0022    0.9976 H   0  0  0  0  0  0  0  0  0  0  0  0
    4.5908    0.8414    0.8791 H   0  0  0  0  0  0  0  0  0  0  0  0
    3.5996   -0.2841   -0.0336 H   0  0  0  0  0  0  0  0  0  0  0  0
    1.8203    3.1543    6.6171 H   0  0  0  0  0  0  0  0  0  0  0  0
    2.8533    2.4536    7.8623 H   0  0  0  0  0  0  0  0  0  0  0  0
    1.1433    2.1982    7.8897 H   0  0  0  0  0  0  0  0  0  0  0  0
  1  2  1  0
  1 36  1  0
  1 37  1  0
  1 38  1  0
  2 33  1  0
  2  3  1  0
  2 39  1  1
  3  4  1  0
  3 40  1  0
  3 41  1  0
  4 31  1  0
  4  5  1  0
  4 42  1  1
  6  5  1  6
  6 29  1  0
  6 34  1  0
  6  7  1  0
  7  8  1  0
  7  9  1  0
  7 43  1  6
  8 44  1  0
  9 10  1  0
  9 45  1  0
  9 46  1  0
 10 11  2  0
 10 12  1  0
 12 13  1  0
 12 14  1  0
 12 15  1  0
 13 47  1  0
 13 48  1  0
 13 49  1  0
 14 50  1  0
 14 51  1  0
 14 52  1  0
 15 16  2  3
 15 53  1  0
 16 34  1  0
 16 17  1  0
 17 18  1  0
 17 34  1  0
 17 54  1  1
 18 19  1  0
 18 20  1  0
 18 55  1  6
 19 56  1  0
 19 57  1  0
 19 58  1  0
 20 27  1  0
 20 21  1  6
 20 22  1  0
 21 59  1  0
 22 23  2  0
 22 60  1  0
 23 24  1  0
 23 61  1  0
 24 25  1  0
 24 62  1  0
 24 63  1  0
 25 26  2  0
 25 27  1  0
 27 28  1  6
 27 29  1  0
 28 64  1  0
 28 65  1  0
 28 66  1  0
 29 30  1  0
 29 67  1  6
 30 31  1  0
 30 68  1  0
 30 69  1  0
 31 32  1  6
 31 33  1  0
 32 70  1  0
 33 71  1  0
 33 72  1  0
 34 35  1  1
 35 73  1  0
 35 74  1  0
 35 75  1  0
M  END
>  <i_m_ct_stereo_status>  (152) 
1

>  <s_m_source_file>  (152) 
/var/tmp/pbs.5076255.sched01/tmp06yssb5m/4267g10r58.sdf

>  <i_m_source_file_index>  (152) 
28

>  <i_lp_mmshare_version>  (152) 
48012

>  <i_f3d_flags>  (152) 
0

>  <s_epik_input>  (152) 
W0NIM11bQ0BASF0oW0NIMl0xKVtDSDJdW0NASF0oTzIpW0NAQF0xKFtPSF0pW0NIMl1bQ0BASF0oW0NAQF0yMzQpW0NAQF01KFtDSDNdKVtDQF0oW09IXSkoW0NIXT1bQ0hdW0NIMl1DNT1PKVtDQEhdKFtDSDNdKVtDSF02XEMoQzQ2W0NIM10pPVtDSF1cQyhbQ0gzXSkoW0NIM10pQyg9TylbQ0gyXVtDQEBIXTNbT0hd

>  <s_epik_cmdline>  (152) 
J2VwaWtfcHl0aG9uJywgJy1waHQnLCAnMi4wJywgJy1waCcsICc3LjAnLCAnLXRuJywgJzgnLCAnLW1hJywgJzIwMCcsICctaW1hZScsICc8aW5maWxlLm1hZT4nLCAnLW9tYWUnLCAnPG91dGZpbGUubWFlPic=

>  <r_lp_tautomer_probability>  (152) 
1

>  <r_epik_Ionization_Penalty>  (152) 
3.40864e-07

>  <r_epik_Ionization_Penalty_Charging>  (152) 
0

>  <r_epik_Ionization_Penalty_Neutral>  (152) 
3.40864e-07

>  <r_epik_State_Penalty>  (152) 
-0

>  <r_epik_Charging_Adjusted_Penalty>  (152) 
0

>  <i_epik_Tot_Q>  (152) 
0

>  <i_epik_Tot_abs_Q>  (152) 
0

>  <s_lp_Force_Field>  (152) 
OPLS3e

>  <r_lp_Energy>  (152) 
114.957

>  <b_lp_Chiralities_Consistent>  (152) 
1

>  <s_lp_Variant>  (152) 
47:0-5

>  <s_i_glide_gridfile>  (152) 
pfpi4k_grid

>  <i_i_glide_lignum>  (152) 
28

>  <i_i_glide_rotatable_bonds>  (152) 
3

>  <r_i_docking_score>  (152) 
-2.48391

>  <r_i_glide_ligand_efficiency>  (152) 
-0.0709687

>  <r_i_glide_ligand_efficiency_sa>  (152) 
-0.232143

>  <r_i_glide_ligand_efficiency_ln>  (152) 
-0.545273

>  <r_i_glide_gscore>  (152) 
-2.48391

>  <r_i_glide_lipo>  (152) 
-0.31635

>  <r_i_glide_hbond>  (152) 
-0.000566615

>  <r_i_glide_metal>  (152) 
-0

>  <r_i_glide_rewards>  (152) 
-0.654673

>  <r_i_glide_evdw>  (152) 
-27.0238

>  <r_i_glide_ecoul>  (152) 
-0.979937

>  <r_i_glide_erotb>  (152) 
0

>  <r_i_glide_esite>  (152) 
-0.014136

>  <r_i_glide_emodel>  (152) 
-36.9173

>  <r_i_glide_energy>  (152) 
-28.0037

>  <r_i_glide_einternal>  (152) 
0.675681

>  <r_i_glide_intrahb_reward>  (152) 
-0.5

>  <i_i_glide_confnum>  (152) 
1

>  <i_i_glide_posenum>  (152) 
37

>  <r_i_glide_eff_state_penalty>  (152) 
0

>  <ligand_id>  (152) 
47

>  <original_smiles>  (152) 
CC1CC2OC34C(O)CC(=O)C(C)(C)C=C5C(C(C)C6(O)C=CCC(=O)C6(C)C3CC2(O)C1)C54C

>  <smiles>  (152) 
[H]OC1([H])C([H])([H])C(=O)C(C([H])([H])[H])(C([H])([H])[H])C([H])=C2C3([H])C([H])(C([H])([H])[H])C4(O[H])C([H])=C([H])C([H])([H])C(=O)C4(C([H])([H])[H])C4([H])C([H])([H])C5(O[H])C([H])([H])C([H])(C([H])([H])[H])C([H])([H])C5([H])OC14C23C([H])([H])[H]

$$$$
47:4:2
     RDKit          3D

 75 80  0  0  1  0  0  0  0  0999 V2000
   -1.3559   -4.4006    7.1241 C   0  0  0  0  0  0  0  0  0  0  0  0
    0.0505   -3.8698    6.7785 C   0  0  2  0  0  0  0  0  0  0  0  0
    0.4596   -2.6208    7.6120 C   0  0  0  0  0  0  0  0  0  0  0  0
    1.1412   -1.7494    6.5565 C   0  0  2  0  0  0  0  0  0  0  0  0
    1.5413   -0.3809    6.8080 O   0  0  0  0  0  0  0  0  0  0  0  0
    2.2936    0.3173    5.7516 C   0  0  1  0  0  0  0  0  0  0  0  0
    3.6073   -0.5416    5.5243 C   0  0  1  0  0  0  0  0  0  0  0  0
    4.3116   -0.2457    4.3389 O   0  0  0  0  0  0  0  0  0  0  0  0
    4.6245   -0.5176    6.7120 C   0  0  0  0  0  0  0  0  0  0  0  0
    4.0708   -0.7290    8.1395 C   0  0  0  0  0  0  0  0  0  0  0  0
    3.6853   -1.8560    8.4604 O   0  0  0  0  0  0  0  0  0  0  0  0
    4.0429    0.4495    9.1702 C   0  0  0  0  0  0  0  0  0  0  0  0
    3.7372   -0.1329   10.5762 C   0  0  0  0  0  0  0  0  0  0  0  0
    5.4310    1.1171    9.2606 C   0  0  0  0  0  0  0  0  0  0  0  0
    2.9681    1.5101    8.8641 C   0  0  0  0  0  0  0  0  0  0  0  0
    2.5497    1.9200    7.6546 C   0  0  0  0  0  0  0  0  0  0  0  0
    1.7246    2.8214    6.8034 C   0  0  2  0  0  0  0  0  0  0  0  0
    0.2728    2.6427    6.4232 C   0  0  1  0  0  0  0  0  0  0  0  0
   -0.5628    3.6566    7.2391 C   0  0  0  0  0  0  0  0  0  0  0  0
    0.0389    2.7244    4.8435 C   0  0  1  0  0  0  0  0  0  0  0  0
   -1.3576    2.4774    4.7684 O   0  0  0  0  0  0  0  0  0  0  0  0
    0.2571    4.1546    4.3717 C   0  0  0  0  0  0  0  0  0  0  0  0
    1.2146    4.5558    3.5208 C   0  0  0  0  0  0  0  0  0  0  0  0
    2.2362    3.6536    2.8714 C   0  0  0  0  0  0  0  0  0  0  0  0
    1.9988    2.1522    3.0873 C   0  0  0  0  0  0  0  0  0  0  0  0
    2.7658    1.3387    2.5725 O   0  0  0  0  0  0  0  0  0  0  0  0
    0.7562    1.6447    3.8562 C   0  0  2  0  0  0  0  0  0  0  0  0
   -0.2028    1.3121    2.6637 C   0  0  0  0  0  0  0  0  0  0  0  0
    1.1378    0.3282    4.6526 C   0  0  1  0  0  0  0  0  0  0  0  0
    0.8535   -1.1158    4.1114 C   0  0  0  0  0  0  0  0  0  0  0  0
    0.2846   -1.9316    5.3017 C   0  0  2  0  0  0  0  0  0  0  0  0
   -1.0640   -1.5229    5.5105 O   0  0  0  0  0  0  0  0  0  0  0  0
    0.2176   -3.4597    5.2808 C   0  0  0  0  0  0  0  0  0  0  0  0
    2.7214    1.7608    6.2156 C   0  0  2  0  0  0  0  0  0  0  0  0
    3.9681    2.4323    5.6151 C   0  0  0  0  0  0  0  0  0  0  0  0
   -2.1282   -3.6664    6.9036 H   0  0  0  0  0  0  0  0  0  0  0  0
   -1.4338   -4.6655    8.1777 H   0  0  0  0  0  0  0  0  0  0  0  0
   -1.5873   -5.2947    6.5483 H   0  0  0  0  0  0  0  0  0  0  0  0
    0.7594   -4.6790    6.9736 H   0  0  0  0  0  0  0  0  0  0  0  0
   -0.4116   -2.1179    8.0285 H   0  0  0  0  0  0  0  0  0  0  0  0
    1.1274   -2.8810    8.4382 H   0  0  0  0  0  0  0  0  0  0  0  0
    2.0532   -2.3231    6.4486 H   0  0  0  0  0  0  0  0  0  0  0  0
    3.3953   -1.5710    5.2933 H   0  0  0  0  0  0  0  0  0  0  0  0
    3.6966   -0.1938    3.6142 H   0  0  0  0  0  0  0  0  0  0  0  0
    5.3472   -1.3105    6.5409 H   0  0  0  0  0  0  0  0  0  0  0  0
    5.2164    0.3887    6.6936 H   0  0  0  0  0  0  0  0  0  0  0  0
    2.7491   -0.5967   10.6211 H   0  0  0  0  0  0  0  0  0  0  0  0
    3.7664    0.6396   11.3476 H   0  0  0  0  0  0  0  0  0  0  0  0
    4.4681   -0.8948   10.8654 H   0  0  0  0  0  0  0  0  0  0  0  0
    5.6827    1.6767    8.3623 H   0  0  0  0  0  0  0  0  0  0  0  0
    6.2173    0.3778    9.4261 H   0  0  0  0  0  0  0  0  0  0  0  0
    5.4760    1.8210   10.0911 H   0  0  0  0  0  0  0  0  0  0  0  0
    2.5358    1.9903    9.7257 H   0  0  0  0  0  0  0  0  0  0  0  0
    2.0307    3.8681    6.7514 H   0  0  0  0  0  0  0  0  0  0  0  0
   -0.0429    1.6777    6.8129 H   0  0  0  0  0  0  0  0  0  0  0  0
   -0.3113    4.6939    7.0139 H   0  0  0  0  0  0  0  0  0  0  0  0
   -0.3847    3.5129    8.3053 H   0  0  0  0  0  0  0  0  0  0  0  0
   -1.6318    3.5280    7.0759 H   0  0  0  0  0  0  0  0  0  0  0  0
   -1.5769    2.4344    3.8484 H   0  0  0  0  0  0  0  0  0  0  0  0
   -0.4335    4.8912    4.7458 H   0  0  0  0  0  0  0  0  0  0  0  0
    1.2731    5.5958    3.2288 H   0  0  0  0  0  0  0  0  0  0  0  0
    2.2138    3.8412    1.7980 H   0  0  0  0  0  0  0  0  0  0  0  0
    3.2347    3.9303    3.2077 H   0  0  0  0  0  0  0  0  0  0  0  0
   -1.1017    0.7709    2.9622 H   0  0  0  0  0  0  0  0  0  0  0  0
    0.2829    0.6890    1.9102 H   0  0  0  0  0  0  0  0  0  0  0  0
   -0.5199    2.2160    2.1376 H   0  0  0  0  0  0  0  0  0  0  0  0
    0.2476    0.4168    5.2469 H   0  0  0  0  0  0  0  0  0  0  0  0
    0.1338   -1.1379    3.2977 H   0  0  0  0  0  0  0  0  0  0  0  0
    1.7582   -1.5664    3.7073 H   0  0  0  0  0  0  0  0  0  0  0  0
   -1.0803   -0.5796    5.4507 H   0  0  0  0  0  0  0  0  0  0  0  0
    1.1474   -3.8752    4.8935 H   0  0  0  0  0  0  0  0  0  0  0  0
   -0.5767   -3.8351    4.6420 H   0  0  0  0  0  0  0  0  0  0  0  0
    4.2042    2.1200    4.6065 H   0  0  0  0  0  0  0  0  0  0  0  0
    4.8408    2.2920    6.2423 H   0  0  0  0  0  0  0  0  0  0  0  0
    3.8207    3.5085    5.5579 H   0  0  0  0  0  0  0  0  0  0  0  0
  1  2  1  0
  1 36  1  0
  1 37  1  0
  1 38  1  0
  2 33  1  0
  2  3  1  0
  2 39  1  1
  3  4  1  0
  3 40  1  0
  3 41  1  0
  4 31  1  0
  4  5  1  0
  4 42  1  6
  6  5  1  1
  6 29  1  0
  6 34  1  0
  6  7  1  0
  7  8  1  0
  7  9  1  0
  7 43  1  6
  8 44  1  0
  9 10  1  0
  9 45  1  0
  9 46  1  0
 10 11  2  0
 10 12  1  0
 12 13  1  0
 12 14  1  0
 12 15  1  0
 13 47  1  0
 13 48  1  0
 13 49  1  0
 14 50  1  0
 14 51  1  0
 14 52  1  0
 15 16  2  3
 15 53  1  0
 16 34  1  0
 16 17  1  0
 17 18  1  0
 17 34  1  0
 17 54  1  1
 18 19  1  0
 18 20  1  0
 18 55  1  1
 19 56  1  0
 19 57  1  0
 19 58  1  0
 20 27  1  0
 20 21  1  1
 20 22  1  0
 21 59  1  0
 22 23  2  0
 22 60  1  0
 23 24  1  0
 23 61  1  0
 24 25  1  0
 24 62  1  0
 24 63  1  0
 25 26  2  0
 25 27  1  0
 27 28  1  6
 27 29  1  0
 28 64  1  0
 28 65  1  0
 28 66  1  0
 29 30  1  0
 29 67  1  1
 30 31  1  0
 30 68  1  0
 30 69  1  0
 31 32  1  1
 31 33  1  0
 32 70  1  0
 33 71  1  0
 33 72  1  0
 34 35  1  1
 35 73  1  0
 35 74  1  0
 35 75  1  0
M  END
>  <i_m_ct_stereo_status>  (153) 
1

>  <s_m_source_file>  (153) 
/var/tmp/pbs.5076255.sched01/tmp06yssb5m/4267g10r58.sdf

>  <i_m_source_file_index>  (153) 
28

>  <i_lp_mmshare_version>  (153) 
48012

>  <i_f3d_flags>  (153) 
0

>  <s_epik_input>  (153) 
W0NIM11bQ0BASF0oW0NIMl0xKVtDSDJdW0NASF0oTzIpW0NAQF0xKFtPSF0pW0NIMl1bQ0BASF0oW0NAQF0yMzQpW0NAQF01KFtDSDNdKVtDQF0oW09IXSkoW0NIXT1bQ0hdW0NIMl1DNT1PKVtDQEhdKFtDSDNdKVtDSF02XEMoQzQ2W0NIM10pPVtDSF1cQyhbQ0gzXSkoW0NIM10pQyg9TylbQ0gyXVtDQEBIXTNbT0hd

>  <s_epik_cmdline>  (153) 
J2VwaWtfcHl0aG9uJywgJy1waHQnLCAnMi4wJywgJy1waCcsICc3LjAnLCAnLXRuJywgJzgnLCAnLW1hJywgJzIwMCcsICctaW1hZScsICc8aW5maWxlLm1hZT4nLCAnLW9tYWUnLCAnPG91dGZpbGUubWFlPic=

>  <r_lp_tautomer_probability>  (153) 
1

>  <r_epik_Ionization_Penalty>  (153) 
3.40864e-07

>  <r_epik_Ionization_Penalty_Charging>  (153) 
0

>  <r_epik_Ionization_Penalty_Neutral>  (153) 
3.40864e-07

>  <r_epik_State_Penalty>  (153) 
-0

>  <r_epik_Charging_Adjusted_Penalty>  (153) 
0

>  <i_epik_Tot_Q>  (153) 
0

>  <i_epik_Tot_abs_Q>  (153) 
0

>  <s_lp_Force_Field>  (153) 
OPLS3e

>  <r_lp_Energy>  (153) 
114.957

>  <b_lp_Chiralities_Consistent>  (153) 
1

>  <s_lp_Variant>  (153) 
47:0-5

>  <s_i_glide_gridfile>  (153) 
pfpi4k_grid

>  <i_i_glide_lignum>  (153) 
28

>  <i_i_glide_rotatable_bonds>  (153) 
3

>  <r_i_docking_score>  (153) 
-2.24148

>  <r_i_glide_ligand_efficiency>  (153) 
-0.0640423

>  <r_i_glide_ligand_efficiency_sa>  (153) 
-0.209487

>  <r_i_glide_ligand_efficiency_ln>  (153) 
-0.492055

>  <r_i_glide_gscore>  (153) 
-2.24148

>  <r_i_glide_lipo>  (153) 
-0.0262559

>  <r_i_glide_hbond>  (153) 
0

>  <r_i_glide_metal>  (153) 
-0

>  <r_i_glide_rewards>  (153) 
-0.604834

>  <r_i_glide_evdw>  (153) 
-25.5071

>  <r_i_glide_ecoul>  (153) 
-2.10045

>  <r_i_glide_erotb>  (153) 
0

>  <r_i_glide_esite>  (153) 
-0.0199671

>  <r_i_glide_emodel>  (153) 
-36.1754

>  <r_i_glide_energy>  (153) 
-27.6075

>  <r_i_glide_einternal>  (153) 
0.622776

>  <r_i_glide_intrahb_reward>  (153) 
-0.5

>  <i_i_glide_confnum>  (153) 
2

>  <i_i_glide_posenum>  (153) 
13

>  <r_i_glide_eff_state_penalty>  (153) 
0

>  <ligand_id>  (153) 
47

>  <original_smiles>  (153) 
CC1CC2OC34C(O)CC(=O)C(C)(C)C=C5C(C(C)C6(O)C=CCC(=O)C6(C)C3CC2(O)C1)C54C

>  <smiles>  (153) 
[H]OC1([H])C([H])([H])C(=O)C(C([H])([H])[H])(C([H])([H])[H])C([H])=C2C3([H])C([H])(C([H])([H])[H])C4(O[H])C([H])=C([H])C([H])([H])C(=O)C4(C([H])([H])[H])C4([H])C([H])([H])C5(O[H])C([H])([H])C([H])(C([H])([H])[H])C([H])([H])C5([H])OC14C23C([H])([H])[H]

$$$$
47:5:0
     RDKit          3D

 75 80  0  0  1  0  0  0  0  0999 V2000
    3.4153   -1.9397    1.2726 C   0  0  0  0  0  0  0  0  0  0  0  0
    3.8530   -0.6634    2.0104 C   0  0  2  0  0  0  0  0  0  0  0  0
    4.0342   -0.8660    3.5458 C   0  0  0  0  0  0  0  0  0  0  0  0
    3.4116    0.4111    4.1085 C   0  0  2  0  0  0  0  0  0  0  0  0
    3.1798    0.6284    5.5242 O   0  0  0  0  0  0  0  0  0  0  0  0
    2.6709    1.9457    5.9402 C   0  0  1  0  0  0  0  0  0  0  0  0
    3.7697    2.9849    5.4663 C   0  0  1  0  0  0  0  0  0  0  0  0
    3.3565    4.3313    5.4599 O   0  0  0  0  0  0  0  0  0  0  0  0
    5.1251    2.9086    6.2422 C   0  0  0  0  0  0  0  0  0  0  0  0
    5.7589    1.5149    6.4532 C   0  0  0  0  0  0  0  0  0  0  0  0
    6.2536    0.9384    5.4821 O   0  0  0  0  0  0  0  0  0  0  0  0
    5.8242    0.8743    7.8793 C   0  0  0  0  0  0  0  0  0  0  0  0
    6.7791   -0.3483    7.8290 C   0  0  0  0  0  0  0  0  0  0  0  0
    6.4353    1.8737    8.8843 C   0  0  0  0  0  0  0  0  0  0  0  0
    4.4559    0.3853    8.3903 C   0  0  0  0  0  0  0  0  0  0  0  0
    3.2519    0.9409    8.1596 C   0  0  0  0  0  0  0  0  0  0  0  0
    1.7833    0.9965    8.3932 C   0  0  2  0  0  0  0  0  0  0  0  0
    0.7143    0.2020    7.6805 C   0  0  1  0  0  0  0  0  0  0  0  0
    0.2262   -0.8951    8.6540 C   0  0  0  0  0  0  0  0  0  0  0  0
   -0.4490    1.1278    7.0860 C   0  0  1  0  0  0  0  0  0  0  0  0
   -1.3032    0.1585    6.4824 O   0  0  0  0  0  0  0  0  0  0  0  0
   -1.2540    1.7302    8.2257 C   0  0  0  0  0  0  0  0  0  0  0  0
   -1.3900    3.0392    8.4906 C   0  0  0  0  0  0  0  0  0  0  0  0
   -0.7311    4.1571    7.7202 C   0  0  0  0  0  0  0  0  0  0  0  0
   -0.0238    3.7094    6.4380 C   0  0  0  0  0  0  0  0  0  0  0  0
    0.5155    4.5676    5.7389 O   0  0  0  0  0  0  0  0  0  0  0  0
   -0.0898    2.2406    5.9474 C   0  0  2  0  0  0  0  0  0  0  0  0
   -1.2723    2.3312    4.9275 C   0  0  0  0  0  0  0  0  0  0  0  0
    1.2589    1.8641    5.2016 C   0  0  1  0  0  0  0  0  0  0  0  0
    1.4233    1.9378    3.6454 C   0  0  0  0  0  0  0  0  0  0  0  0
    2.1819    0.6489    3.2241 C   0  0  2  0  0  0  0  0  0  0  0  0
    1.2621   -0.4340    3.2821 O   0  0  0  0  0  0  0  0  0  0  0  0
    2.8363    0.5101    1.8423 C   0  0  0  0  0  0  0  0  0  0  0  0
    2.5471    2.0414    7.5089 C   0  0  2  0  0  0  0  0  0  0  0  0
    2.6458    3.4059    8.2146 C   0  0  0  0  0  0  0  0  0  0  0  0
    2.4434   -2.2846    1.6231 H   0  0  0  0  0  0  0  0  0  0  0  0
    4.1331   -2.7455    1.4197 H   0  0  0  0  0  0  0  0  0  0  0  0
    3.3287   -1.7633    0.2004 H   0  0  0  0  0  0  0  0  0  0  0  0
    4.8026   -0.3423    1.5791 H   0  0  0  0  0  0  0  0  0  0  0  0
    3.4988   -1.7481    3.8936 H   0  0  0  0  0  0  0  0  0  0  0  0
    5.0834   -0.9757    3.8230 H   0  0  0  0  0  0  0  0  0  0  0  0
    4.1913    1.0999    3.8145 H   0  0  0  0  0  0  0  0  0  0  0  0
    3.9865    2.9182    4.4134 H   0  0  0  0  0  0  0  0  0  0  0  0
    2.5883    4.4167    4.9087 H   0  0  0  0  0  0  0  0  0  0  0  0
    5.8513    3.4954    5.6869 H   0  0  0  0  0  0  0  0  0  0  0  0
    5.0545    3.4114    7.1967 H   0  0  0  0  0  0  0  0  0  0  0  0
    6.4063   -1.1299    7.1638 H   0  0  0  0  0  0  0  0  0  0  0  0
    6.9091   -0.7976    8.8158 H   0  0  0  0  0  0  0  0  0  0  0  0
    7.7759   -0.0652    7.4789 H   0  0  0  0  0  0  0  0  0  0  0  0
    5.7688    2.7079    9.0997 H   0  0  0  0  0  0  0  0  0  0  0  0
    7.3757    2.2875    8.5143 H   0  0  0  0  0  0  0  0  0  0  0  0
    6.6518    1.3902    9.8376 H   0  0  0  0  0  0  0  0  0  0  0  0
    4.4851   -0.4828    9.0284 H   0  0  0  0  0  0  0  0  0  0  0  0
    1.4528    1.3282    9.3781 H   0  0  0  0  0  0  0  0  0  0  0  0
    1.2084   -0.3637    6.8906 H   0  0  0  0  0  0  0  0  0  0  0  0
   -0.2395   -0.4871    9.5537 H   0  0  0  0  0  0  0  0  0  0  0  0
    1.0655   -1.5051    8.9894 H   0  0  0  0  0  0  0  0  0  0  0  0
   -0.4703   -1.5790    8.1715 H   0  0  0  0  0  0  0  0  0  0  0  0
   -0.9108   -0.0848    5.6550 H   0  0  0  0  0  0  0  0  0  0  0  0
   -1.7756    1.0339    8.8598 H   0  0  0  0  0  0  0  0  0  0  0  0
   -1.9965    3.3449    9.3309 H   0  0  0  0  0  0  0  0  0  0  0  0
   -1.4875    4.8952    7.4585 H   0  0  0  0  0  0  0  0  0  0  0  0
   -0.0212    4.6588    8.3767 H   0  0  0  0  0  0  0  0  0  0  0  0
   -1.3962    1.4329    4.3223 H   0  0  0  0  0  0  0  0  0  0  0  0
   -1.1408    3.1525    4.2218 H   0  0  0  0  0  0  0  0  0  0  0  0
   -2.2217    2.5156    5.4325 H   0  0  0  0  0  0  0  0  0  0  0  0
    1.0150    0.8186    5.2507 H   0  0  0  0  0  0  0  0  0  0  0  0
    0.4794    1.9821    3.1051 H   0  0  0  0  0  0  0  0  0  0  0  0
    1.9595    2.8384    3.3532 H   0  0  0  0  0  0  0  0  0  0  0  0
    0.6530   -0.3161    2.5675 H   0  0  0  0  0  0  0  0  0  0  0  0
    3.3966    1.4187    1.6276 H   0  0  0  0  0  0  0  0  0  0  0  0
    2.1266    0.3634    1.0254 H   0  0  0  0  0  0  0  0  0  0  0  0
    2.3276    4.2441    7.6096 H   0  0  0  0  0  0  0  0  0  0  0  0
    3.6456    3.5989    8.5897 H   0  0  0  0  0  0  0  0  0  0  0  0
    2.0032    3.4177    9.0931 H   0  0  0  0  0  0  0  0  0  0  0  0
  1  2  1  0
  1 36  1  0
  1 37  1  0
  1 38  1  0
  2 33  1  0
  2  3  1  0
  2 39  1  6
  3  4  1  0
  3 40  1  0
  3 41  1  0
  4 31  1  0
  4  5  1  0
  4 42  1  6
  6  5  1  1
  6 29  1  0
  6 34  1  0
  6  7  1  0
  7  8  1  0
  7  9  1  0
  7 43  1  6
  8 44  1  0
  9 10  1  0
  9 45  1  0
  9 46  1  0
 10 11  2  0
 10 12  1  0
 12 13  1  0
 12 14  1  0
 12 15  1  0
 13 47  1  0
 13 48  1  0
 13 49  1  0
 14 50  1  0
 14 51  1  0
 14 52  1  0
 15 16  2  3
 15 53  1  0
 16 34  1  0
 16 17  1  0
 17 18  1  0
 17 34  1  0
 17 54  1  1
 18 19  1  0
 18 20  1  0
 18 55  1  6
 19 56  1  0
 19 57  1  0
 19 58  1  0
 20 27  1  0
 20 21  1  6
 20 22  1  0
 21 59  1  0
 22 23  2  0
 22 60  1  0
 23 24  1  0
 23 61  1  0
 24 25  1  0
 24 62  1  0
 24 63  1  0
 25 26  2  0
 25 27  1  0
 27 28  1  6
 27 29  1  0
 28 64  1  0
 28 65  1  0
 28 66  1  0
 29 30  1  0
 29 67  1  6
 30 31  1  0
 30 68  1  0
 30 69  1  0
 31 32  1  1
 31 33  1  0
 32 70  1  0
 33 71  1  0
 33 72  1  0
 34 35  1  1
 35 73  1  0
 35 74  1  0
 35 75  1  0
M  END
>  <i_m_ct_stereo_status>  (154) 
1

>  <s_m_source_file>  (154) 
/var/tmp/pbs.5076255.sched01/tmp06yssb5m/4267g10r58.sdf

>  <i_m_source_file_index>  (154) 
29

>  <i_lp_mmshare_version>  (154) 
48012

>  <i_f3d_flags>  (154) 
0

>  <s_epik_input>  (154) 
W0NIM11bQ0BASF0oW0NIMl0xKVtDSDJdW0NASF0oTzIpW0NAQF0xKFtPSF0pW0NIMl1bQ0BASF0oW0NAQF0yMzQpW0NAQF01KFtDSDNdKVtDQF0oW09IXSkoW0NIXT1bQ0hdW0NIMl1DNT1PKVtDQEhdKFtDSDNdKVtDSF02XEMoQzQ2W0NIM10pPVtDSF1cQyhbQ0gzXSkoW0NIM10pQyg9TylbQ0gyXVtDQEBIXTNbT0hd

>  <s_epik_cmdline>  (154) 
J2VwaWtfcHl0aG9uJywgJy1waHQnLCAnMi4wJywgJy1waCcsICc3LjAnLCAnLXRuJywgJzgnLCAnLW1hJywgJzIwMCcsICctaW1hZScsICc8aW5maWxlLm1hZT4nLCAnLW9tYWUnLCAnPG91dGZpbGUubWFlPic=

>  <r_lp_tautomer_probability>  (154) 
1

>  <r_epik_Ionization_Penalty>  (154) 
3.40864e-07

>  <r_epik_Ionization_Penalty_Charging>  (154) 
0

>  <r_epik_Ionization_Penalty_Neutral>  (154) 
3.40864e-07

>  <r_epik_State_Penalty>  (154) 
-0

>  <r_epik_Charging_Adjusted_Penalty>  (154) 
0

>  <i_epik_Tot_Q>  (154) 
0

>  <i_epik_Tot_abs_Q>  (154) 
0

>  <s_lp_Force_Field>  (154) 
OPLS3e

>  <r_lp_Energy>  (154) 
114.958

>  <b_lp_Chiralities_Consistent>  (154) 
1

>  <s_lp_Variant>  (154) 
47:0-6

>  <s_i_glide_gridfile>  (154) 
pfpi4k_grid

>  <i_i_glide_lignum>  (154) 
29

>  <i_i_glide_rotatable_bonds>  (154) 
3

>  <r_i_docking_score>  (154) 
-2.69927

>  <r_i_glide_ligand_efficiency>  (154) 
-0.0771219

>  <r_i_glide_ligand_efficiency_sa>  (154) 
-0.252271

>  <r_i_glide_ligand_efficiency_ln>  (154) 
-0.592549

>  <r_i_glide_gscore>  (154) 
-2.69927

>  <r_i_glide_lipo>  (154) 
-0.130589

>  <r_i_glide_hbond>  (154) 
-0.154852

>  <r_i_glide_metal>  (154) 
-0

>  <r_i_glide_rewards>  (154) 
-0.657209

>  <r_i_glide_evdw>  (154) 
-23.1216

>  <r_i_glide_ecoul>  (154) 
-4.0027

>  <r_i_glide_erotb>  (154) 
0

>  <r_i_glide_esite>  (154) 
-0.000134133

>  <r_i_glide_emodel>  (154) 
-36.366

>  <r_i_glide_energy>  (154) 
-27.1243

>  <r_i_glide_einternal>  (154) 
0.714075

>  <r_i_glide_intrahb_reward>  (154) 
-0.5

>  <i_i_glide_confnum>  (154) 
2

>  <i_i_glide_posenum>  (154) 
10

>  <r_i_glide_eff_state_penalty>  (154) 
0

>  <ligand_id>  (154) 
47

>  <original_smiles>  (154) 
CC1CC2OC34C(O)CC(=O)C(C)(C)C=C5C(C(C)C6(O)C=CCC(=O)C6(C)C3CC2(O)C1)C54C

>  <smiles>  (154) 
[H]OC1([H])C([H])([H])C(=O)C(C([H])([H])[H])(C([H])([H])[H])C([H])=C2C3([H])C([H])(C([H])([H])[H])C4(O[H])C([H])=C([H])C([H])([H])C(=O)C4(C([H])([H])[H])C4([H])C([H])([H])C5(O[H])C([H])([H])C([H])(C([H])([H])[H])C([H])([H])C5([H])OC14C23C([H])([H])[H]

$$$$
47:5:1
     RDKit          3D

 75 80  0  0  1  0  0  0  0  0999 V2000
    4.9766   -2.5469    2.7838 C   0  0  0  0  0  0  0  0  0  0  0  0
    4.9703   -1.0429    3.1037 C   0  0  2  0  0  0  0  0  0  0  0  0
    4.8972   -0.7350    4.6306 C   0  0  0  0  0  0  0  0  0  0  0  0
    3.9072    0.4295    4.6698 C   0  0  2  0  0  0  0  0  0  0  0  0
    3.3715    0.9713    5.9041 O   0  0  0  0  0  0  0  0  0  0  0  0
    2.5111    2.1624    5.8085 C   0  0  1  0  0  0  0  0  0  0  0  0
    3.4145    3.2792    5.1379 C   0  0  1  0  0  0  0  0  0  0  0  0
    2.7185    4.4013    4.6482 O   0  0  0  0  0  0  0  0  0  0  0  0
    4.5843    3.8043    6.0339 C   0  0  0  0  0  0  0  0  0  0  0  0
    5.4599    2.7585    6.7607 C   0  0  0  0  0  0  0  0  0  0  0  0
    6.2395    2.0743    6.0937 O   0  0  0  0  0  0  0  0  0  0  0  0
    5.3974    2.6073    8.3180 C   0  0  0  0  0  0  0  0  0  0  0  0
    6.5958    1.7350    8.7772 C   0  0  0  0  0  0  0  0  0  0  0  0
    5.5648    3.9832    8.9976 C   0  0  0  0  0  0  0  0  0  0  0  0
    4.1052    1.9309    8.8110 C   0  0  0  0  0  0  0  0  0  0  0  0
    2.8728    2.0425    8.2834 C   0  0  0  0  0  0  0  0  0  0  0  0
    1.4126    1.7563    8.3269 C   0  0  2  0  0  0  0  0  0  0  0  0
    0.7048    0.5271    7.8047 C   0  0  1  0  0  0  0  0  0  0  0  0
    0.2921   -0.3315    9.0247 C   0  0  0  0  0  0  0  0  0  0  0  0
   -0.5000    0.8882    6.8171 C   0  0  1  0  0  0  0  0  0  0  0  0
   -0.9794   -0.4049    6.4782 O   0  0  0  0  0  0  0  0  0  0  0  0
   -1.6229    1.5410    7.6037 C   0  0  0  0  0  0  0  0  0  0  0  0
   -2.1033    2.7767    7.4060 C   0  0  0  0  0  0  0  0  0  0  0  0
   -1.5821    3.7516    6.3847 C   0  0  0  0  0  0  0  0  0  0  0  0
   -0.5566    3.1769    5.4099 C   0  0  0  0  0  0  0  0  0  0  0  0
   -0.1031    3.9198    4.5413 O   0  0  0  0  0  0  0  0  0  0  0  0
   -0.1926    1.6734    5.4207 C   0  0  2  0  0  0  0  0  0  0  0  0
   -1.1472    1.1376    4.3045 C   0  0  0  0  0  0  0  0  0  0  0  0
    1.3214    1.4869    4.9899 C   0  0  1  0  0  0  0  0  0  0  0  0
    1.7521    1.1580    3.5200 C   0  0  0  0  0  0  0  0  0  0  0  0
    2.8471    0.0623    3.6221 C   0  0  2  0  0  0  0  0  0  0  0  0
    2.2035   -1.1696    3.9222 O   0  0  0  0  0  0  0  0  0  0  0  0
    3.7695   -0.2868    2.4440 C   0  0  0  0  0  0  0  0  0  0  0  0
    2.0727    2.6684    7.2355 C   0  0  2  0  0  0  0  0  0  0  0  0
    1.7248    4.1513    7.4588 C   0  0  0  0  0  0  0  0  0  0  0  0
    4.0617   -3.0339    3.1146 H   0  0  0  0  0  0  0  0  0  0  0  0
    5.8119   -3.0476    3.2677 H   0  0  0  0  0  0  0  0  0  0  0  0
    5.0679   -2.7198    1.7128 H   0  0  0  0  0  0  0  0  0  0  0  0
    5.8913   -0.6171    2.7007 H   0  0  0  0  0  0  0  0  0  0  0  0
    4.5276   -1.5904    5.1935 H   0  0  0  0  0  0  0  0  0  0  0  0
    5.8724   -0.4655    5.0387 H   0  0  0  0  0  0  0  0  0  0  0  0
    4.5584    1.1887    4.2585 H   0  0  0  0  0  0  0  0  0  0  0  0
    3.8300    2.9729    4.1922 H   0  0  0  0  0  0  0  0  0  0  0  0
    2.1032    4.1212    3.9799 H   0  0  0  0  0  0  0  0  0  0  0  0
    5.2524    4.3775    5.3975 H   0  0  0  0  0  0  0  0  0  0  0  0
    4.2227    4.5252    6.7547 H   0  0  0  0  0  0  0  0  0  0  0  0
    6.5431    0.7235    8.3693 H   0  0  0  0  0  0  0  0  0  0  0  0
    6.6359    1.6434    9.8646 H   0  0  0  0  0  0  0  0  0  0  0  0
    7.5503    2.1667    8.4624 H   0  0  0  0  0  0  0  0  0  0  0  0
    4.6985    4.6273    8.8536 H   0  0  0  0  0  0  0  0  0  0  0  0
    6.4392    4.5135    8.6155 H   0  0  0  0  0  0  0  0  0  0  0  0
    5.7013    3.8776   10.0748 H   0  0  0  0  0  0  0  0  0  0  0  0
    4.2081    1.3284    9.6988 H   0  0  0  0  0  0  0  0  0  0  0  0
    0.8353    2.2552    9.1064 H   0  0  0  0  0  0  0  0  0  0  0  0
    1.4547   -0.0838    7.3035 H   0  0  0  0  0  0  0  0  0  0  0  0
   -0.4102    0.1781    9.6872 H   0  0  0  0  0  0  0  0  0  0  0  0
    1.1690   -0.5711    9.6279 H   0  0  0  0  0  0  0  0  0  0  0  0
   -0.1491   -1.2818    8.7267 H   0  0  0  0  0  0  0  0  0  0  0  0
   -0.3369   -0.7972    5.9013 H   0  0  0  0  0  0  0  0  0  0  0  0
   -2.0805    0.9441    8.3718 H   0  0  0  0  0  0  0  0  0  0  0  0
   -2.9104    3.1384    8.0260 H   0  0  0  0  0  0  0  0  0  0  0  0
   -2.4213    4.1409    5.8091 H   0  0  0  0  0  0  0  0  0  0  0  0
   -1.1395    4.5965    6.9120 H   0  0  0  0  0  0  0  0  0  0  0  0
   -0.9482    0.1046    4.0188 H   0  0  0  0  0  0  0  0  0  0  0  0
   -1.0805    1.7240    3.3872 H   0  0  0  0  0  0  0  0  0  0  0  0
   -2.1899    1.1917    4.6162 H   0  0  0  0  0  0  0  0  0  0  0  0
    1.3164    0.4746    5.3514 H   0  0  0  0  0  0  0  0  0  0  0  0
    0.9454    0.7698    2.9020 H   0  0  0  0  0  0  0  0  0  0  0  0
    2.1150    2.0467    3.0063 H   0  0  0  0  0  0  0  0  0  0  0  0
    2.8858   -1.8195    4.0177 H   0  0  0  0  0  0  0  0  0  0  0  0
    4.1404    0.6292    1.9825 H   0  0  0  0  0  0  0  0  0  0  0  0
    3.2723   -0.8544    1.6566 H   0  0  0  0  0  0  0  0  0  0  0  0
    1.3454    4.6567    6.5810 H   0  0  0  0  0  0  0  0  0  0  0  0
    2.5661    4.7118    7.8537 H   0  0  0  0  0  0  0  0  0  0  0  0
    0.9419    4.2396    8.2098 H   0  0  0  0  0  0  0  0  0  0  0  0
  1  2  1  0
  1 36  1  0
  1 37  1  0
  1 38  1  0
  2 33  1  0
  2  3  1  0
  2 39  1  6
  3  4  1  0
  3 40  1  0
  3 41  1  0
  4 31  1  0
  4  5  1  0
  4 42  1  6
  6  5  1  1
  6 29  1  0
  6 34  1  0
  6  7  1  0
  7  8  1  0
  7  9  1  0
  7 43  1  6
  8 44  1  0
  9 10  1  0
  9 45  1  0
  9 46  1  0
 10 11  2  0
 10 12  1  0
 12 13  1  0
 12 14  1  0
 12 15  1  0
 13 47  1  0
 13 48  1  0
 13 49  1  0
 14 50  1  0
 14 51  1  0
 14 52  1  0
 15 16  2  3
 15 53  1  0
 16 34  1  0
 16 17  1  0
 17 18  1  0
 17 34  1  0
 17 54  1  1
 18 19  1  0
 18 20  1  0
 18 55  1  6
 19 56  1  0
 19 57  1  0
 19 58  1  0
 20 27  1  0
 20 21  1  6
 20 22  1  0
 21 59  1  0
 22 23  2  0
 22 60  1  0
 23 24  1  0
 23 61  1  0
 24 25  1  0
 24 62  1  0
 24 63  1  0
 25 26  2  0
 25 27  1  0
 27 28  1  6
 27 29  1  0
 28 64  1  0
 28 65  1  0
 28 66  1  0
 29 30  1  0
 29 67  1  1
 30 31  1  0
 30 68  1  0
 30 69  1  0
 31 32  1  1
 31 33  1  0
 32 70  1  0
 33 71  1  0
 33 72  1  0
 34 35  1  6
 35 73  1  0
 35 74  1  0
 35 75  1  0
M  END
>  <i_m_ct_stereo_status>  (155) 
1

>  <s_m_source_file>  (155) 
/var/tmp/pbs.5076255.sched01/tmp06yssb5m/4267g10r58.sdf

>  <i_m_source_file_index>  (155) 
29

>  <i_lp_mmshare_version>  (155) 
48012

>  <i_f3d_flags>  (155) 
0

>  <s_epik_input>  (155) 
W0NIM11bQ0BASF0oW0NIMl0xKVtDSDJdW0NASF0oTzIpW0NAQF0xKFtPSF0pW0NIMl1bQ0BASF0oW0NAQF0yMzQpW0NAQF01KFtDSDNdKVtDQF0oW09IXSkoW0NIXT1bQ0hdW0NIMl1DNT1PKVtDQEhdKFtDSDNdKVtDSF02XEMoQzQ2W0NIM10pPVtDSF1cQyhbQ0gzXSkoW0NIM10pQyg9TylbQ0gyXVtDQEBIXTNbT0hd

>  <s_epik_cmdline>  (155) 
J2VwaWtfcHl0aG9uJywgJy1waHQnLCAnMi4wJywgJy1waCcsICc3LjAnLCAnLXRuJywgJzgnLCAnLW1hJywgJzIwMCcsICctaW1hZScsICc8aW5maWxlLm1hZT4nLCAnLW9tYWUnLCAnPG91dGZpbGUubWFlPic=

>  <r_lp_tautomer_probability>  (155) 
1

>  <r_epik_Ionization_Penalty>  (155) 
3.40864e-07

>  <r_epik_Ionization_Penalty_Charging>  (155) 
0

>  <r_epik_Ionization_Penalty_Neutral>  (155) 
3.40864e-07

>  <r_epik_State_Penalty>  (155) 
-0

>  <r_epik_Charging_Adjusted_Penalty>  (155) 
0

>  <i_epik_Tot_Q>  (155) 
0

>  <i_epik_Tot_abs_Q>  (155) 
0

>  <s_lp_Force_Field>  (155) 
OPLS3e

>  <r_lp_Energy>  (155) 
114.958

>  <b_lp_Chiralities_Consistent>  (155) 
1

>  <s_lp_Variant>  (155) 
47:0-6

>  <s_i_glide_gridfile>  (155) 
pfpi4k_grid

>  <i_i_glide_lignum>  (155) 
29

>  <i_i_glide_rotatable_bonds>  (155) 
3

>  <r_i_docking_score>  (155) 
-2.03814

>  <r_i_glide_ligand_efficiency>  (155) 
-0.0582326

>  <r_i_glide_ligand_efficiency_sa>  (155) 
-0.190483

>  <r_i_glide_ligand_efficiency_ln>  (155) 
-0.447417

>  <r_i_glide_gscore>  (155) 
-2.03814

>  <r_i_glide_lipo>  (155) 
-0.346513

>  <r_i_glide_hbond>  (155) 
-0.084904

>  <r_i_glide_metal>  (155) 
-0

>  <r_i_glide_rewards>  (155) 
-0.122285

>  <r_i_glide_evdw>  (155) 
-22.9432

>  <r_i_glide_ecoul>  (155) 
-2.20144

>  <r_i_glide_erotb>  (155) 
0

>  <r_i_glide_esite>  (155) 
-0.00706305

>  <r_i_glide_emodel>  (155) 
-28.2477

>  <r_i_glide_energy>  (155) 
-25.1447

>  <r_i_glide_einternal>  (155) 
0.642047

>  <r_i_glide_intrahb_reward>  (155) 
-0

>  <i_i_glide_confnum>  (155) 
2

>  <i_i_glide_posenum>  (155) 
1

>  <r_i_glide_eff_state_penalty>  (155) 
0

>  <ligand_id>  (155) 
47

>  <original_smiles>  (155) 
CC1CC2OC34C(O)CC(=O)C(C)(C)C=C5C(C(C)C6(O)C=CCC(=O)C6(C)C3CC2(O)C1)C54C

>  <smiles>  (155) 
[H]OC1([H])C([H])([H])C(=O)C(C([H])([H])[H])(C([H])([H])[H])C([H])=C2C3([H])C([H])(C([H])([H])[H])C4(O[H])C([H])=C([H])C([H])([H])C(=O)C4(C([H])([H])[H])C4([H])C([H])([H])C5(O[H])C([H])([H])C([H])(C([H])([H])[H])C([H])([H])C5([H])OC14C23C([H])([H])[H]

$$$$
47:5:2
     RDKit          3D

 75 80  0  0  1  0  0  0  0  0999 V2000
   -2.0001    4.4033    2.8898 C   0  0  0  0  0  0  0  0  0  0  0  0
   -1.5090    4.0662    4.3098 C   0  0  2  0  0  0  0  0  0  0  0  0
    0.0307    3.8482    4.4020 C   0  0  0  0  0  0  0  0  0  0  0  0
    0.1184    2.6416    5.3366 C   0  0  2  0  0  0  0  0  0  0  0  0
    1.3559    1.9384    5.6141 O   0  0  0  0  0  0  0  0  0  0  0  0
    1.3201    0.8575    6.6125 C   0  0  1  0  0  0  0  0  0  0  0  0
    0.8473    1.5450    7.9592 C   0  0  1  0  0  0  0  0  0  0  0  0
    0.4170    0.6481    8.9565 O   0  0  0  0  0  0  0  0  0  0  0  0
    1.8755    2.5326    8.5992 C   0  0  0  0  0  0  0  0  0  0  0  0
    2.5500    3.5661    7.6672 C   0  0  0  0  0  0  0  0  0  0  0  0
    1.8757    4.5062    7.2444 O   0  0  0  0  0  0  0  0  0  0  0  0
    4.0729    3.4497    7.3180 C   0  0  0  0  0  0  0  0  0  0  0  0
    4.5272    4.7733    6.6485 C   0  0  0  0  0  0  0  0  0  0  0  0
    4.9087    3.2926    8.6055 C   0  0  0  0  0  0  0  0  0  0  0  0
    4.3920    2.3007    6.3440 C   0  0  0  0  0  0  0  0  0  0  0  0
    3.7877    1.1012    6.2710 C   0  0  0  0  0  0  0  0  0  0  0  0
    3.6882   -0.2675    5.6971 C   0  0  2  0  0  0  0  0  0  0  0  0
    2.9859   -0.6759    4.4225 C   0  0  1  0  0  0  0  0  0  0  0  0
    4.0701   -0.9695    3.3565 C   0  0  0  0  0  0  0  0  0  0  0  0
    1.9487   -1.8739    4.6540 C   0  0  1  0  0  0  0  0  0  0  0  0
    1.4301   -2.0494    3.3424 O   0  0  0  0  0  0  0  0  0  0  0  0
    2.7095   -3.1524    4.9662 C   0  0  0  0  0  0  0  0  0  0  0  0
    2.6176   -3.8620    6.1036 C   0  0  0  0  0  0  0  0  0  0  0  0
    1.7546   -3.5025    7.2890 C   0  0  0  0  0  0  0  0  0  0  0  0
    0.7967   -2.3353    7.0457 C   0  0  0  0  0  0  0  0  0  0  0  0
    0.0260   -2.0169    7.9538 O   0  0  0  0  0  0  0  0  0  0  0  0
    0.6788   -1.6607    5.6559 C   0  0  2  0  0  0  0  0  0  0  0  0
   -0.5555   -2.4176    5.0832 C   0  0  0  0  0  0  0  0  0  0  0  0
    0.3445   -0.1218    5.8194 C   0  0  1  0  0  0  0  0  0  0  0  0
   -1.1130    0.4503    5.7526 C   0  0  0  0  0  0  0  0  0  0  0  0
   -1.0403    1.7418    4.8929 C   0  0  2  0  0  0  0  0  0  0  0  0
   -0.9181    1.3501    3.5313 O   0  0  0  0  0  0  0  0  0  0  0  0
   -2.1743    2.7785    4.8856 C   0  0  0  0  0  0  0  0  0  0  0  0
    2.7535    0.2471    6.8465 C   0  0  2  0  0  0  0  0  0  0  0  0
    3.1058   -0.4132    8.1931 C   0  0  0  0  0  0  0  0  0  0  0  0
   -1.7862    3.5880    2.2009 H   0  0  0  0  0  0  0  0  0  0  0  0
   -1.5040    5.2916    2.5003 H   0  0  0  0  0  0  0  0  0  0  0  0
   -3.0750    4.5761    2.8647 H   0  0  0  0  0  0  0  0  0  0  0  0
   -1.7796    4.8973    4.9610 H   0  0  0  0  0  0  0  0  0  0  0  0
    0.4602    3.6265    3.4259 H   0  0  0  0  0  0  0  0  0  0  0  0
    0.5440    4.7224    4.8057 H   0  0  0  0  0  0  0  0  0  0  0  0
   -0.1636    3.1356    6.2558 H   0  0  0  0  0  0  0  0  0  0  0  0
   -0.0906    2.0670    7.8556 H   0  0  0  0  0  0  0  0  0  0  0  0
    1.1737    0.1925    9.2961 H   0  0  0  0  0  0  0  0  0  0  0  0
    1.3548    3.1022    9.3645 H   0  0  0  0  0  0  0  0  0  0  0  0
    2.6459    1.9987    9.1406 H   0  0  0  0  0  0  0  0  0  0  0  0
    4.0113    4.9512    5.7022 H   0  0  0  0  0  0  0  0  0  0  0  0
    5.5987    4.7718    6.4380 H   0  0  0  0  0  0  0  0  0  0  0  0
    4.3344    5.6356    7.2936 H   0  0  0  0  0  0  0  0  0  0  0  0
    4.7703    2.3219    9.0772 H   0  0  0  0  0  0  0  0  0  0  0  0
    4.6557    4.0597    9.3408 H   0  0  0  0  0  0  0  0  0  0  0  0
    5.9744    3.3895    8.3973 H   0  0  0  0  0  0  0  0  0  0  0  0
    5.2144    2.4778    5.6736 H   0  0  0  0  0  0  0  0  0  0  0  0
    4.4692   -0.9781    5.9727 H   0  0  0  0  0  0  0  0  0  0  0  0
    2.4830    0.2107    4.0390 H   0  0  0  0  0  0  0  0  0  0  0  0
    4.7227   -1.7989    3.6326 H   0  0  0  0  0  0  0  0  0  0  0  0
    4.7102   -0.0967    3.2236 H   0  0  0  0  0  0  0  0  0  0  0  0
    3.6389   -1.1953    2.3815 H   0  0  0  0  0  0  0  0  0  0  0  0
    1.2591   -1.1951    2.9728 H   0  0  0  0  0  0  0  0  0  0  0  0
    3.3503   -3.5253    4.1826 H   0  0  0  0  0  0  0  0  0  0  0  0
    3.2013   -4.7632    6.2145 H   0  0  0  0  0  0  0  0  0  0  0  0
    1.1610   -4.3730    7.5659 H   0  0  0  0  0  0  0  0  0  0  0  0
    2.3961   -3.2803    8.1404 H   0  0  0  0  0  0  0  0  0  0  0  0
   -0.9240   -1.9944    4.1493 H   0  0  0  0  0  0  0  0  0  0  0  0
   -1.3999   -2.4247    5.7721 H   0  0  0  0  0  0  0  0  0  0  0  0
   -0.3144   -3.4633    4.8840 H   0  0  0  0  0  0  0  0  0  0  0  0
    0.5948    0.0619    4.7891 H   0  0  0  0  0  0  0  0  0  0  0  0
   -1.8315   -0.2294    5.2984 H   0  0  0  0  0  0  0  0  0  0  0  0
   -1.4909    0.6513    6.7515 H   0  0  0  0  0  0  0  0  0  0  0  0
   -1.7611    1.0427    3.2332 H   0  0  0  0  0  0  0  0  0  0  0  0
   -2.5019    2.9730    5.9104 H   0  0  0  0  0  0  0  0  0  0  0  0
   -3.0493    2.4746    4.3135 H   0  0  0  0  0  0  0  0  0  0  0  0
    2.2669   -0.8567    8.7115 H   0  0  0  0  0  0  0  0  0  0  0  0
    3.6229    0.2724    8.8579 H   0  0  0  0  0  0  0  0  0  0  0  0
    3.8042   -1.2332    8.0301 H   0  0  0  0  0  0  0  0  0  0  0  0
  1  2  1  0
  1 36  1  0
  1 37  1  0
  1 38  1  0
  2 33  1  0
  2  3  1  0
  2 39  1  1
  3  4  1  0
  3 40  1  0
  3 41  1  0
  4 31  1  0
  4  5  1  0
  4 42  1  1
  6  5  1  6
  6 29  1  0
  6 34  1  0
  6  7  1  0
  7  8  1  0
  7  9  1  0
  7 43  1  6
  8 44  1  0
  9 10  1  0
  9 45  1  0
  9 46  1  0
 10 11  2  0
 10 12  1  0
 12 13  1  0
 12 14  1  0
 12 15  1  0
 13 47  1  0
 13 48  1  0
 13 49  1  0
 14 50  1  0
 14 51  1  0
 14 52  1  0
 15 16  2  3
 15 53  1  0
 16 34  1  0
 16 17  1  0
 17 18  1  0
 17 34  1  0
 17 54  1  1
 18 19  1  0
 18 20  1  0
 18 55  1  6
 19 56  1  0
 19 57  1  0
 19 58  1  0
 20 27  1  0
 20 21  1  6
 20 22  1  0
 21 59  1  0
 22 23  2  0
 22 60  1  0
 23 24  1  0
 23 61  1  0
 24 25  1  0
 24 62  1  0
 24 63  1  0
 25 26  2  0
 25 27  1  0
 27 28  1  6
 27 29  1  0
 28 64  1  0
 28 65  1  0
 28 66  1  0
 29 30  1  0
 29 67  1  6
 30 31  1  0
 30 68  1  0
 30 69  1  0
 31 32  1  6
 31 33  1  0
 32 70  1  0
 33 71  1  0
 33 72  1  0
 34 35  1  1
 35 73  1  0
 35 74  1  0
 35 75  1  0
M  END
>  <i_m_ct_stereo_status>  (156) 
1

>  <s_m_source_file>  (156) 
/var/tmp/pbs.5076255.sched01/tmp06yssb5m/4267g10r58.sdf

>  <i_m_source_file_index>  (156) 
29

>  <i_lp_mmshare_version>  (156) 
48012

>  <i_f3d_flags>  (156) 
0

>  <s_epik_input>  (156) 
W0NIM11bQ0BASF0oW0NIMl0xKVtDSDJdW0NASF0oTzIpW0NAQF0xKFtPSF0pW0NIMl1bQ0BASF0oW0NAQF0yMzQpW0NAQF01KFtDSDNdKVtDQF0oW09IXSkoW0NIXT1bQ0hdW0NIMl1DNT1PKVtDQEhdKFtDSDNdKVtDSF02XEMoQzQ2W0NIM10pPVtDSF1cQyhbQ0gzXSkoW0NIM10pQyg9TylbQ0gyXVtDQEBIXTNbT0hd

>  <s_epik_cmdline>  (156) 
J2VwaWtfcHl0aG9uJywgJy1waHQnLCAnMi4wJywgJy1waCcsICc3LjAnLCAnLXRuJywgJzgnLCAnLW1hJywgJzIwMCcsICctaW1hZScsICc8aW5maWxlLm1hZT4nLCAnLW9tYWUnLCAnPG91dGZpbGUubWFlPic=

>  <r_lp_tautomer_probability>  (156) 
1

>  <r_epik_Ionization_Penalty>  (156) 
3.40864e-07

>  <r_epik_Ionization_Penalty_Charging>  (156) 
0

>  <r_epik_Ionization_Penalty_Neutral>  (156) 
3.40864e-07

>  <r_epik_State_Penalty>  (156) 
-0

>  <r_epik_Charging_Adjusted_Penalty>  (156) 
0

>  <i_epik_Tot_Q>  (156) 
0

>  <i_epik_Tot_abs_Q>  (156) 
0

>  <s_lp_Force_Field>  (156) 
OPLS3e

>  <r_lp_Energy>  (156) 
114.958

>  <b_lp_Chiralities_Consistent>  (156) 
1

>  <s_lp_Variant>  (156) 
47:0-6

>  <s_i_glide_gridfile>  (156) 
pfpi4k_grid

>  <i_i_glide_lignum>  (156) 
29

>  <i_i_glide_rotatable_bonds>  (156) 
3

>  <r_i_docking_score>  (156) 
-1.53971

>  <r_i_glide_ligand_efficiency>  (156) 
-0.0439917

>  <r_i_glide_ligand_efficiency_sa>  (156) 
-0.1439

>  <r_i_glide_ligand_efficiency_ln>  (156) 
-0.338

>  <r_i_glide_gscore>  (156) 
-1.53971

>  <r_i_glide_lipo>  (156) 
-0.0141241

>  <r_i_glide_hbond>  (156) 
-0.0834174

>  <r_i_glide_metal>  (156) 
-0

>  <r_i_glide_rewards>  (156) 
-0.104834

>  <r_i_glide_evdw>  (156) 
-21.0376

>  <r_i_glide_ecoul>  (156) 
-1.8045

>  <r_i_glide_erotb>  (156) 
0

>  <r_i_glide_esite>  (156) 
-0.0147757

>  <r_i_glide_emodel>  (156) 
-25.0923

>  <r_i_glide_energy>  (156) 
-22.8421

>  <r_i_glide_einternal>  (156) 
0.516183

>  <r_i_glide_intrahb_reward>  (156) 
-0

>  <i_i_glide_confnum>  (156) 
1

>  <i_i_glide_posenum>  (156) 
5

>  <r_i_glide_eff_state_penalty>  (156) 
0

>  <ligand_id>  (156) 
47

>  <original_smiles>  (156) 
CC1CC2OC34C(O)CC(=O)C(C)(C)C=C5C(C(C)C6(O)C=CCC(=O)C6(C)C3CC2(O)C1)C54C

>  <smiles>  (156) 
[H]OC1([H])C([H])([H])C(=O)C(C([H])([H])[H])(C([H])([H])[H])C([H])=C2C3([H])C([H])(C([H])([H])[H])C4(O[H])C([H])=C([H])C([H])([H])C(=O)C4(C([H])([H])[H])C4([H])C([H])([H])C5(O[H])C([H])([H])C([H])(C([H])([H])[H])C([H])([H])C5([H])OC14C23C([H])([H])[H]

$$$$
48:0:0
     RDKit          3D

 45 48  0  0  1  0  0  0  0  0999 V2000
    8.8001   -1.5534    0.4671 C   0  0  0  0  0  0  0  0  0  0  0  0
    7.6905   -2.2581    0.2490 C   0  0  0  0  0  0  0  0  0  0  0  0
    7.7094   -3.4302   -0.5709 C   0  0  0  0  0  0  0  0  0  0  0  0
    8.7234   -3.9972   -0.9787 O   0  0  0  0  0  0  0  0  0  0  0  0
    6.4363   -3.7806   -0.7768 O   0  0  0  0  0  0  0  0  0  0  0  0
    5.4460   -2.8337   -0.3506 C   0  0  2  0  0  0  0  0  0  0  0  0
    6.2875   -1.9581    0.6383 C   0  0  1  0  0  0  0  0  0  0  0  0
    6.0570   -2.2139    2.1363 C   0  0  0  0  0  0  0  0  0  0  0  0
    4.6029   -2.3025    2.6192 C   0  0  1  0  0  0  0  0  0  0  0  0
    3.9837   -1.0383    2.5383 O   0  0  0  0  0  0  0  0  0  0  0  0
    3.8436   -3.3132    1.8120 C   0  0  2  0  0  0  0  0  0  0  0  0
    4.5805   -4.5433    1.4097 C   0  0  0  0  0  0  0  0  0  0  0  0
    5.0694   -5.7253    1.7528 C   0  0  0  0  0  0  0  0  0  0  0  0
    4.2589   -3.5811    0.3046 C   0  0  2  0  0  0  0  0  0  0  0  0
    3.3286   -4.1926   -0.7160 C   0  0  1  0  0  0  0  0  0  0  0  0
    2.1468   -4.6795   -0.1426 O   0  0  0  0  0  0  0  0  0  0  0  0
    2.9311   -3.3071   -1.9142 C   0  0  0  0  0  0  0  0  0  0  0  0
    4.1633   -2.7475   -2.6488 C   0  0  0  0  0  0  0  0  0  0  0  0
    4.9951   -3.8529   -3.3235 C   0  0  0  0  0  0  0  0  0  0  0  0
    3.6882   -1.8607   -3.8243 C   0  0  0  0  0  0  0  0  0  0  0  0
    5.0268   -1.9858   -1.6086 C   0  0  1  0  0  0  0  0  0  0  0  0
    4.3010   -0.7180   -1.2220 C   0  0  0  0  0  0  0  0  0  0  0  0
    3.7444   -0.6571   -0.1196 O   0  0  0  0  0  0  0  0  0  0  0  0
    8.8079   -0.6778    1.0896 H   0  0  0  0  0  0  0  0  0  0  0  0
    9.7369   -1.9157    0.0833 H   0  0  0  0  0  0  0  0  0  0  0  0
    6.1946   -0.8780    0.4962 H   0  0  0  0  0  0  0  0  0  0  0  0
    6.5512   -3.1563    2.3908 H   0  0  0  0  0  0  0  0  0  0  0  0
    6.5583   -1.4214    2.6947 H   0  0  0  0  0  0  0  0  0  0  0  0
    4.5679   -2.6061    3.6699 H   0  0  0  0  0  0  0  0  0  0  0  0
    3.8668   -0.8307    1.6182 H   0  0  0  0  0  0  0  0  0  0  0  0
    2.7892   -3.3884    2.0558 H   0  0  0  0  0  0  0  0  0  0  0  0
    5.0359   -6.0775    2.7836 H   0  0  0  0  0  0  0  0  0  0  0  0
    5.5145   -6.3983    1.0161 H   0  0  0  0  0  0  0  0  0  0  0  0
    3.9030   -5.0449   -1.0486 H   0  0  0  0  0  0  0  0  0  0  0  0
    1.6818   -5.1097   -0.8437 H   0  0  0  0  0  0  0  0  0  0  0  0
    2.3176   -3.8525   -2.6312 H   0  0  0  0  0  0  0  0  0  0  0  0
    2.2775   -2.5034   -1.5760 H   0  0  0  0  0  0  0  0  0  0  0  0
    5.9632   -3.4816   -3.6763 H   0  0  0  0  0  0  0  0  0  0  0  0
    4.4619   -4.3271   -4.1555 H   0  0  0  0  0  0  0  0  0  0  0  0
    5.2091   -4.6636   -2.6351 H   0  0  0  0  0  0  0  0  0  0  0  0
    4.5308   -1.3431   -4.2899 H   0  0  0  0  0  0  0  0  0  0  0  0
    2.9539   -1.1189   -3.5065 H   0  0  0  0  0  0  0  0  0  0  0  0
    3.1905   -2.4674   -4.5873 H   0  0  0  0  0  0  0  0  0  0  0  0
    5.9327   -1.6497   -2.1042 H   0  0  0  0  0  0  0  0  0  0  0  0
    4.3299    0.0669   -1.9810 H   0  0  0  0  0  0  0  0  0  0  0  0
  1  2  2  0
  1 24  1  0
  1 25  1  0
  2  7  1  0
  2  3  1  0
  3  4  2  0
  3  5  1  0
  6  5  1  6
  6 14  1  0
  6 21  1  0
  6  7  1  0
  7  8  1  0
  7 26  1  1
  8  9  1  0
  8 27  1  0
  8 28  1  0
  9 10  1  0
  9 11  1  0
  9 29  1  1
 10 30  1  0
 11 14  1  0
 11 12  1  0
 11 31  1  6
 12 13  2  0
 14 12  1  1
 13 32  1  0
 13 33  1  0
 14 15  1  0
 15 16  1  0
 15 17  1  0
 15 34  1  6
 16 35  1  0
 17 18  1  0
 17 36  1  0
 17 37  1  0
 18 19  1  0
 18 20  1  0
 18 21  1  0
 19 38  1  0
 19 39  1  0
 19 40  1  0
 20 41  1  0
 20 42  1  0
 20 43  1  0
 21 22  1  0
 21 44  1  6
 22 23  2  0
 22 45  1  0
M  END
>  <i_m_ct_stereo_status>  (157) 
1

>  <s_m_source_file>  (157) 
/var/tmp/pbs.5076255.sched01/tmp06yssb5m/4267g10r58.sdf

>  <i_m_source_file_index>  (157) 
30

>  <i_lp_mmshare_version>  (157) 
48012

>  <i_f3d_flags>  (157) 
0

>  <s_epik_input>  (157) 
Tz1DKE8xKUMoPVtDSDJdKVtDQEBIXTJbQ0gyXVtDQEBIXShbT0hdKVtDSF0oQzM9W0NIMl0pQzMoW0NAXTEyNClbQ0BASF0oW09IXSlbQ0gyXUMoW0NIM10pKFtDSDNdKVtDQEhdNFtDSF09Tw==

>  <s_epik_cmdline>  (157) 
J2VwaWtfcHl0aG9uJywgJy1waHQnLCAnMi4wJywgJy1waCcsICc3LjAnLCAnLXRuJywgJzgnLCAnLW1hJywgJzIwMCcsICctaW1hZScsICc8aW5maWxlLm1hZT4nLCAnLW9tYWUnLCAnPG91dGZpbGUubWFlPic=

>  <r_lp_tautomer_probability>  (157) 
1

>  <r_epik_Ionization_Penalty>  (157) 
7.92607e-07

>  <r_epik_Ionization_Penalty_Charging>  (157) 
0

>  <r_epik_Ionization_Penalty_Neutral>  (157) 
7.92607e-07

>  <r_epik_State_Penalty>  (157) 
-0

>  <r_epik_Charging_Adjusted_Penalty>  (157) 
0

>  <i_epik_Tot_Q>  (157) 
0

>  <i_epik_Tot_abs_Q>  (157) 
0

>  <s_epik_Chemistry_Notes>  (157) 
This compound has an ester and may undergo hydrolysis at high or low pH.

>  <s_lp_Force_Field>  (157) 
OPLS3e

>  <r_lp_Energy>  (157) 
22.6481

>  <b_lp_Chiralities_Consistent>  (157) 
1

>  <s_lp_Variant>  (157) 
48:0-1

>  <s_i_glide_gridfile>  (157) 
pfpi4k_grid

>  <i_i_glide_lignum>  (157) 
30

>  <i_i_glide_rotatable_bonds>  (157) 
3

>  <r_i_docking_score>  (157) 
-3.88457

>  <r_i_glide_ligand_efficiency>  (157) 
-0.168894

>  <r_i_glide_ligand_efficiency_sa>  (157) 
-0.480313

>  <r_i_glide_ligand_efficiency_ln>  (157) 
-0.939323

>  <r_i_glide_gscore>  (157) 
-3.88457

>  <r_i_glide_lipo>  (157) 
-0.658071

>  <r_i_glide_hbond>  (157) 
-0.0259683

>  <r_i_glide_metal>  (157) 
-0

>  <r_i_glide_rewards>  (157) 
-2.0004

>  <r_i_glide_evdw>  (157) 
-17.1128

>  <r_i_glide_ecoul>  (157) 
-2.04478

>  <r_i_glide_erotb>  (157) 
0

>  <r_i_glide_esite>  (157) 
-0.0377637

>  <r_i_glide_emodel>  (157) 
-25.093

>  <r_i_glide_energy>  (157) 
-19.1576

>  <r_i_glide_einternal>  (157) 
1.13697

>  <r_i_glide_intrahb_reward>  (157) 
-0.5

>  <i_i_glide_confnum>  (157) 
1

>  <i_i_glide_posenum>  (157) 
32

>  <r_i_glide_eff_state_penalty>  (157) 
0

>  <ligand_id>  (157) 
48

>  <original_smiles>  (157) 
C=C1C(=O)OC23C1CC(O)C1C(=C)C12C(O)CC(C)(C)C3C=O

>  <smiles>  (157) 
[H]OC1([H])C([H])([H])C2([H])C(=C([H])[H])C(=O)OC23C([H])(C([H])=O)C(C([H])([H])[H])(C([H])([H])[H])C([H])([H])C([H])(O[H])C32C(=C([H])[H])C12[H]

$$$$
48:0:1
     RDKit          3D

 45 48  0  0  1  0  0  0  0  0999 V2000
    8.6869   -1.4821    0.4752 C   0  0  0  0  0  0  0  0  0  0  0  0
    7.5594   -2.1704    0.2852 C   0  0  0  0  0  0  0  0  0  0  0  0
    7.5798   -3.4636   -0.3383 C   0  0  0  0  0  0  0  0  0  0  0  0
    8.5983   -4.1248   -0.5384 O   0  0  0  0  0  0  0  0  0  0  0  0
    6.3029   -3.7610   -0.6440 O   0  0  0  0  0  0  0  0  0  0  0  0
    5.3396   -2.7106   -0.4155 C   0  0  2  0  0  0  0  0  0  0  0  0
    6.1547   -1.7355    0.5205 C   0  0  1  0  0  0  0  0  0  0  0  0
    5.8114   -1.7422    2.0218 C   0  0  0  0  0  0  0  0  0  0  0  0
    4.3048   -1.6498    2.3321 C   0  0  1  0  0  0  0  0  0  0  0  0
    3.7955   -0.4211    1.8692 O   0  0  0  0  0  0  0  0  0  0  0  0
    3.5567   -2.7611    1.6470 C   0  0  2  0  0  0  0  0  0  0  0  0
    4.2445   -4.0660    1.5163 C   0  0  0  0  0  0  0  0  0  0  0  0
    4.6515   -5.2005    2.0927 C   0  0  0  0  0  0  0  0  0  0  0  0
    4.0660   -3.2914    0.2547 C   0  0  2  0  0  0  0  0  0  0  0  0
    3.1876   -4.0541   -0.7182 C   0  0  1  0  0  0  0  0  0  0  0  0
    1.9285   -4.4608   -0.2657 O   0  0  0  0  0  0  0  0  0  0  0  0
    2.8766   -3.3164   -2.0547 C   0  0  0  0  0  0  0  0  0  0  0  0
    4.1617   -2.9489   -2.7859 C   0  0  0  0  0  0  0  0  0  0  0  0
    4.9686   -4.1748   -3.2083 C   0  0  0  0  0  0  0  0  0  0  0  0
    3.7826   -2.2957   -4.1301 C   0  0  0  0  0  0  0  0  0  0  0  0
    5.0050   -2.0577   -1.8151 C   0  0  1  0  0  0  0  0  0  0  0  0
    4.3831   -0.6663   -1.7210 C   0  0  0  0  0  0  0  0  0  0  0  0
    4.3785    0.0682   -2.7215 O   0  0  0  0  0  0  0  0  0  0  0  0
    8.6910   -0.4819    0.8738 H   0  0  0  0  0  0  0  0  0  0  0  0
    9.6239   -1.9084    0.1982 H   0  0  0  0  0  0  0  0  0  0  0  0
    6.1123   -0.7207    0.1812 H   0  0  0  0  0  0  0  0  0  0  0  0
    6.2028   -2.6478    2.4805 H   0  0  0  0  0  0  0  0  0  0  0  0
    6.3218   -0.9107    2.4949 H   0  0  0  0  0  0  0  0  0  0  0  0
    4.1226   -1.7432    3.4129 H   0  0  0  0  0  0  0  0  0  0  0  0
    2.8480   -0.4499    1.9075 H   0  0  0  0  0  0  0  0  0  0  0  0
    2.4846   -2.7509    1.8183 H   0  0  0  0  0  0  0  0  0  0  0  0
    4.4998   -5.3722    3.1486 H   0  0  0  0  0  0  0  0  0  0  0  0
    5.0729   -5.9980    1.4931 H   0  0  0  0  0  0  0  0  0  0  0  0
    3.7315   -4.9916   -0.8464 H   0  0  0  0  0  0  0  0  0  0  0  0
    1.5047   -4.7486   -1.0659 H   0  0  0  0  0  0  0  0  0  0  0  0
    2.2817   -3.9175   -2.7362 H   0  0  0  0  0  0  0  0  0  0  0  0
    2.2678   -2.4163   -1.8921 H   0  0  0  0  0  0  0  0  0  0  0  0
    5.9533   -3.8374   -3.5196 H   0  0  0  0  0  0  0  0  0  0  0  0
    4.4902   -4.7390   -4.0086 H   0  0  0  0  0  0  0  0  0  0  0  0
    5.0637   -4.8790   -2.3867 H   0  0  0  0  0  0  0  0  0  0  0  0
    4.6601   -1.8077   -4.5525 H   0  0  0  0  0  0  0  0  0  0  0  0
    2.9939   -1.5401   -4.0494 H   0  0  0  0  0  0  0  0  0  0  0  0
    3.4030   -3.0555   -4.8105 H   0  0  0  0  0  0  0  0  0  0  0  0
    5.9629   -1.8693   -2.2785 H   0  0  0  0  0  0  0  0  0  0  0  0
    3.9787   -0.4074   -0.7455 H   0  0  0  0  0  0  0  0  0  0  0  0
  1  2  2  0
  1 24  1  0
  1 25  1  0
  2  7  1  0
  2  3  1  0
  3  4  2  0
  3  5  1  0
  6  5  1  6
  6 14  1  0
  6 21  1  0
  6  7  1  0
  7  8  1  0
  7 26  1  6
  8  9  1  0
  8 27  1  0
  8 28  1  0
  9 10  1  0
  9 11  1  0
  9 29  1  1
 10 30  1  0
 11 14  1  0
 11 12  1  0
 11 31  1  6
 12 13  2  0
 14 12  1  1
 13 32  1  0
 13 33  1  0
 14 15  1  0
 15 16  1  0
 15 17  1  0
 15 34  1  6
 16 35  1  0
 17 18  1  0
 17 36  1  0
 17 37  1  0
 18 19  1  0
 18 20  1  0
 18 21  1  0
 19 38  1  0
 19 39  1  0
 19 40  1  0
 20 41  1  0
 20 42  1  0
 20 43  1  0
 21 22  1  0
 21 44  1  6
 22 23  2  0
 22 45  1  0
M  END
>  <i_m_ct_stereo_status>  (158) 
1

>  <s_m_source_file>  (158) 
/var/tmp/pbs.5076255.sched01/tmp06yssb5m/4267g10r58.sdf

>  <i_m_source_file_index>  (158) 
30

>  <i_lp_mmshare_version>  (158) 
48012

>  <i_f3d_flags>  (158) 
0

>  <s_epik_input>  (158) 
Tz1DKE8xKUMoPVtDSDJdKVtDQEBIXTJbQ0gyXVtDQEBIXShbT0hdKVtDSF0oQzM9W0NIMl0pQzMoW0NAXTEyNClbQ0BASF0oW09IXSlbQ0gyXUMoW0NIM10pKFtDSDNdKVtDQEhdNFtDSF09Tw==

>  <s_epik_cmdline>  (158) 
J2VwaWtfcHl0aG9uJywgJy1waHQnLCAnMi4wJywgJy1waCcsICc3LjAnLCAnLXRuJywgJzgnLCAnLW1hJywgJzIwMCcsICctaW1hZScsICc8aW5maWxlLm1hZT4nLCAnLW9tYWUnLCAnPG91dGZpbGUubWFlPic=

>  <r_lp_tautomer_probability>  (158) 
1

>  <r_epik_Ionization_Penalty>  (158) 
7.92607e-07

>  <r_epik_Ionization_Penalty_Charging>  (158) 
0

>  <r_epik_Ionization_Penalty_Neutral>  (158) 
7.92607e-07

>  <r_epik_State_Penalty>  (158) 
-0

>  <r_epik_Charging_Adjusted_Penalty>  (158) 
0

>  <i_epik_Tot_Q>  (158) 
0

>  <i_epik_Tot_abs_Q>  (158) 
0

>  <s_epik_Chemistry_Notes>  (158) 
This compound has an ester and may undergo hydrolysis at high or low pH.

>  <s_lp_Force_Field>  (158) 
OPLS3e

>  <r_lp_Energy>  (158) 
22.6481

>  <b_lp_Chiralities_Consistent>  (158) 
1

>  <s_lp_Variant>  (158) 
48:0-1

>  <s_i_glide_gridfile>  (158) 
pfpi4k_grid

>  <i_i_glide_lignum>  (158) 
30

>  <i_i_glide_rotatable_bonds>  (158) 
3

>  <r_i_docking_score>  (158) 
-3.3756

>  <r_i_glide_ligand_efficiency>  (158) 
-0.146765

>  <r_i_glide_ligand_efficiency_sa>  (158) 
-0.41738

>  <r_i_glide_ligand_efficiency_ln>  (158) 
-0.81625

>  <r_i_glide_gscore>  (158) 
-3.3756

>  <r_i_glide_lipo>  (158) 
-0.426425

>  <r_i_glide_hbond>  (158) 
-0.00913373

>  <r_i_glide_metal>  (158) 
-0

>  <r_i_glide_rewards>  (158) 
-1.48505

>  <r_i_glide_evdw>  (158) 
-16.5877

>  <r_i_glide_ecoul>  (158) 
-3.93422

>  <r_i_glide_erotb>  (158) 
0

>  <r_i_glide_esite>  (158) 
-0.0354667

>  <r_i_glide_emodel>  (158) 
-19.6747

>  <r_i_glide_energy>  (158) 
-20.5219

>  <r_i_glide_einternal>  (158) 
1.86571

>  <r_i_glide_intrahb_reward>  (158) 
-0

>  <i_i_glide_confnum>  (158) 
1

>  <i_i_glide_posenum>  (158) 
35

>  <r_i_glide_eff_state_penalty>  (158) 
0

>  <ligand_id>  (158) 
48

>  <original_smiles>  (158) 
C=C1C(=O)OC23C1CC(O)C1C(=C)C12C(O)CC(C)(C)C3C=O

>  <smiles>  (158) 
[H]OC1([H])C([H])([H])C2([H])C(=C([H])[H])C(=O)OC23C([H])(C([H])=O)C(C([H])([H])[H])(C([H])([H])[H])C([H])([H])C([H])(O[H])C32C(=C([H])[H])C12[H]

$$$$
48:0:2
     RDKit          3D

 45 48  0  0  1  0  0  0  0  0999 V2000
    8.7108   -1.4955    0.4629 C   0  0  0  0  0  0  0  0  0  0  0  0
    7.5956   -2.1715    0.2628 C   0  0  0  0  0  0  0  0  0  0  0  0
    7.5975   -3.4737   -0.3599 C   0  0  0  0  0  0  0  0  0  0  0  0
    8.6098   -4.1456   -0.6044 O   0  0  0  0  0  0  0  0  0  0  0  0
    6.3313   -3.7622   -0.6420 O   0  0  0  0  0  0  0  0  0  0  0  0
    5.3492   -2.7276   -0.4201 C   0  0  2  0  0  0  0  0  0  0  0  0
    6.1811   -1.7516    0.4920 C   0  0  1  0  0  0  0  0  0  0  0  0
    5.8496   -1.7448    2.0076 C   0  0  0  0  0  0  0  0  0  0  0  0
    4.3463   -1.6464    2.3254 C   0  0  1  0  0  0  0  0  0  0  0  0
    3.8224   -0.4061    1.8964 O   0  0  0  0  0  0  0  0  0  0  0  0
    3.5922   -2.7518    1.6501 C   0  0  2  0  0  0  0  0  0  0  0  0
    4.2695   -4.0617    1.5112 C   0  0  0  0  0  0  0  0  0  0  0  0
    4.6568   -5.2112    2.0847 C   0  0  0  0  0  0  0  0  0  0  0  0
    4.0850   -3.3152    0.2475 C   0  0  2  0  0  0  0  0  0  0  0  0
    3.2033   -4.0582   -0.7234 C   0  0  1  0  0  0  0  0  0  0  0  0
    1.9684   -4.3896   -0.1736 O   0  0  0  0  0  0  0  0  0  0  0  0
    2.8794   -3.3248   -2.0462 C   0  0  0  0  0  0  0  0  0  0  0  0
    4.1618   -2.9390   -2.7849 C   0  0  0  0  0  0  0  0  0  0  0  0
    4.9747   -4.1538   -3.2216 C   0  0  0  0  0  0  0  0  0  0  0  0
    3.7561   -2.2900   -4.1365 C   0  0  0  0  0  0  0  0  0  0  0  0
    5.0321   -2.0689   -1.8202 C   0  0  1  0  0  0  0  0  0  0  0  0
    4.3835   -0.7169   -1.7062 C   0  0  0  0  0  0  0  0  0  0  0  0
    4.3562    0.0393   -2.7002 O   0  0  0  0  0  0  0  0  0  0  0  0
    8.7114   -0.5160    0.8837 H   0  0  0  0  0  0  0  0  0  0  0  0
    9.6531   -1.9387    0.2027 H   0  0  0  0  0  0  0  0  0  0  0  0
    6.1290   -0.7167    0.1540 H   0  0  0  0  0  0  0  0  0  0  0  0
    6.2375   -2.6632    2.4575 H   0  0  0  0  0  0  0  0  0  0  0  0
    6.3791   -0.9144    2.4796 H   0  0  0  0  0  0  0  0  0  0  0  0
    4.2008   -1.7304    3.4099 H   0  0  0  0  0  0  0  0  0  0  0  0
    3.7168   -0.4374    0.9629 H   0  0  0  0  0  0  0  0  0  0  0  0
    2.5209   -2.7409    1.8552 H   0  0  0  0  0  0  0  0  0  0  0  0
    4.5365   -5.3813    3.1538 H   0  0  0  0  0  0  0  0  0  0  0  0
    5.0994   -6.0090    1.4853 H   0  0  0  0  0  0  0  0  0  0  0  0
    3.7154   -5.0062   -0.8662 H   0  0  0  0  0  0  0  0  0  0  0  0
    1.6716   -3.5917    0.2293 H   0  0  0  0  0  0  0  0  0  0  0  0
    2.2592   -3.9320   -2.7060 H   0  0  0  0  0  0  0  0  0  0  0  0
    2.2652   -2.4266   -1.8854 H   0  0  0  0  0  0  0  0  0  0  0  0
    5.9743   -3.8312   -3.5406 H   0  0  0  0  0  0  0  0  0  0  0  0
    4.4954   -4.7205   -4.0277 H   0  0  0  0  0  0  0  0  0  0  0  0
    5.0789   -4.8767   -2.4009 H   0  0  0  0  0  0  0  0  0  0  0  0
    4.6247   -1.8152   -4.5922 H   0  0  0  0  0  0  0  0  0  0  0  0
    2.9759   -1.5232   -4.0291 H   0  0  0  0  0  0  0  0  0  0  0  0
    3.3514   -3.0452   -4.8145 H   0  0  0  0  0  0  0  0  0  0  0  0
    5.9837   -1.8853   -2.3091 H   0  0  0  0  0  0  0  0  0  0  0  0
    3.9749   -0.4765   -0.7253 H   0  0  0  0  0  0  0  0  0  0  0  0
  1  2  2  0
  1 24  1  0
  1 25  1  0
  2  7  1  0
  2  3  1  0
  3  4  2  0
  3  5  1  0
  6  5  1  6
  6 14  1  0
  6 21  1  0
  6  7  1  0
  7  8  1  0
  7 26  1  6
  8  9  1  0
  8 27  1  0
  8 28  1  0
  9 10  1  0
  9 11  1  0
  9 29  1  1
 10 30  1  0
 11 14  1  0
 11 12  1  0
 11 31  1  6
 12 13  2  0
 14 12  1  1
 13 32  1  0
 13 33  1  0
 14 15  1  0
 15 16  1  0
 15 17  1  0
 15 34  1  6
 16 35  1  0
 17 18  1  0
 17 36  1  0
 17 37  1  0
 18 19  1  0
 18 20  1  0
 18 21  1  0
 19 38  1  0
 19 39  1  0
 19 40  1  0
 20 41  1  0
 20 42  1  0
 20 43  1  0
 21 22  1  0
 21 44  1  6
 22 23  2  0
 22 45  1  0
M  END
>  <i_m_ct_stereo_status>  (159) 
1

>  <s_m_source_file>  (159) 
/var/tmp/pbs.5076255.sched01/tmp06yssb5m/4267g10r58.sdf

>  <i_m_source_file_index>  (159) 
30

>  <i_lp_mmshare_version>  (159) 
48012

>  <i_f3d_flags>  (159) 
0

>  <s_epik_input>  (159) 
Tz1DKE8xKUMoPVtDSDJdKVtDQEBIXTJbQ0gyXVtDQEBIXShbT0hdKVtDSF0oQzM9W0NIMl0pQzMoW0NAXTEyNClbQ0BASF0oW09IXSlbQ0gyXUMoW0NIM10pKFtDSDNdKVtDQEhdNFtDSF09Tw==

>  <s_epik_cmdline>  (159) 
J2VwaWtfcHl0aG9uJywgJy1waHQnLCAnMi4wJywgJy1waCcsICc3LjAnLCAnLXRuJywgJzgnLCAnLW1hJywgJzIwMCcsICctaW1hZScsICc8aW5maWxlLm1hZT4nLCAnLW9tYWUnLCAnPG91dGZpbGUubWFlPic=

>  <r_lp_tautomer_probability>  (159) 
1

>  <r_epik_Ionization_Penalty>  (159) 
7.92607e-07

>  <r_epik_Ionization_Penalty_Charging>  (159) 
0

>  <r_epik_Ionization_Penalty_Neutral>  (159) 
7.92607e-07

>  <r_epik_State_Penalty>  (159) 
-0

>  <r_epik_Charging_Adjusted_Penalty>  (159) 
0

>  <i_epik_Tot_Q>  (159) 
0

>  <i_epik_Tot_abs_Q>  (159) 
0

>  <s_epik_Chemistry_Notes>  (159) 
This compound has an ester and may undergo hydrolysis at high or low pH.

>  <s_lp_Force_Field>  (159) 
OPLS3e

>  <r_lp_Energy>  (159) 
22.6481

>  <b_lp_Chiralities_Consistent>  (159) 
1

>  <s_lp_Variant>  (159) 
48:0-1

>  <s_i_glide_gridfile>  (159) 
pfpi4k_grid

>  <i_i_glide_lignum>  (159) 
30

>  <i_i_glide_rotatable_bonds>  (159) 
3

>  <r_i_docking_score>  (159) 
-3.23204

>  <r_i_glide_ligand_efficiency>  (159) 
-0.140524

>  <r_i_glide_ligand_efficiency_sa>  (159) 
-0.39963

>  <r_i_glide_ligand_efficiency_ln>  (159) 
-0.781537

>  <r_i_glide_gscore>  (159) 
-3.23204

>  <r_i_glide_lipo>  (159) 
-0.430016

>  <r_i_glide_hbond>  (159) 
-0.00624931

>  <r_i_glide_metal>  (159) 
-0

>  <r_i_glide_rewards>  (159) 
-1.48419

>  <r_i_glide_evdw>  (159) 
-15.8849

>  <r_i_glide_ecoul>  (159) 
-3.20155

>  <r_i_glide_erotb>  (159) 
0

>  <r_i_glide_esite>  (159) 
-0.0371047

>  <r_i_glide_emodel>  (159) 
-19.2298

>  <r_i_glide_energy>  (159) 
-19.0865

>  <r_i_glide_einternal>  (159) 
1.61576

>  <r_i_glide_intrahb_reward>  (159) 
-0

>  <i_i_glide_confnum>  (159) 
1

>  <i_i_glide_posenum>  (159) 
26

>  <r_i_glide_eff_state_penalty>  (159) 
0

>  <ligand_id>  (159) 
48

>  <original_smiles>  (159) 
C=C1C(=O)OC23C1CC(O)C1C(=C)C12C(O)CC(C)(C)C3C=O

>  <smiles>  (159) 
[H]OC1([H])C([H])([H])C2([H])C(=C([H])[H])C(=O)OC23C([H])(C([H])=O)C(C([H])([H])[H])(C([H])([H])[H])C([H])([H])C([H])(O[H])C32C(=C([H])[H])C12[H]

$$$$
48:1:0
     RDKit          3D

 45 48  0  0  1  0  0  0  0  0999 V2000
    3.1535   -1.3742   -2.5169 C   0  0  0  0  0  0  0  0  0  0  0  0
    3.6982   -2.3020   -1.7175 C   0  0  0  0  0  0  0  0  0  0  0  0
    4.4186   -3.4533   -2.2448 C   0  0  0  0  0  0  0  0  0  0  0  0
    4.6628   -3.6603   -3.4245 O   0  0  0  0  0  0  0  0  0  0  0  0
    4.7776   -4.2197   -1.1991 O   0  0  0  0  0  0  0  0  0  0  0  0
    4.2905   -3.8300    0.0927 C   0  0  2  0  0  0  0  0  0  0  0  0
    3.6113   -2.4296   -0.2163 C   0  0  1  0  0  0  0  0  0  0  0  0
    4.2048   -1.1824    0.5496 C   0  0  0  0  0  0  0  0  0  0  0  0
    5.7579   -1.1162    0.6632 C   0  0  1  0  0  0  0  0  0  0  0  0
    6.1791   -0.6632    1.9252 O   0  0  0  0  0  0  0  0  0  0  0  0
    6.3698   -2.4163    0.2134 C   0  0  1  0  0  0  0  0  0  0  0  0
    6.9304   -3.6288    0.7775 C   0  0  0  0  0  0  0  0  0  0  0  0
    8.0641   -4.3251    0.9908 C   0  0  0  0  0  0  0  0  0  0  0  0
    5.4931   -3.5598    1.0167 C   0  0  2  0  0  0  0  0  0  0  0  0
    5.2424   -3.7624    2.5242 C   0  0  1  0  0  0  0  0  0  0  0  0
    4.6602   -2.6999    3.2652 O   0  0  0  0  0  0  0  0  0  0  0  0
    4.4311   -5.0210    2.8282 C   0  0  0  0  0  0  0  0  0  0  0  0
    3.0681   -5.1057    2.1026 C   0  0  0  0  0  0  0  0  0  0  0  0
    2.4851   -6.4887    2.5255 C   0  0  0  0  0  0  0  0  0  0  0  0
    2.1135   -4.0101    2.6459 C   0  0  0  0  0  0  0  0  0  0  0  0
    3.3050   -4.9747    0.5567 C   0  0  1  0  0  0  0  0  0  0  0  0
    2.0334   -5.0462   -0.3166 C   0  0  0  0  0  0  0  0  0  0  0  0
    1.0979   -5.8338   -0.1211 O   0  0  0  0  0  0  0  0  0  0  0  0
    2.5795   -0.5659   -2.1039 H   0  0  0  0  0  0  0  0  0  0  0  0
    3.2293   -1.4217   -3.5896 H   0  0  0  0  0  0  0  0  0  0  0  0
    2.5507   -2.4591    0.0409 H   0  0  0  0  0  0  0  0  0  0  0  0
    3.8494   -0.2657    0.0713 H   0  0  0  0  0  0  0  0  0  0  0  0
    3.7376   -1.1342    1.5371 H   0  0  0  0  0  0  0  0  0  0  0  0
    6.0904   -0.3655   -0.0536 H   0  0  0  0  0  0  0  0  0  0  0  0
    6.9611   -0.1319    1.8258 H   0  0  0  0  0  0  0  0  0  0  0  0
    6.4551   -2.4186   -0.8663 H   0  0  0  0  0  0  0  0  0  0  0  0
    9.0207   -3.9449    0.6354 H   0  0  0  0  0  0  0  0  0  0  0  0
    8.0568   -5.2711    1.5410 H   0  0  0  0  0  0  0  0  0  0  0  0
    6.2077   -3.9176    3.0097 H   0  0  0  0  0  0  0  0  0  0  0  0
    3.8783   -2.4269    2.8326 H   0  0  0  0  0  0  0  0  0  0  0  0
    5.0417   -5.8748    2.5168 H   0  0  0  0  0  0  0  0  0  0  0  0
    4.3109   -5.1297    3.9084 H   0  0  0  0  0  0  0  0  0  0  0  0
    1.4563   -6.6614    2.2129 H   0  0  0  0  0  0  0  0  0  0  0  0
    2.4892   -6.5995    3.6150 H   0  0  0  0  0  0  0  0  0  0  0  0
    3.1042   -7.2901    2.1085 H   0  0  0  0  0  0  0  0  0  0  0  0
    1.0896   -4.2259    2.3591 H   0  0  0  0  0  0  0  0  0  0  0  0
    2.3604   -3.0168    2.2571 H   0  0  0  0  0  0  0  0  0  0  0  0
    2.1242   -3.9583    3.7404 H   0  0  0  0  0  0  0  0  0  0  0  0
    3.8520   -5.8841    0.3130 H   0  0  0  0  0  0  0  0  0  0  0  0
    2.0525   -4.3979   -1.2076 H   0  0  0  0  0  0  0  0  0  0  0  0
  1  2  2  0
  1 24  1  0
  1 25  1  0
  2  7  1  0
  2  3  1  0
  3  4  2  0
  3  5  1  0
  6  5  1  6
  6 14  1  0
  6 21  1  0
  6  7  1  0
  7  8  1  0
  7 26  1  6
  8  9  1  0
  8 27  1  0
  8 28  1  0
  9 10  1  0
  9 11  1  0
  9 29  1  6
 10 30  1  0
 11 14  1  0
 11 12  1  0
 11 31  1  6
 12 13  2  0
 14 12  1  6
 13 32  1  0
 13 33  1  0
 14 15  1  0
 15 16  1  0
 15 17  1  0
 15 34  1  1
 16 35  1  0
 17 18  1  0
 17 36  1  0
 17 37  1  0
 18 19  1  0
 18 20  1  0
 18 21  1  0
 19 38  1  0
 19 39  1  0
 19 40  1  0
 20 41  1  0
 20 42  1  0
 20 43  1  0
 21 22  1  0
 21 44  1  6
 22 23  2  0
 22 45  1  0
M  END
>  <i_m_ct_stereo_status>  (160) 
1

>  <s_m_source_file>  (160) 
/var/tmp/pbs.5076255.sched01/tmp06yssb5m/4267g10r58.sdf

>  <i_m_source_file_index>  (160) 
31

>  <i_lp_mmshare_version>  (160) 
48012

>  <i_f3d_flags>  (160) 
0

>  <s_epik_input>  (160) 
Tz1DKE8xKUMoPVtDSDJdKVtDQEBIXTJbQ0gyXVtDQEBIXShbT0hdKVtDSF0oQzM9W0NIMl0pQzMoW0NAXTEyNClbQ0BASF0oW09IXSlbQ0gyXUMoW0NIM10pKFtDSDNdKVtDQEhdNFtDSF09Tw==

>  <s_epik_cmdline>  (160) 
J2VwaWtfcHl0aG9uJywgJy1waHQnLCAnMi4wJywgJy1waCcsICc3LjAnLCAnLXRuJywgJzgnLCAnLW1hJywgJzIwMCcsICctaW1hZScsICc8aW5maWxlLm1hZT4nLCAnLW9tYWUnLCAnPG91dGZpbGUubWFlPic=

>  <r_lp_tautomer_probability>  (160) 
1

>  <r_epik_Ionization_Penalty>  (160) 
7.92607e-07

>  <r_epik_Ionization_Penalty_Charging>  (160) 
0

>  <r_epik_Ionization_Penalty_Neutral>  (160) 
7.92607e-07

>  <r_epik_State_Penalty>  (160) 
-0

>  <r_epik_Charging_Adjusted_Penalty>  (160) 
0

>  <i_epik_Tot_Q>  (160) 
0

>  <i_epik_Tot_abs_Q>  (160) 
0

>  <s_epik_Chemistry_Notes>  (160) 
This compound has an ester and may undergo hydrolysis at high or low pH.

>  <s_lp_Force_Field>  (160) 
OPLS3e

>  <r_lp_Energy>  (160) 
52.0941

>  <b_lp_Chiralities_Consistent>  (160) 
1

>  <s_lp_Variant>  (160) 
48:0-2

>  <s_i_glide_gridfile>  (160) 
pfpi4k_grid

>  <i_i_glide_lignum>  (160) 
31

>  <i_i_glide_rotatable_bonds>  (160) 
3

>  <r_i_docking_score>  (160) 
-4.62426

>  <r_i_glide_ligand_efficiency>  (160) 
-0.201055

>  <r_i_glide_ligand_efficiency_sa>  (160) 
-0.571774

>  <r_i_glide_ligand_efficiency_ln>  (160) 
-1.11819

>  <r_i_glide_gscore>  (160) 
-4.62426

>  <r_i_glide_lipo>  (160) 
-0.526226

>  <r_i_glide_hbond>  (160) 
-0.444391

>  <r_i_glide_metal>  (160) 
-0

>  <r_i_glide_rewards>  (160) 
-1.23843

>  <r_i_glide_evdw>  (160) 
-18.0507

>  <r_i_glide_ecoul>  (160) 
-9.40289

>  <r_i_glide_erotb>  (160) 
0

>  <r_i_glide_esite>  (160) 
-0.102253

>  <r_i_glide_emodel>  (160) 
-34.225

>  <r_i_glide_energy>  (160) 
-27.4536

>  <r_i_glide_einternal>  (160) 
1.55435

>  <r_i_glide_intrahb_reward>  (160) 
-0

>  <i_i_glide_confnum>  (160) 
1

>  <i_i_glide_posenum>  (160) 
37

>  <r_i_glide_eff_state_penalty>  (160) 
0

>  <ligand_id>  (160) 
48

>  <original_smiles>  (160) 
C=C1C(=O)OC23C1CC(O)C1C(=C)C12C(O)CC(C)(C)C3C=O

>  <smiles>  (160) 
[H]OC1([H])C([H])([H])C2([H])C(=C([H])[H])C(=O)OC23C([H])(C([H])=O)C(C([H])([H])[H])(C([H])([H])[H])C([H])([H])C([H])(O[H])C32C(=C([H])[H])C12[H]

$$$$
48:1:1
     RDKit          3D

 45 48  0  0  1  0  0  0  0  0999 V2000
    3.2056   -1.3676   -2.3646 C   0  0  0  0  0  0  0  0  0  0  0  0
    3.7325   -2.3149   -1.5865 C   0  0  0  0  0  0  0  0  0  0  0  0
    4.4444   -3.4521   -2.1483 C   0  0  0  0  0  0  0  0  0  0  0  0
    4.6849   -3.6279   -3.3323 O   0  0  0  0  0  0  0  0  0  0  0  0
    4.7693   -4.2642   -1.1236 O   0  0  0  0  0  0  0  0  0  0  0  0
    4.2642   -3.9033    0.1720 C   0  0  2  0  0  0  0  0  0  0  0  0
    3.6149   -2.4880   -0.0906 C   0  0  1  0  0  0  0  0  0  0  0  0
    4.2105   -1.2789    0.7167 C   0  0  0  0  0  0  0  0  0  0  0  0
    5.7644   -1.2369    0.8602 C   0  0  1  0  0  0  0  0  0  0  0  0
    6.1732   -0.8836    2.1642 O   0  0  0  0  0  0  0  0  0  0  0  0
    6.3624   -2.5295    0.3651 C   0  0  1  0  0  0  0  0  0  0  0  0
    6.9092   -3.7739    0.8894 C   0  0  0  0  0  0  0  0  0  0  0  0
    8.0210   -4.4921    1.0903 C   0  0  0  0  0  0  0  0  0  0  0  0
    5.4648   -3.6850    1.1143 C   0  0  2  0  0  0  0  0  0  0  0  0
    5.1967   -3.9229    2.6076 C   0  0  1  0  0  0  0  0  0  0  0  0
    4.6919   -2.8260    3.3583 O   0  0  0  0  0  0  0  0  0  0  0  0
    4.3536   -5.1736    2.8812 C   0  0  0  0  0  0  0  0  0  0  0  0
    2.9998   -5.2292    2.1399 C   0  0  0  0  0  0  0  0  0  0  0  0
    2.4051   -6.6233    2.5126 C   0  0  0  0  0  0  0  0  0  0  0  0
    2.0587   -4.1462    2.7070 C   0  0  0  0  0  0  0  0  0  0  0  0
    3.2613   -5.0513    0.5920 C   0  0  1  0  0  0  0  0  0  0  0  0
    2.0139   -5.0809   -0.3272 C   0  0  0  0  0  0  0  0  0  0  0  0
    1.0657   -5.8445   -0.1565 O   0  0  0  0  0  0  0  0  0  0  0  0
    2.6157   -0.5922   -1.9195 H   0  0  0  0  0  0  0  0  0  0  0  0
    3.2894   -1.3744   -3.4443 H   0  0  0  0  0  0  0  0  0  0  0  0
    2.5561   -2.5162    0.1413 H   0  0  0  0  0  0  0  0  0  0  0  0
    3.8838   -0.3434    0.2685 H   0  0  0  0  0  0  0  0  0  0  0  0
    3.7229   -1.2551    1.6902 H   0  0  0  0  0  0  0  0  0  0  0  0
    6.1364   -0.4640    0.1815 H   0  0  0  0  0  0  0  0  0  0  0  0
    5.7831   -1.5192    2.7469 H   0  0  0  0  0  0  0  0  0  0  0  0
    6.4534   -2.4845   -0.7113 H   0  0  0  0  0  0  0  0  0  0  0  0
    8.9716   -4.1077    0.7615 H   0  0  0  0  0  0  0  0  0  0  0  0
    7.9880   -5.4410    1.6060 H   0  0  0  0  0  0  0  0  0  0  0  0
    6.1543   -4.1367    3.0940 H   0  0  0  0  0  0  0  0  0  0  0  0
    4.5528   -3.1030    4.2350 H   0  0  0  0  0  0  0  0  0  0  0  0
    4.9527   -6.0228    2.5444 H   0  0  0  0  0  0  0  0  0  0  0  0
    4.2233   -5.3271    3.9521 H   0  0  0  0  0  0  0  0  0  0  0  0
    1.3733   -6.7846    2.2028 H   0  0  0  0  0  0  0  0  0  0  0  0
    2.4075   -6.7676    3.5967 H   0  0  0  0  0  0  0  0  0  0  0  0
    3.0153   -7.4188    2.0719 H   0  0  0  0  0  0  0  0  0  0  0  0
    1.0352   -4.3313    2.4034 H   0  0  0  0  0  0  0  0  0  0  0  0
    2.3425   -3.1506    2.3595 H   0  0  0  0  0  0  0  0  0  0  0  0
    2.0610   -4.1334    3.7965 H   0  0  0  0  0  0  0  0  0  0  0  0
    3.7938   -5.9632    0.3218 H   0  0  0  0  0  0  0  0  0  0  0  0
    2.0552   -4.4192   -1.1942 H   0  0  0  0  0  0  0  0  0  0  0  0
  1  2  2  0
  1 24  1  0
  1 25  1  0
  2  7  1  0
  2  3  1  0
  3  4  2  0
  3  5  1  0
  6  5  1  6
  6 14  1  0
  6 21  1  0
  6  7  1  0
  7  8  1  0
  7 26  1  6
  8  9  1  0
  8 27  1  0
  8 28  1  0
  9 10  1  0
  9 11  1  0
  9 29  1  6
 10 30  1  0
 11 14  1  0
 11 12  1  0
 11 31  1  6
 12 13  2  0
 14 12  1  6
 13 32  1  0
 13 33  1  0
 14 15  1  0
 15 16  1  0
 15 17  1  0
 15 34  1  1
 16 35  1  0
 17 18  1  0
 17 36  1  0
 17 37  1  0
 18 19  1  0
 18 20  1  0
 18 21  1  0
 19 38  1  0
 19 39  1  0
 19 40  1  0
 20 41  1  0
 20 42  1  0
 20 43  1  0
 21 22  1  0
 21 44  1  6
 22 23  2  0
 22 45  1  0
M  END
>  <i_m_ct_stereo_status>  (161) 
1

>  <s_m_source_file>  (161) 
/var/tmp/pbs.5076255.sched01/tmp06yssb5m/4267g10r58.sdf

>  <i_m_source_file_index>  (161) 
31

>  <i_lp_mmshare_version>  (161) 
48012

>  <i_f3d_flags>  (161) 
0

>  <s_epik_input>  (161) 
Tz1DKE8xKUMoPVtDSDJdKVtDQEBIXTJbQ0gyXVtDQEBIXShbT0hdKVtDSF0oQzM9W0NIMl0pQzMoW0NAXTEyNClbQ0BASF0oW09IXSlbQ0gyXUMoW0NIM10pKFtDSDNdKVtDQEhdNFtDSF09Tw==

>  <s_epik_cmdline>  (161) 
J2VwaWtfcHl0aG9uJywgJy1waHQnLCAnMi4wJywgJy1waCcsICc3LjAnLCAnLXRuJywgJzgnLCAnLW1hJywgJzIwMCcsICctaW1hZScsICc8aW5maWxlLm1hZT4nLCAnLW9tYWUnLCAnPG91dGZpbGUubWFlPic=

>  <r_lp_tautomer_probability>  (161) 
1

>  <r_epik_Ionization_Penalty>  (161) 
7.92607e-07

>  <r_epik_Ionization_Penalty_Charging>  (161) 
0

>  <r_epik_Ionization_Penalty_Neutral>  (161) 
7.92607e-07

>  <r_epik_State_Penalty>  (161) 
-0

>  <r_epik_Charging_Adjusted_Penalty>  (161) 
0

>  <i_epik_Tot_Q>  (161) 
0

>  <i_epik_Tot_abs_Q>  (161) 
0

>  <s_epik_Chemistry_Notes>  (161) 
This compound has an ester and may undergo hydrolysis at high or low pH.

>  <s_lp_Force_Field>  (161) 
OPLS3e

>  <r_lp_Energy>  (161) 
52.0941

>  <b_lp_Chiralities_Consistent>  (161) 
1

>  <s_lp_Variant>  (161) 
48:0-2

>  <s_i_glide_gridfile>  (161) 
pfpi4k_grid

>  <i_i_glide_lignum>  (161) 
31

>  <i_i_glide_rotatable_bonds>  (161) 
3

>  <r_i_docking_score>  (161) 
-4.49859

>  <r_i_glide_ligand_efficiency>  (161) 
-0.195591

>  <r_i_glide_ligand_efficiency_sa>  (161) 
-0.556235

>  <r_i_glide_ligand_efficiency_ln>  (161) 
-1.0878

>  <r_i_glide_gscore>  (161) 
-4.49859

>  <r_i_glide_lipo>  (161) 
-0.550124

>  <r_i_glide_hbond>  (161) 
-0.467507

>  <r_i_glide_metal>  (161) 
-0

>  <r_i_glide_rewards>  (161) 
-1.73843

>  <r_i_glide_evdw>  (161) 
-17.7884

>  <r_i_glide_ecoul>  (161) 
-5.00549

>  <r_i_glide_erotb>  (161) 
0

>  <r_i_glide_esite>  (161) 
-0.102295

>  <r_i_glide_emodel>  (161) 
-34.9662

>  <r_i_glide_energy>  (161) 
-22.7939

>  <r_i_glide_einternal>  (161) 
0.886649

>  <r_i_glide_intrahb_reward>  (161) 
-0.5

>  <i_i_glide_confnum>  (161) 
1

>  <i_i_glide_posenum>  (161) 
2

>  <r_i_glide_eff_state_penalty>  (161) 
0

>  <ligand_id>  (161) 
48

>  <original_smiles>  (161) 
C=C1C(=O)OC23C1CC(O)C1C(=C)C12C(O)CC(C)(C)C3C=O

>  <smiles>  (161) 
[H]OC1([H])C([H])([H])C2([H])C(=C([H])[H])C(=O)OC23C([H])(C([H])=O)C(C([H])([H])[H])(C([H])([H])[H])C([H])([H])C([H])(O[H])C32C(=C([H])[H])C12[H]

$$$$
48:1:2
     RDKit          3D

 45 48  0  0  1  0  0  0  0  0999 V2000
    3.4716   -6.8882    0.8947 C   0  0  0  0  0  0  0  0  0  0  0  0
    3.5552   -5.5558    0.8010 C   0  0  0  0  0  0  0  0  0  0  0  0
    2.6740   -4.6571    1.5140 C   0  0  0  0  0  0  0  0  0  0  0  0
    1.7847   -4.9815    2.2946 O   0  0  0  0  0  0  0  0  0  0  0  0
    2.9798   -3.3940    1.1587 O   0  0  0  0  0  0  0  0  0  0  0  0
    3.9772   -3.2571    0.1353 C   0  0  2  0  0  0  0  0  0  0  0  0
    4.4707   -4.7374   -0.0646 C   0  0  1  0  0  0  0  0  0  0  0  0
    5.9811   -5.0160    0.2395 C   0  0  0  0  0  0  0  0  0  0  0  0
    6.6034   -4.3060    1.4711 C   0  0  1  0  0  0  0  0  0  0  0  0
    7.9107   -3.8586    1.1868 O   0  0  0  0  0  0  0  0  0  0  0  0
    5.6382   -3.2744    2.0149 C   0  0  1  0  0  0  0  0  0  0  0  0
    5.4064   -1.8396    2.0023 C   0  0  0  0  0  0  0  0  0  0  0  0
    5.4266   -0.7096    2.7176 C   0  0  0  0  0  0  0  0  0  0  0  0
    5.1605   -2.4460    0.6975 C   0  0  2  0  0  0  0  0  0  0  0  0
    6.0032   -1.6610   -0.3428 C   0  0  1  0  0  0  0  0  0  0  0  0
    7.0461   -2.3488   -0.9957 O   0  0  0  0  0  0  0  0  0  0  0  0
    5.1330   -0.9771   -1.3977 C   0  0  0  0  0  0  0  0  0  0  0  0
    4.1701   -1.8963   -2.1614 C   0  0  0  0  0  0  0  0  0  0  0  0
    3.3412   -0.9724   -3.0970 C   0  0  0  0  0  0  0  0  0  0  0  0
    4.9276   -2.9111   -3.0467 C   0  0  0  0  0  0  0  0  0  0  0  0
    3.2529   -2.5918   -1.1112 C   0  0  1  0  0  0  0  0  0  0  0  0
    2.1979   -3.4593   -1.8213 C   0  0  0  0  0  0  0  0  0  0  0  0
    1.4158   -4.1581   -1.1888 O   0  0  0  0  0  0  0  0  0  0  0  0
    4.1197   -7.5503    0.3333 H   0  0  0  0  0  0  0  0  0  0  0  0
    2.7237   -7.3470    1.5217 H   0  0  0  0  0  0  0  0  0  0  0  0
    4.2908   -5.0591   -1.0897 H   0  0  0  0  0  0  0  0  0  0  0  0
    6.1687   -6.0847    0.3137 H   0  0  0  0  0  0  0  0  0  0  0  0
    6.5183   -4.6885   -0.6430 H   0  0  0  0  0  0  0  0  0  0  0  0
    6.6965   -5.0492    2.2659 H   0  0  0  0  0  0  0  0  0  0  0  0
    7.8480   -3.1400    0.5636 H   0  0  0  0  0  0  0  0  0  0  0  0
    4.9170   -3.7734    2.6538 H   0  0  0  0  0  0  0  0  0  0  0  0
    5.7172   -0.7211    3.7644 H   0  0  0  0  0  0  0  0  0  0  0  0
    5.1583    0.2389    2.2639 H   0  0  0  0  0  0  0  0  0  0  0  0
    6.5247   -0.8579    0.1745 H   0  0  0  0  0  0  0  0  0  0  0  0
    6.6639   -3.0889   -1.4538 H   0  0  0  0  0  0  0  0  0  0  0  0
    4.5328   -0.2371   -0.8668 H   0  0  0  0  0  0  0  0  0  0  0  0
    5.7488   -0.4077   -2.0953 H   0  0  0  0  0  0  0  0  0  0  0  0
    2.6550   -1.5188   -3.7435 H   0  0  0  0  0  0  0  0  0  0  0  0
    3.9806   -0.3728   -3.7504 H   0  0  0  0  0  0  0  0  0  0  0  0
    2.7284   -0.2794   -2.5177 H   0  0  0  0  0  0  0  0  0  0  0  0
    4.2785   -3.3935   -3.7826 H   0  0  0  0  0  0  0  0  0  0  0  0
    5.4101   -3.6962   -2.4753 H   0  0  0  0  0  0  0  0  0  0  0  0
    5.7165   -2.3871   -3.5793 H   0  0  0  0  0  0  0  0  0  0  0  0
    2.6790   -1.7822   -0.6653 H   0  0  0  0  0  0  0  0  0  0  0  0
    2.1959   -3.4127   -2.9149 H   0  0  0  0  0  0  0  0  0  0  0  0
  1  2  2  0
  1 24  1  0
  1 25  1  0
  2  7  1  0
  2  3  1  0
  3  4  2  0
  3  5  1  0
  6  5  1  1
  6 14  1  0
  6 21  1  0
  6  7  1  0
  7  8  1  0
  7 26  1  6
  8  9  1  0
  8 27  1  0
  8 28  1  0
  9 10  1  0
  9 11  1  0
  9 29  1  1
 10 30  1  0
 11 14  1  0
 11 12  1  0
 11 31  1  1
 12 13  2  0
 14 12  1  1
 13 32  1  0
 13 33  1  0
 14 15  1  0
 15 16  1  0
 15 17  1  0
 15 34  1  1
 16 35  1  0
 17 18  1  0
 17 36  1  0
 17 37  1  0
 18 19  1  0
 18 20  1  0
 18 21  1  0
 19 38  1  0
 19 39  1  0
 19 40  1  0
 20 41  1  0
 20 42  1  0
 20 43  1  0
 21 22  1  0
 21 44  1  1
 22 23  2  0
 22 45  1  0
M  END
>  <i_m_ct_stereo_status>  (162) 
1

>  <s_m_source_file>  (162) 
/var/tmp/pbs.5076255.sched01/tmp06yssb5m/4267g10r58.sdf

>  <i_m_source_file_index>  (162) 
31

>  <i_lp_mmshare_version>  (162) 
48012

>  <i_f3d_flags>  (162) 
0

>  <s_epik_input>  (162) 
Tz1DKE8xKUMoPVtDSDJdKVtDQEBIXTJbQ0gyXVtDQEBIXShbT0hdKVtDSF0oQzM9W0NIMl0pQzMoW0NAXTEyNClbQ0BASF0oW09IXSlbQ0gyXUMoW0NIM10pKFtDSDNdKVtDQEhdNFtDSF09Tw==

>  <s_epik_cmdline>  (162) 
J2VwaWtfcHl0aG9uJywgJy1waHQnLCAnMi4wJywgJy1waCcsICc3LjAnLCAnLXRuJywgJzgnLCAnLW1hJywgJzIwMCcsICctaW1hZScsICc8aW5maWxlLm1hZT4nLCAnLW9tYWUnLCAnPG91dGZpbGUubWFlPic=

>  <r_lp_tautomer_probability>  (162) 
1

>  <r_epik_Ionization_Penalty>  (162) 
7.92607e-07

>  <r_epik_Ionization_Penalty_Charging>  (162) 
0

>  <r_epik_Ionization_Penalty_Neutral>  (162) 
7.92607e-07

>  <r_epik_State_Penalty>  (162) 
-0

>  <r_epik_Charging_Adjusted_Penalty>  (162) 
0

>  <i_epik_Tot_Q>  (162) 
0

>  <i_epik_Tot_abs_Q>  (162) 
0

>  <s_epik_Chemistry_Notes>  (162) 
This compound has an ester and may undergo hydrolysis at high or low pH.

>  <s_lp_Force_Field>  (162) 
OPLS3e

>  <r_lp_Energy>  (162) 
52.0941

>  <b_lp_Chiralities_Consistent>  (162) 
1

>  <s_lp_Variant>  (162) 
48:0-2

>  <s_i_glide_gridfile>  (162) 
pfpi4k_grid

>  <i_i_glide_lignum>  (162) 
31

>  <i_i_glide_rotatable_bonds>  (162) 
3

>  <r_i_docking_score>  (162) 
-4.35473

>  <r_i_glide_ligand_efficiency>  (162) 
-0.189336

>  <r_i_glide_ligand_efficiency_sa>  (162) 
-0.538446

>  <r_i_glide_ligand_efficiency_ln>  (162) 
-1.05301

>  <r_i_glide_gscore>  (162) 
-4.35473

>  <r_i_glide_lipo>  (162) 
-0.711977

>  <r_i_glide_hbond>  (162) 
-0.00702172

>  <r_i_glide_metal>  (162) 
-0

>  <r_i_glide_rewards>  (162) 
-1.95504

>  <r_i_glide_evdw>  (162) 
-22.3855

>  <r_i_glide_ecoul>  (162) 
-3.64533

>  <r_i_glide_erotb>  (162) 
0

>  <r_i_glide_esite>  (162) 
-0.0146217

>  <r_i_glide_emodel>  (162) 
-37.8057

>  <r_i_glide_energy>  (162) 
-26.0308

>  <r_i_glide_einternal>  (162) 
1.1347

>  <r_i_glide_intrahb_reward>  (162) 
-0.5

>  <i_i_glide_confnum>  (162) 
2

>  <i_i_glide_posenum>  (162) 
26

>  <r_i_glide_eff_state_penalty>  (162) 
0

>  <ligand_id>  (162) 
48

>  <original_smiles>  (162) 
C=C1C(=O)OC23C1CC(O)C1C(=C)C12C(O)CC(C)(C)C3C=O

>  <smiles>  (162) 
[H]OC1([H])C([H])([H])C2([H])C(=C([H])[H])C(=O)OC23C([H])(C([H])=O)C(C([H])([H])[H])(C([H])([H])[H])C([H])([H])C([H])(O[H])C32C(=C([H])[H])C12[H]

$$$$
48:2:0
     RDKit          3D

 45 48  0  0  1  0  0  0  0  0999 V2000
    6.8128   -6.8083    1.5702 C   0  0  0  0  0  0  0  0  0  0  0  0
    5.7801   -5.9478    1.6083 C   0  0  0  0  0  0  0  0  0  0  0  0
    4.5987   -6.0436    0.7732 C   0  0  0  0  0  0  0  0  0  0  0  0
    4.2154   -7.0214    0.1343 O   0  0  0  0  0  0  0  0  0  0  0  0
    3.9736   -4.8571    0.8682 O   0  0  0  0  0  0  0  0  0  0  0  0
    4.7878   -3.8057    1.4031 C   0  0  2  0  0  0  0  0  0  0  0  0
    5.6407   -4.6702    2.3839 C   0  0  1  0  0  0  0  0  0  0  0  0
    4.9180   -4.9993    3.7223 C   0  0  0  0  0  0  0  0  0  0  0  0
    4.3856   -3.7978    4.5177 C   0  0  1  0  0  0  0  0  0  0  0  0
    5.4153   -3.2157    5.2924 O   0  0  0  0  0  0  0  0  0  0  0  0
    3.6912   -2.7697    3.6467 C   0  0  1  0  0  0  0  0  0  0  0  0
    4.5622   -1.7500    3.0261 C   0  0  0  0  0  0  0  0  0  0  0  0
    5.2735   -0.6239    3.2026 C   0  0  0  0  0  0  0  0  0  0  0  0
    3.9438   -2.7099    2.0845 C   0  0  1  0  0  0  0  0  0  0  0  0
    2.9678   -2.0883    1.0904 C   0  0  1  0  0  0  0  0  0  0  0  0
    2.1206   -1.1155    1.6802 O   0  0  0  0  0  0  0  0  0  0  0  0
    3.7244   -1.4532   -0.0896 C   0  0  0  0  0  0  0  0  0  0  0  0
    4.6271   -2.4457   -0.8460 C   0  0  0  0  0  0  0  0  0  0  0  0
    3.7657   -3.4306   -1.6768 C   0  0  0  0  0  0  0  0  0  0  0  0
    5.4109   -1.6437   -1.9061 C   0  0  0  0  0  0  0  0  0  0  0  0
    5.5668   -3.2139    0.1671 C   0  0  1  0  0  0  0  0  0  0  0  0
    6.8145   -2.4249    0.6112 C   0  0  0  0  0  0  0  0  0  0  0  0
    7.7396   -2.1823   -0.1643 O   0  0  0  0  0  0  0  0  0  0  0  0
    7.6981   -6.6796    2.1721 H   0  0  0  0  0  0  0  0  0  0  0  0
    6.7837   -7.6628    0.9155 H   0  0  0  0  0  0  0  0  0  0  0  0
    6.6189   -4.2554    2.5815 H   0  0  0  0  0  0  0  0  0  0  0  0
    4.0603   -5.6445    3.5216 H   0  0  0  0  0  0  0  0  0  0  0  0
    5.5780   -5.5934    4.3567 H   0  0  0  0  0  0  0  0  0  0  0  0
    3.6443   -4.1617    5.2306 H   0  0  0  0  0  0  0  0  0  0  0  0
    5.7514   -3.8656    5.8895 H   0  0  0  0  0  0  0  0  0  0  0  0
    2.7030   -2.4756    3.9990 H   0  0  0  0  0  0  0  0  0  0  0  0
    5.4064   -0.2068    4.1914 H   0  0  0  0  0  0  0  0  0  0  0  0
    5.7166   -0.1062    2.3634 H   0  0  0  0  0  0  0  0  0  0  0  0
    2.3031   -2.8732    0.7333 H   0  0  0  0  0  0  0  0  0  0  0  0
    1.5263   -0.8166    0.9954 H   0  0  0  0  0  0  0  0  0  0  0  0
    3.0147   -1.0186   -0.7926 H   0  0  0  0  0  0  0  0  0  0  0  0
    4.3180   -0.6197    0.2835 H   0  0  0  0  0  0  0  0  0  0  0  0
    4.3796   -4.2238   -2.1111 H   0  0  0  0  0  0  0  0  0  0  0  0
    3.2481   -2.9274   -2.4960 H   0  0  0  0  0  0  0  0  0  0  0  0
    2.9797   -3.9138   -1.1009 H   0  0  0  0  0  0  0  0  0  0  0  0
    6.1528   -2.2743   -2.4050 H   0  0  0  0  0  0  0  0  0  0  0  0
    5.9235   -0.8026   -1.4410 H   0  0  0  0  0  0  0  0  0  0  0  0
    4.7640   -1.2104   -2.6736 H   0  0  0  0  0  0  0  0  0  0  0  0
    5.9921   -4.0474   -0.3884 H   0  0  0  0  0  0  0  0  0  0  0  0
    6.8448   -2.1398    1.6605 H   0  0  0  0  0  0  0  0  0  0  0  0
  1  2  2  0
  1 24  1  0
  1 25  1  0
  2  7  1  0
  2  3  1  0
  3  4  2  0
  3  5  1  0
  6  5  1  6
  6 14  1  0
  6 21  1  0
  6  7  1  0
  7  8  1  0
  7 26  1  1
  8  9  1  0
  8 27  1  0
  8 28  1  0
  9 10  1  0
  9 11  1  0
  9 29  1  1
 10 30  1  0
 11 14  1  0
 11 12  1  0
 11 31  1  6
 12 13  2  0
 14 12  1  1
 13 32  1  0
 13 33  1  0
 14 15  1  0
 15 16  1  0
 15 17  1  0
 15 34  1  6
 16 35  1  0
 17 18  1  0
 17 36  1  0
 17 37  1  0
 18 19  1  0
 18 20  1  0
 18 21  1  0
 19 38  1  0
 19 39  1  0
 19 40  1  0
 20 41  1  0
 20 42  1  0
 20 43  1  0
 21 22  1  0
 21 44  1  6
 22 23  2  0
 22 45  1  0
M  END
>  <i_m_ct_stereo_status>  (163) 
1

>  <s_m_source_file>  (163) 
/var/tmp/pbs.5076255.sched01/tmp06yssb5m/4267g10r58.sdf

>  <i_m_source_file_index>  (163) 
32

>  <i_lp_mmshare_version>  (163) 
48012

>  <i_f3d_flags>  (163) 
0

>  <s_epik_input>  (163) 
Tz1DKE8xKUMoPVtDSDJdKVtDQEBIXTJbQ0gyXVtDQEBIXShbT0hdKVtDSF0oQzM9W0NIMl0pQzMoW0NAXTEyNClbQ0BASF0oW09IXSlbQ0gyXUMoW0NIM10pKFtDSDNdKVtDQEhdNFtDSF09Tw==

>  <s_epik_cmdline>  (163) 
J2VwaWtfcHl0aG9uJywgJy1waHQnLCAnMi4wJywgJy1waCcsICc3LjAnLCAnLXRuJywgJzgnLCAnLW1hJywgJzIwMCcsICctaW1hZScsICc8aW5maWxlLm1hZT4nLCAnLW9tYWUnLCAnPG91dGZpbGUubWFlPic=

>  <r_lp_tautomer_probability>  (163) 
1

>  <r_epik_Ionization_Penalty>  (163) 
7.92607e-07

>  <r_epik_Ionization_Penalty_Charging>  (163) 
0

>  <r_epik_Ionization_Penalty_Neutral>  (163) 
7.92607e-07

>  <r_epik_State_Penalty>  (163) 
-0

>  <r_epik_Charging_Adjusted_Penalty>  (163) 
0

>  <i_epik_Tot_Q>  (163) 
0

>  <i_epik_Tot_abs_Q>  (163) 
0

>  <s_epik_Chemistry_Notes>  (163) 
This compound has an ester and may undergo hydrolysis at high or low pH.

>  <s_lp_Force_Field>  (163) 
OPLS3e

>  <r_lp_Energy>  (163) 
28.6262

>  <b_lp_Chiralities_Consistent>  (163) 
1

>  <s_lp_Variant>  (163) 
48:0-3

>  <s_i_glide_gridfile>  (163) 
pfpi4k_grid

>  <i_i_glide_lignum>  (163) 
32

>  <i_i_glide_rotatable_bonds>  (163) 
3

>  <r_i_docking_score>  (163) 
-3.83147

>  <r_i_glide_ligand_efficiency>  (163) 
-0.166586

>  <r_i_glide_ligand_efficiency_sa>  (163) 
-0.473747

>  <r_i_glide_ligand_efficiency_ln>  (163) 
-0.926484

>  <r_i_glide_gscore>  (163) 
-3.83147

>  <r_i_glide_lipo>  (163) 
-0.425678

>  <r_i_glide_hbond>  (163) 
-0.256223

>  <r_i_glide_metal>  (163) 
-0

>  <r_i_glide_rewards>  (163) 
-1.5059

>  <r_i_glide_evdw>  (163) 
-22.8164

>  <r_i_glide_ecoul>  (163) 
-3.35231

>  <r_i_glide_erotb>  (163) 
0

>  <r_i_glide_esite>  (163) 
0

>  <r_i_glide_emodel>  (163) 
-31.8043

>  <r_i_glide_energy>  (163) 
-26.1687

>  <r_i_glide_einternal>  (163) 
1.5617

>  <r_i_glide_intrahb_reward>  (163) 
-0

>  <i_i_glide_confnum>  (163) 
1

>  <i_i_glide_posenum>  (163) 
7

>  <r_i_glide_eff_state_penalty>  (163) 
0

>  <ligand_id>  (163) 
48

>  <original_smiles>  (163) 
C=C1C(=O)OC23C1CC(O)C1C(=C)C12C(O)CC(C)(C)C3C=O

>  <smiles>  (163) 
[H]OC1([H])C([H])([H])C2([H])C(=C([H])[H])C(=O)OC23C([H])(C([H])=O)C(C([H])([H])[H])(C([H])([H])[H])C([H])([H])C([H])(O[H])C32C(=C([H])[H])C12[H]

$$$$
48:2:1
     RDKit          3D

 45 48  0  0  1  0  0  0  0  0999 V2000
    3.7311   -7.5748    1.8302 C   0  0  0  0  0  0  0  0  0  0  0  0
    3.3713   -6.2785    1.8307 C   0  0  0  0  0  0  0  0  0  0  0  0
    2.1286   -5.7730    1.2748 C   0  0  0  0  0  0  0  0  0  0  0  0
    1.1043   -6.3961    0.9800 O   0  0  0  0  0  0  0  0  0  0  0  0
    2.2827   -4.4412    1.1868 O   0  0  0  0  0  0  0  0  0  0  0  0
    3.6410   -3.9917    1.2751 C   0  0  2  0  0  0  0  0  0  0  0  0
    4.1533   -5.0716    2.2782 C   0  0  1  0  0  0  0  0  0  0  0  0
    3.7723   -4.7807    3.7590 C   0  0  0  0  0  0  0  0  0  0  0  0
    4.1846   -3.4132    4.3158 C   0  0  1  0  0  0  0  0  0  0  0  0
    5.5235   -3.4615    4.7429 O   0  0  0  0  0  0  0  0  0  0  0  0
    3.9368   -2.2683    3.3444 C   0  0  1  0  0  0  0  0  0  0  0  0
    4.9849   -1.9920    2.3341 C   0  0  0  0  0  0  0  0  0  0  0  0
    6.1559   -1.3919    2.0771 C   0  0  0  0  0  0  0  0  0  0  0  0
    3.7249   -2.5421    1.8023 C   0  0  1  0  0  0  0  0  0  0  0  0
    2.9804   -1.5925    0.8758 C   0  0  1  0  0  0  0  0  0  0  0  0
    2.9722   -0.2551    1.3212 O   0  0  0  0  0  0  0  0  0  0  0  0
    3.5632   -1.6365   -0.5547 C   0  0  0  0  0  0  0  0  0  0  0  0
    3.5550   -3.0527   -1.1910 C   0  0  0  0  0  0  0  0  0  0  0  0
    2.0883   -3.4492   -1.5490 C   0  0  0  0  0  0  0  0  0  0  0  0
    4.3002   -2.9737   -2.5496 C   0  0  0  0  0  0  0  0  0  0  0  0
    4.2052   -4.0869   -0.1953 C   0  0  1  0  0  0  0  0  0  0  0  0
    5.7492   -4.1556   -0.2256 C   0  0  0  0  0  0  0  0  0  0  0  0
    6.4688   -3.1735   -0.4043 O   0  0  0  0  0  0  0  0  0  0  0  0
    4.6824   -7.9061    2.2158 H   0  0  0  0  0  0  0  0  0  0  0  0
    3.0681   -8.3277    1.4332 H   0  0  0  0  0  0  0  0  0  0  0  0
    5.2258   -5.2432    2.1972 H   0  0  0  0  0  0  0  0  0  0  0  0
    2.6904   -4.8441    3.8780 H   0  0  0  0  0  0  0  0  0  0  0  0
    4.1869   -5.5648    4.3987 H   0  0  0  0  0  0  0  0  0  0  0  0
    3.6014   -3.2038    5.2144 H   0  0  0  0  0  0  0  0  0  0  0  0
    6.0638   -3.5984    3.9747 H   0  0  0  0  0  0  0  0  0  0  0  0
    3.3918   -1.4326    3.7796 H   0  0  0  0  0  0  0  0  0  0  0  0
    6.7284   -0.9927    2.8813 H   0  0  0  0  0  0  0  0  0  0  0  0
    6.5498   -1.2583    1.0817 H   0  0  0  0  0  0  0  0  0  0  0  0
    1.9379   -1.8967    0.8897 H   0  0  0  0  0  0  0  0  0  0  0  0
    2.2910    0.1943    0.8349 H   0  0  0  0  0  0  0  0  0  0  0  0
    3.0159   -0.9525   -1.2015 H   0  0  0  0  0  0  0  0  0  0  0  0
    4.5778   -1.2394   -0.5186 H   0  0  0  0  0  0  0  0  0  0  0  0
    1.9321   -4.4820   -1.8448 H   0  0  0  0  0  0  0  0  0  0  0  0
    1.7077   -2.8250   -2.3619 H   0  0  0  0  0  0  0  0  0  0  0  0
    1.4130   -3.2778   -0.7227 H   0  0  0  0  0  0  0  0  0  0  0  0
    4.4041   -3.9665   -2.9931 H   0  0  0  0  0  0  0  0  0  0  0  0
    5.2952   -2.5341   -2.4632 H   0  0  0  0  0  0  0  0  0  0  0  0
    3.7642   -2.3397   -3.2590 H   0  0  0  0  0  0  0  0  0  0  0  0
    3.9242   -5.0619   -0.5811 H   0  0  0  0  0  0  0  0  0  0  0  0
    6.1403   -5.1640   -0.0849 H   0  0  0  0  0  0  0  0  0  0  0  0
  1  2  2  0
  1 24  1  0
  1 25  1  0
  2  7  1  0
  2  3  1  0
  3  4  2  0
  3  5  1  0
  6  5  1  6
  6 14  1  0
  6 21  1  0
  6  7  1  0
  7  8  1  0
  7 26  1  1
  8  9  1  0
  8 27  1  0
  8 28  1  0
  9 10  1  0
  9 11  1  0
  9 29  1  1
 10 30  1  0
 11 14  1  0
 11 12  1  0
 11 31  1  1
 12 13  2  0
 14 12  1  6
 13 32  1  0
 13 33  1  0
 14 15  1  0
 15 16  1  0
 15 17  1  0
 15 34  1  6
 16 35  1  0
 17 18  1  0
 17 36  1  0
 17 37  1  0
 18 19  1  0
 18 20  1  0
 18 21  1  0
 19 38  1  0
 19 39  1  0
 19 40  1  0
 20 41  1  0
 20 42  1  0
 20 43  1  0
 21 22  1  0
 21 44  1  6
 22 23  2  0
 22 45  1  0
M  END
>  <i_m_ct_stereo_status>  (164) 
1

>  <s_m_source_file>  (164) 
/var/tmp/pbs.5076255.sched01/tmp06yssb5m/4267g10r58.sdf

>  <i_m_source_file_index>  (164) 
32

>  <i_lp_mmshare_version>  (164) 
48012

>  <i_f3d_flags>  (164) 
0

>  <s_epik_input>  (164) 
Tz1DKE8xKUMoPVtDSDJdKVtDQEBIXTJbQ0gyXVtDQEBIXShbT0hdKVtDSF0oQzM9W0NIMl0pQzMoW0NAXTEyNClbQ0BASF0oW09IXSlbQ0gyXUMoW0NIM10pKFtDSDNdKVtDQEhdNFtDSF09Tw==

>  <s_epik_cmdline>  (164) 
J2VwaWtfcHl0aG9uJywgJy1waHQnLCAnMi4wJywgJy1waCcsICc3LjAnLCAnLXRuJywgJzgnLCAnLW1hJywgJzIwMCcsICctaW1hZScsICc8aW5maWxlLm1hZT4nLCAnLW9tYWUnLCAnPG91dGZpbGUubWFlPic=

>  <r_lp_tautomer_probability>  (164) 
1

>  <r_epik_Ionization_Penalty>  (164) 
7.92607e-07

>  <r_epik_Ionization_Penalty_Charging>  (164) 
0

>  <r_epik_Ionization_Penalty_Neutral>  (164) 
7.92607e-07

>  <r_epik_State_Penalty>  (164) 
-0

>  <r_epik_Charging_Adjusted_Penalty>  (164) 
0

>  <i_epik_Tot_Q>  (164) 
0

>  <i_epik_Tot_abs_Q>  (164) 
0

>  <s_epik_Chemistry_Notes>  (164) 
This compound has an ester and may undergo hydrolysis at high or low pH.

>  <s_lp_Force_Field>  (164) 
OPLS3e

>  <r_lp_Energy>  (164) 
28.6262

>  <b_lp_Chiralities_Consistent>  (164) 
1

>  <s_lp_Variant>  (164) 
48:0-3

>  <s_i_glide_gridfile>  (164) 
pfpi4k_grid

>  <i_i_glide_lignum>  (164) 
32

>  <i_i_glide_rotatable_bonds>  (164) 
3

>  <r_i_docking_score>  (164) 
-3.32577

>  <r_i_glide_ligand_efficiency>  (164) 
-0.144599

>  <r_i_glide_ligand_efficiency_sa>  (164) 
-0.41122

>  <r_i_glide_ligand_efficiency_ln>  (164) 
-0.804202

>  <r_i_glide_gscore>  (164) 
-3.32577

>  <r_i_glide_lipo>  (164) 
-0.4011

>  <r_i_glide_hbond>  (164) 
-0.125686

>  <r_i_glide_metal>  (164) 
-0

>  <r_i_glide_rewards>  (164) 
-1.31118

>  <r_i_glide_evdw>  (164) 
-18.39

>  <r_i_glide_ecoul>  (164) 
-3.54968

>  <r_i_glide_erotb>  (164) 
0

>  <r_i_glide_esite>  (164) 
-0.035856

>  <r_i_glide_emodel>  (164) 
-27.1385

>  <r_i_glide_energy>  (164) 
-21.9397

>  <r_i_glide_einternal>  (164) 
0.440879

>  <r_i_glide_intrahb_reward>  (164) 
-0

>  <i_i_glide_confnum>  (164) 
1

>  <i_i_glide_posenum>  (164) 
2

>  <r_i_glide_eff_state_penalty>  (164) 
0

>  <ligand_id>  (164) 
48

>  <original_smiles>  (164) 
C=C1C(=O)OC23C1CC(O)C1C(=C)C12C(O)CC(C)(C)C3C=O

>  <smiles>  (164) 
[H]OC1([H])C([H])([H])C2([H])C(=C([H])[H])C(=O)OC23C([H])(C([H])=O)C(C([H])([H])[H])(C([H])([H])[H])C([H])([H])C([H])(O[H])C32C(=C([H])[H])C12[H]

$$$$
48:2:2
     RDKit          3D

 45 48  0  0  1  0  0  0  0  0999 V2000
    8.2481   -1.4580    0.6432 C   0  0  0  0  0  0  0  0  0  0  0  0
    7.2425   -2.3584    0.5271 C   0  0  0  0  0  0  0  0  0  0  0  0
    7.2709   -3.4268   -0.4123 C   0  0  0  0  0  0  0  0  0  0  0  0
    8.2745   -3.8507   -1.0147 O   0  0  0  0  0  0  0  0  0  0  0  0
    5.9868   -3.8629   -0.5098 O   0  0  0  0  0  0  0  0  0  0  0  0
    5.0278   -2.9384    0.0419 C   0  0  2  0  0  0  0  0  0  0  0  0
    5.8982   -2.4043    1.1962 C   0  0  1  0  0  0  0  0  0  0  0  0
    5.8706   -3.3403    2.4186 C   0  0  0  0  0  0  0  0  0  0  0  0
    4.5712   -3.7750    3.0697 C   0  0  1  0  0  0  0  0  0  0  0  0
    4.1112   -2.7712    3.9497 O   0  0  0  0  0  0  0  0  0  0  0  0
    3.5368   -4.1344    2.0358 C   0  0  1  0  0  0  0  0  0  0  0  0
    2.7626   -3.0063    1.5015 C   0  0  0  0  0  0  0  0  0  0  0  0
    1.8042   -2.1069    1.7482 C   0  0  0  0  0  0  0  0  0  0  0  0
    3.7182   -3.6029    0.5381 C   0  0  1  0  0  0  0  0  0  0  0  0
    3.0624   -4.2947   -0.6242 C   0  0  1  0  0  0  0  0  0  0  0  0
    1.9139   -5.0300   -0.2858 O   0  0  0  0  0  0  0  0  0  0  0  0
    2.6953   -3.3226   -1.7514 C   0  0  0  0  0  0  0  0  0  0  0  0
    3.8976   -2.4948   -2.2780 C   0  0  0  0  0  0  0  0  0  0  0  0
    4.7948   -3.4097   -3.1537 C   0  0  0  0  0  0  0  0  0  0  0  0
    3.3590   -1.4106   -3.2380 C   0  0  0  0  0  0  0  0  0  0  0  0
    4.7364   -1.9108   -1.0719 C   0  0  1  0  0  0  0  0  0  0  0  0
    4.0268   -0.6692   -0.4154 C   0  0  0  0  0  0  0  0  0  0  0  0
    4.5947    0.0377    0.4215 O   0  0  0  0  0  0  0  0  0  0  0  0
    8.2047   -0.6395    1.3410 H   0  0  0  0  0  0  0  0  0  0  0  0
    9.1494   -1.5696    0.0811 H   0  0  0  0  0  0  0  0  0  0  0  0
    5.6236   -1.4592    1.6369 H   0  0  0  0  0  0  0  0  0  0  0  0
    6.4939   -4.2243    2.2339 H   0  0  0  0  0  0  0  0  0  0  0  0
    6.2364   -2.6677    3.1793 H   0  0  0  0  0  0  0  0  0  0  0  0
    4.7624   -4.6650    3.6783 H   0  0  0  0  0  0  0  0  0  0  0  0
    3.9630   -1.9679    3.4464 H   0  0  0  0  0  0  0  0  0  0  0  0
    3.0546   -5.1005    2.1809 H   0  0  0  0  0  0  0  0  0  0  0  0
    1.3195   -2.0417    2.7312 H   0  0  0  0  0  0  0  0  0  0  0  0
    1.5284   -1.4247    0.9411 H   0  0  0  0  0  0  0  0  0  0  0  0
    3.7910   -5.0153   -0.9808 H   0  0  0  0  0  0  0  0  0  0  0  0
    1.8402   -5.6922   -0.9771 H   0  0  0  0  0  0  0  0  0  0  0  0
    2.2195   -3.8639   -2.5842 H   0  0  0  0  0  0  0  0  0  0  0  0
    1.8992   -2.6869   -1.3642 H   0  0  0  0  0  0  0  0  0  0  0  0
    5.7263   -2.9041   -3.4274 H   0  0  0  0  0  0  0  0  0  0  0  0
    4.2933   -3.7092   -4.0842 H   0  0  0  0  0  0  0  0  0  0  0  0
    5.0745   -4.3540   -2.6741 H   0  0  0  0  0  0  0  0  0  0  0  0
    4.1511   -0.7453   -3.5724 H   0  0  0  0  0  0  0  0  0  0  0  0
    2.5811   -0.8106   -2.7756 H   0  0  0  0  0  0  0  0  0  0  0  0
    2.8929   -1.8649   -4.1198 H   0  0  0  0  0  0  0  0  0  0  0  0
    5.6668   -1.5489   -1.4745 H   0  0  0  0  0  0  0  0  0  0  0  0
    3.0283   -0.5744   -0.7668 H   0  0  0  0  0  0  0  0  0  0  0  0
  1  2  2  0
  1 24  1  0
  1 25  1  0
  2  7  1  0
  2  3  1  0
  3  4  2  0
  3  5  1  0
  6  5  1  6
  6 14  1  0
  6 21  1  0
  6  7  1  0
  7  8  1  0
  7 26  1  1
  8  9  1  0
  8 27  1  0
  8 28  1  0
  9 10  1  0
  9 11  1  0
  9 29  1  1
 10 30  1  0
 11 14  1  0
 11 12  1  0
 11 31  1  6
 12 13  2  0
 14 12  1  1
 13 32  1  0
 13 33  1  0
 14 15  1  0
 15 16  1  0
 15 17  1  0
 15 34  1  6
 16 35  1  0
 17 18  1  0
 17 36  1  0
 17 37  1  0
 18 19  1  0
 18 20  1  0
 18 21  1  0
 19 38  1  0
 19 39  1  0
 19 40  1  0
 20 41  1  0
 20 42  1  0
 20 43  1  0
 21 22  1  0
 21 44  1  6
 22 23  2  0
 22 45  1  0
M  END
>  <i_m_ct_stereo_status>  (165) 
1

>  <s_m_source_file>  (165) 
/var/tmp/pbs.5076255.sched01/tmp06yssb5m/4267g10r58.sdf

>  <i_m_source_file_index>  (165) 
32

>  <i_lp_mmshare_version>  (165) 
48012

>  <i_f3d_flags>  (165) 
0

>  <s_epik_input>  (165) 
Tz1DKE8xKUMoPVtDSDJdKVtDQEBIXTJbQ0gyXVtDQEBIXShbT0hdKVtDSF0oQzM9W0NIMl0pQzMoW0NAXTEyNClbQ0BASF0oW09IXSlbQ0gyXUMoW0NIM10pKFtDSDNdKVtDQEhdNFtDSF09Tw==

>  <s_epik_cmdline>  (165) 
J2VwaWtfcHl0aG9uJywgJy1waHQnLCAnMi4wJywgJy1waCcsICc3LjAnLCAnLXRuJywgJzgnLCAnLW1hJywgJzIwMCcsICctaW1hZScsICc8aW5maWxlLm1hZT4nLCAnLW9tYWUnLCAnPG91dGZpbGUubWFlPic=

>  <r_lp_tautomer_probability>  (165) 
1

>  <r_epik_Ionization_Penalty>  (165) 
7.92607e-07

>  <r_epik_Ionization_Penalty_Charging>  (165) 
0

>  <r_epik_Ionization_Penalty_Neutral>  (165) 
7.92607e-07

>  <r_epik_State_Penalty>  (165) 
-0

>  <r_epik_Charging_Adjusted_Penalty>  (165) 
0

>  <i_epik_Tot_Q>  (165) 
0

>  <i_epik_Tot_abs_Q>  (165) 
0

>  <s_epik_Chemistry_Notes>  (165) 
This compound has an ester and may undergo hydrolysis at high or low pH.

>  <s_lp_Force_Field>  (165) 
OPLS3e

>  <r_lp_Energy>  (165) 
28.6262

>  <b_lp_Chiralities_Consistent>  (165) 
1

>  <s_lp_Variant>  (165) 
48:0-3

>  <s_i_glide_gridfile>  (165) 
pfpi4k_grid

>  <i_i_glide_lignum>  (165) 
32

>  <i_i_glide_rotatable_bonds>  (165) 
3

>  <r_i_docking_score>  (165) 
-3.31871

>  <r_i_glide_ligand_efficiency>  (165) 
-0.144292

>  <r_i_glide_ligand_efficiency_sa>  (165) 
-0.410347

>  <r_i_glide_ligand_efficiency_ln>  (165) 
-0.802495

>  <r_i_glide_gscore>  (165) 
-3.31871

>  <r_i_glide_lipo>  (165) 
-0.640645

>  <r_i_glide_hbond>  (165) 
-0.251286

>  <r_i_glide_metal>  (165) 
-0

>  <r_i_glide_rewards>  (165) 
-1.46472

>  <r_i_glide_evdw>  (165) 
-4.24579

>  <r_i_glide_ecoul>  (165) 
-4.83425

>  <r_i_glide_erotb>  (165) 
0

>  <r_i_glide_esite>  (165) 
-0.0246406

>  <r_i_glide_emodel>  (165) 
-10.855

>  <r_i_glide_energy>  (165) 
-9.08004

>  <r_i_glide_einternal>  (165) 
3.01336

>  <r_i_glide_intrahb_reward>  (165) 
-0

>  <i_i_glide_confnum>  (165) 
1

>  <i_i_glide_posenum>  (165) 
27

>  <r_i_glide_eff_state_penalty>  (165) 
0

>  <ligand_id>  (165) 
48

>  <original_smiles>  (165) 
C=C1C(=O)OC23C1CC(O)C1C(=C)C12C(O)CC(C)(C)C3C=O

>  <smiles>  (165) 
[H]OC1([H])C([H])([H])C2([H])C(=C([H])[H])C(=O)OC23C([H])(C([H])=O)C(C([H])([H])[H])(C([H])([H])[H])C([H])([H])C([H])(O[H])C32C(=C([H])[H])C12[H]

$$$$
49:0:0
     RDKit          3D

 55 61  0  0  1  0  0  0  0  0999 V2000
    1.5878  -10.4602    3.2466 C   0  0  0  0  0  0  0  0  0  0  0  0
    2.8409   -9.6480    2.8797 C   0  0  2  0  0  0  0  0  0  0  0  0
    3.0491   -8.4913    3.8615 C   0  0  0  0  0  0  0  0  0  0  0  0
    4.2227   -7.6081    3.4250 C   0  0  0  0  0  0  0  0  0  0  0  0
    4.0202   -7.1326    1.9681 C   0  0  1  0  0  0  0  0  0  0  0  0
    3.8735   -8.2593    1.1483 O   0  0  0  0  0  0  0  0  0  0  0  0
    2.7479   -9.0803    1.4521 C   0  0  0  0  0  0  0  0  0  0  0  0
    2.9157   -6.2896    1.9031 O   0  0  0  0  0  0  0  0  0  0  0  0
    2.9677   -5.5574    0.6783 C   0  0  1  0  0  0  0  0  0  0  0  0
    2.2601   -4.1546    0.8034 C   0  0  1  0  0  0  0  0  0  0  0  0
    2.6983   -2.6878    1.2224 C   0  0  0  0  0  0  0  0  0  0  0  0
    4.1032   -2.4654    0.6249 C   0  0  2  0  0  0  0  0  0  0  0  0
    4.8345   -1.1444    0.3109 C   0  0  2  0  0  0  0  0  0  0  0  0
    4.5323    0.0774    1.1764 C   0  0  0  0  0  0  0  0  0  0  0  0
    4.6529   -1.0204   -1.1651 C   0  0  0  0  0  0  0  0  0  0  0  0
    5.0585   -2.2381   -1.5537 C   0  0  0  0  0  0  0  0  0  0  0  0
    6.4403   -2.5513   -0.9929 C   0  0  2  0  0  0  0  0  0  0  0  0
    7.5325   -2.2975   -1.8533 O   0  0  0  0  0  0  0  0  0  0  0  0
    6.3325   -3.9953   -0.5208 C   0  0  0  0  0  0  0  0  0  0  0  0
    5.0680   -4.3883   -0.4304 C   0  0  0  0  0  0  0  0  0  0  0  0
    4.4509   -5.6616    0.1700 C   0  0  1  0  0  0  0  0  0  0  0  0
    5.1650   -6.2818    1.3756 C   0  0  1  0  0  0  0  0  0  0  0  0
    5.6805   -5.2655    2.4239 C   0  0  0  0  0  0  0  0  0  0  0  0
    4.2247   -3.2010   -0.7399 C   0  0  1  0  0  0  0  0  0  0  0  0
    2.9068   -3.4636   -1.4487 C   0  0  0  0  0  0  0  0  0  0  0  0
    2.7328   -3.2472   -2.6449 O   0  0  0  0  0  0  0  0  0  0  0  0
    1.9972   -3.9736   -0.6130 O   0  0  0  0  0  0  0  0  0  0  0  0
    6.3323   -1.5377    0.1763 C   0  0  0  0  0  0  0  0  0  0  0  0
    7.2561   -1.1579    0.8771 O   0  0  0  0  0  0  0  0  0  0  0  0
    0.6873   -9.8480    3.1989 H   0  0  0  0  0  0  0  0  0  0  0  0
    1.6536  -10.8698    4.2548 H   0  0  0  0  0  0  0  0  0  0  0  0
    1.4462  -11.2951    2.5636 H   0  0  0  0  0  0  0  0  0  0  0  0
    3.7104  -10.3071    2.9260 H   0  0  0  0  0  0  0  0  0  0  0  0
    2.1430   -7.8883    3.9279 H   0  0  0  0  0  0  0  0  0  0  0  0
    3.2391   -8.8838    4.8607 H   0  0  0  0  0  0  0  0  0  0  0  0
    4.2745   -6.7494    4.0967 H   0  0  0  0  0  0  0  0  0  0  0  0
    5.1647   -8.1532    3.4786 H   0  0  0  0  0  0  0  0  0  0  0  0
    2.7100   -9.8908    0.7247 H   0  0  0  0  0  0  0  0  0  0  0  0
    1.8292   -8.5076    1.3179 H   0  0  0  0  0  0  0  0  0  0  0  0
    2.3654   -6.1596   -0.0030 H   0  0  0  0  0  0  0  0  0  0  0  0
    3.1588   -4.2424    1.4017 H   0  0  0  0  0  0  0  0  0  0  0  0
    1.9900   -1.9377    0.8661 H   0  0  0  0  0  0  0  0  0  0  0  0
    2.7419   -2.5614    2.3079 H   0  0  0  0  0  0  0  0  0  0  0  0
    4.7239   -2.9346    1.3966 H   0  0  0  0  0  0  0  0  0  0  0  0
    5.1872    0.8817    0.8773 H   0  0  0  0  0  0  0  0  0  0  0  0
    4.7113   -0.1154    2.2368 H   0  0  0  0  0  0  0  0  0  0  0  0
    3.5055    0.4141    1.0380 H   0  0  0  0  0  0  0  0  0  0  0  0
    5.0866   -0.1451   -1.6092 H   0  0  0  0  0  0  0  0  0  0  0  0
    7.6354   -2.9887   -2.5004 H   0  0  0  0  0  0  0  0  0  0  0  0
    7.1902   -4.5867   -0.2334 H   0  0  0  0  0  0  0  0  0  0  0  0
    4.4633   -6.3853   -0.6462 H   0  0  0  0  0  0  0  0  0  0  0  0
    5.9808   -6.9256    1.0520 H   0  0  0  0  0  0  0  0  0  0  0  0
    4.8644   -4.6841    2.8602 H   0  0  0  0  0  0  0  0  0  0  0  0
    6.4096   -4.5667    2.0149 H   0  0  0  0  0  0  0  0  0  0  0  0
    6.1914   -5.7783    3.2369 H   0  0  0  0  0  0  0  0  0  0  0  0
  1  2  1  0
  1 30  1  0
  1 31  1  0
  1 32  1  0
  2  7  1  0
  2  3  1  0
  2 33  1  6
  3  4  1  0
  3 34  1  0
  3 35  1  0
  4  5  1  0
  4 36  1  0
  4 37  1  0
  5 22  1  0
  5  6  1  6
  5  8  1  0
  6  7  1  0
  7 38  1  0
  7 39  1  0
  8  9  1  0
  9 21  1  0
  9 10  1  0
  9 40  1  6
 10 27  1  0
 10 11  1  0
 10 41  1  1
 11 12  1  0
 11 42  1  0
 11 43  1  0
 12 24  1  0
 12 13  1  0
 12 44  1  1
 13 28  1  0
 13 14  1  1
 13 15  1  0
 14 45  1  0
 14 46  1  0
 14 47  1  0
 15 16  2  0
 15 48  1  0
 16 24  1  0
 16 17  1  0
 17 18  1  6
 17 19  1  0
 17 28  1  0
 18 49  1  0
 19 20  2  0
 19 50  1  0
 20 21  1  0
 20 24  1  0
 21 22  1  0
 21 51  1  6
 22 23  1  0
 22 52  1  6
 23 53  1  0
 23 54  1  0
 23 55  1  0
 24 25  1  6
 25 26  2  0
 25 27  1  0
 28 29  2  0
M  END
>  <i_m_ct_stereo_status>  (166) 
1

>  <s_m_source_file>  (166) 
/var/tmp/pbs.5076255.sched01/tmp06yssb5m/4267g10r58.sdf

>  <i_m_source_file_index>  (166) 
33

>  <i_lp_mmshare_version>  (166) 
48012

>  <i_f3d_flags>  (166) 
0

>  <s_epik_input>  (166) 
TzFbQ0gyXVtDQEhdKFtDSDNdKVtDSDJdW0NIMl1bQ0BdMTJPW0NASF0zW0NAQEhdNFtDSDJdW0NASF01QzYoQyg9TylPNClDN1tDQEBdKFtPSF0pKEMoPU8pW0NAQF01KFtDSDNdKVtDSF09NylbQ0hdPUM2W0NASF0zW0NASF0yW0NIM10=

>  <s_epik_cmdline>  (166) 
J2VwaWtfcHl0aG9uJywgJy1waHQnLCAnMi4wJywgJy1waCcsICc3LjAnLCAnLXRuJywgJzgnLCAnLW1hJywgJzIwMCcsICctaW1hZScsICc8aW5maWxlLm1hZT4nLCAnLW9tYWUnLCAnPG91dGZpbGUubWFlPic=

>  <r_lp_tautomer_probability>  (166) 
1

>  <r_epik_Ionization_Penalty>  (166) 
9.86587e-06

>  <r_epik_Ionization_Penalty_Charging>  (166) 
0

>  <r_epik_Ionization_Penalty_Neutral>  (166) 
9.86587e-06

>  <r_epik_State_Penalty>  (166) 
-0

>  <r_epik_Charging_Adjusted_Penalty>  (166) 
0

>  <i_epik_Tot_Q>  (166) 
0

>  <i_epik_Tot_abs_Q>  (166) 
0

>  <s_epik_Chemistry_Notes>  (166) 
This compound has an ester and may undergo hydrolysis at high or low pH.

>  <s_lp_Force_Field>  (166) 
OPLS3e

>  <r_lp_Energy>  (166) 
188.468

>  <b_lp_Chiralities_Consistent>  (166) 
1

>  <s_lp_Variant>  (166) 
49:0-1

>  <s_i_glide_gridfile>  (166) 
pfpi4k_grid

>  <i_i_glide_lignum>  (166) 
33

>  <i_i_glide_rotatable_bonds>  (166) 
1

>  <r_i_docking_score>  (166) 
-3.21536

>  <r_i_glide_ligand_efficiency>  (166) 
-0.110875

>  <r_i_glide_ligand_efficiency_sa>  (166) 
-0.340642

>  <r_i_glide_ligand_efficiency_ln>  (166) 
-0.736236

>  <r_i_glide_gscore>  (166) 
-3.21536

>  <r_i_glide_lipo>  (166) 
-0.487593

>  <r_i_glide_hbond>  (166) 
-0.00309532

>  <r_i_glide_metal>  (166) 
-0

>  <r_i_glide_rewards>  (166) 
-0.866247

>  <r_i_glide_evdw>  (166) 
-22.4342

>  <r_i_glide_ecoul>  (166) 
-4.88871

>  <r_i_glide_erotb>  (166) 
0

>  <r_i_glide_esite>  (166) 
-0.00341241

>  <r_i_glide_emodel>  (166) 
-33.4733

>  <r_i_glide_energy>  (166) 
-27.3229

>  <r_i_glide_einternal>  (166) 
0.00966113

>  <r_i_glide_intrahb_reward>  (166) 
-0

>  <i_i_glide_confnum>  (166) 
2

>  <i_i_glide_posenum>  (166) 
18

>  <r_i_glide_eff_state_penalty>  (166) 
0

>  <ligand_id>  (166) 
49

>  <original_smiles>  (166) 
CC1CCC2(OC1)OC1C3CC4C5(C)C=C6C(O)(C=C(C1C2C)C64C(=O)O3)C5=O

>  <smiles>  (166) 
[H]OC12C(=O)C3(C([H])([H])[H])C([H])=C1C14C(=O)OC([H])(C([H])([H])C13[H])C1([H])OC3(OC([H])([H])C([H])(C([H])([H])[H])C([H])([H])C3([H])[H])C([H])(C([H])([H])[H])C1([H])C4=C2[H]

$$$$
49:0:1
     RDKit          3D

 55 61  0  0  1  0  0  0  0  0999 V2000
    3.9700   -1.8369   -1.2051 C   0  0  0  0  0  0  0  0  0  0  0  0
    4.4443   -2.7445   -0.0579 C   0  0  2  0  0  0  0  0  0  0  0  0
    4.6864   -4.1759   -0.5541 C   0  0  0  0  0  0  0  0  0  0  0  0
    5.0309   -5.1079    0.6103 C   0  0  0  0  0  0  0  0  0  0  0  0
    3.9461   -5.0235    1.7030 C   0  0  1  0  0  0  0  0  0  0  0  0
    3.8264   -3.6855    2.1104 O   0  0  0  0  0  0  0  0  0  0  0  0
    3.4218   -2.7763    1.0903 C   0  0  0  0  0  0  0  0  0  0  0  0
    2.7404   -5.5255    1.2124 O   0  0  0  0  0  0  0  0  0  0  0  0
    1.8795   -5.8187    2.3086 C   0  0  1  0  0  0  0  0  0  0  0  0
    0.8779   -6.9931    1.9480 C   0  0  1  0  0  0  0  0  0  0  0  0
    0.8781   -8.5624    2.1342 C   0  0  0  0  0  0  0  0  0  0  0  0
    1.5878   -8.8771    3.4681 C   0  0  2  0  0  0  0  0  0  0  0  0
    1.5105  -10.1610    4.3302 C   0  0  2  0  0  0  0  0  0  0  0  0
    1.2624  -11.5069    3.6541 C   0  0  0  0  0  0  0  0  0  0  0  0
    0.5643   -9.7564    5.4086 C   0  0  0  0  0  0  0  0  0  0  0  0
    1.0983   -8.6029    5.7852 C   0  0  0  0  0  0  0  0  0  0  0  0
    2.5723   -8.8008    6.1346 C   0  0  2  0  0  0  0  0  0  0  0  0
    2.8443   -8.9993    7.5064 O   0  0  0  0  0  0  0  0  0  0  0  0
    3.2766   -7.5815    5.5356 C   0  0  0  0  0  0  0  0  0  0  0  0
    2.5055   -6.9837    4.6197 C   0  0  0  0  0  0  0  0  0  0  0  0
    2.8028   -5.8869    3.5888 C   0  0  1  0  0  0  0  0  0  0  0  0
    4.2031   -5.8662    2.9732 C   0  0  1  0  0  0  0  0  0  0  0  0
    4.7689   -7.2562    2.5940 C   0  0  0  0  0  0  0  0  0  0  0  0
    1.2507   -7.7762    4.5095 C   0  0  1  0  0  0  0  0  0  0  0  0
   -0.0070   -6.9547    4.2180 C   0  0  0  0  0  0  0  0  0  0  0  0
   -0.8132   -6.6265    5.0839 O   0  0  0  0  0  0  0  0  0  0  0  0
   -0.1273   -6.6429    2.9134 O   0  0  0  0  0  0  0  0  0  0  0  0
    2.7396  -10.0854    5.2795 C   0  0  0  0  0  0  0  0  0  0  0  0
    3.6846  -10.8728    5.3233 O   0  0  0  0  0  0  0  0  0  0  0  0
    3.0232   -2.1871   -1.6181 H   0  0  0  0  0  0  0  0  0  0  0  0
    4.6931   -1.8086   -2.0196 H   0  0  0  0  0  0  0  0  0  0  0  0
    3.8105   -0.8137   -0.8635 H   0  0  0  0  0  0  0  0  0  0  0  0
    5.3830   -2.3537    0.3356 H   0  0  0  0  0  0  0  0  0  0  0  0
    3.7983   -4.5507   -1.0631 H   0  0  0  0  0  0  0  0  0  0  0  0
    5.4931   -4.1886   -1.2845 H   0  0  0  0  0  0  0  0  0  0  0  0
    5.1007   -6.1284    0.2238 H   0  0  0  0  0  0  0  0  0  0  0  0
    5.9881   -4.8383    1.0589 H   0  0  0  0  0  0  0  0  0  0  0  0
    3.3216   -1.7812    1.5286 H   0  0  0  0  0  0  0  0  0  0  0  0
    2.4312   -3.0526    0.7274 H   0  0  0  0  0  0  0  0  0  0  0  0
    1.2915   -4.9066    2.4259 H   0  0  0  0  0  0  0  0  0  0  0  0
    1.9101   -7.3060    2.0131 H   0  0  0  0  0  0  0  0  0  0  0  0
   -0.1380   -8.9709    2.1158 H   0  0  0  0  0  0  0  0  0  0  0  0
    1.4215   -9.0495    1.3246 H   0  0  0  0  0  0  0  0  0  0  0  0
    2.6385   -8.8349    3.1644 H   0  0  0  0  0  0  0  0  0  0  0  0
    1.3024  -12.3071    4.3904 H   0  0  0  0  0  0  0  0  0  0  0  0
    2.0121  -11.7249    2.8920 H   0  0  0  0  0  0  0  0  0  0  0  0
    0.2782  -11.5384    3.1891 H   0  0  0  0  0  0  0  0  0  0  0  0
    0.3588  -10.5480    6.1268 H   0  0  0  0  0  0  0  0  0  0  0  0
    2.5701   -9.8824    7.7398 H   0  0  0  0  0  0  0  0  0  0  0  0
    4.3018   -7.3065    5.7604 H   0  0  0  0  0  0  0  0  0  0  0  0
    2.6592   -4.9520    4.1350 H   0  0  0  0  0  0  0  0  0  0  0  0
    4.9068   -5.3485    3.6283 H   0  0  0  0  0  0  0  0  0  0  0  0
    4.1494   -7.7515    1.8428 H   0  0  0  0  0  0  0  0  0  0  0  0
    4.8565   -7.9224    3.4514 H   0  0  0  0  0  0  0  0  0  0  0  0
    5.7719   -7.1652    2.1859 H   0  0  0  0  0  0  0  0  0  0  0  0
  1  2  1  0
  1 30  1  0
  1 31  1  0
  1 32  1  0
  2  7  1  0
  2  3  1  0
  2 33  1  1
  3  4  1  0
  3 34  1  0
  3 35  1  0
  4  5  1  0
  4 36  1  0
  4 37  1  0
  5 22  1  0
  5  6  1  1
  5  8  1  0
  6  7  1  0
  7 38  1  0
  7 39  1  0
  8  9  1  0
  9 21  1  0
  9 10  1  0
  9 40  1  1
 10 27  1  0
 10 11  1  0
 10 41  1  6
 11 12  1  0
 11 42  1  0
 11 43  1  0
 12 24  1  0
 12 13  1  0
 12 44  1  6
 13 28  1  0
 13 14  1  6
 13 15  1  0
 14 45  1  0
 14 46  1  0
 14 47  1  0
 15 16  2  0
 15 48  1  0
 16 24  1  0
 16 17  1  0
 17 18  1  1
 17 19  1  0
 17 28  1  0
 18 49  1  0
 19 20  2  0
 19 50  1  0
 20 21  1  0
 20 24  1  0
 21 22  1  0
 21 51  1  1
 22 23  1  0
 22 52  1  1
 23 53  1  0
 23 54  1  0
 23 55  1  0
 24 25  1  6
 25 26  2  0
 25 27  1  0
 28 29  2  0
M  END
>  <i_m_ct_stereo_status>  (167) 
1

>  <s_m_source_file>  (167) 
/var/tmp/pbs.5076255.sched01/tmp06yssb5m/4267g10r58.sdf

>  <i_m_source_file_index>  (167) 
33

>  <i_lp_mmshare_version>  (167) 
48012

>  <i_f3d_flags>  (167) 
0

>  <s_epik_input>  (167) 
TzFbQ0gyXVtDQEhdKFtDSDNdKVtDSDJdW0NIMl1bQ0BdMTJPW0NASF0zW0NAQEhdNFtDSDJdW0NASF01QzYoQyg9TylPNClDN1tDQEBdKFtPSF0pKEMoPU8pW0NAQF01KFtDSDNdKVtDSF09NylbQ0hdPUM2W0NASF0zW0NASF0yW0NIM10=

>  <s_epik_cmdline>  (167) 
J2VwaWtfcHl0aG9uJywgJy1waHQnLCAnMi4wJywgJy1waCcsICc3LjAnLCAnLXRuJywgJzgnLCAnLW1hJywgJzIwMCcsICctaW1hZScsICc8aW5maWxlLm1hZT4nLCAnLW9tYWUnLCAnPG91dGZpbGUubWFlPic=

>  <r_lp_tautomer_probability>  (167) 
1

>  <r_epik_Ionization_Penalty>  (167) 
9.86587e-06

>  <r_epik_Ionization_Penalty_Charging>  (167) 
0

>  <r_epik_Ionization_Penalty_Neutral>  (167) 
9.86587e-06

>  <r_epik_State_Penalty>  (167) 
-0

>  <r_epik_Charging_Adjusted_Penalty>  (167) 
0

>  <i_epik_Tot_Q>  (167) 
0

>  <i_epik_Tot_abs_Q>  (167) 
0

>  <s_epik_Chemistry_Notes>  (167) 
This compound has an ester and may undergo hydrolysis at high or low pH.

>  <s_lp_Force_Field>  (167) 
OPLS3e

>  <r_lp_Energy>  (167) 
188.468

>  <b_lp_Chiralities_Consistent>  (167) 
1

>  <s_lp_Variant>  (167) 
49:0-1

>  <s_i_glide_gridfile>  (167) 
pfpi4k_grid

>  <i_i_glide_lignum>  (167) 
33

>  <i_i_glide_rotatable_bonds>  (167) 
1

>  <r_i_docking_score>  (167) 
-3.09999

>  <r_i_glide_ligand_efficiency>  (167) 
-0.106896

>  <r_i_glide_ligand_efficiency_sa>  (167) 
-0.328419

>  <r_i_glide_ligand_efficiency_ln>  (167) 
-0.70982

>  <r_i_glide_gscore>  (167) 
-3.09999

>  <r_i_glide_lipo>  (167) 
-0.240545

>  <r_i_glide_hbond>  (167) 
-0.156514

>  <r_i_glide_metal>  (167) 
-0

>  <r_i_glide_rewards>  (167) 
-0.710025

>  <r_i_glide_evdw>  (167) 
-27.6517

>  <r_i_glide_ecoul>  (167) 
-3.60764

>  <r_i_glide_erotb>  (167) 
0

>  <r_i_glide_esite>  (167) 
-0.0691767

>  <r_i_glide_emodel>  (167) 
-36.371

>  <r_i_glide_energy>  (167) 
-31.2594

>  <r_i_glide_einternal>  (167) 
2.10284

>  <r_i_glide_intrahb_reward>  (167) 
-0

>  <i_i_glide_confnum>  (167) 
1

>  <i_i_glide_posenum>  (167) 
25

>  <r_i_glide_eff_state_penalty>  (167) 
0

>  <ligand_id>  (167) 
49

>  <original_smiles>  (167) 
CC1CCC2(OC1)OC1C3CC4C5(C)C=C6C(O)(C=C(C1C2C)C64C(=O)O3)C5=O

>  <smiles>  (167) 
[H]OC12C(=O)C3(C([H])([H])[H])C([H])=C1C14C(=O)OC([H])(C([H])([H])C13[H])C1([H])OC3(OC([H])([H])C([H])(C([H])([H])[H])C([H])([H])C3([H])[H])C([H])(C([H])([H])[H])C1([H])C4=C2[H]

$$$$
49:0:2
     RDKit          3D

 55 61  0  0  1  0  0  0  0  0999 V2000
   -0.4016   -4.0275    7.2624 C   0  0  0  0  0  0  0  0  0  0  0  0
    0.6311   -3.1885    6.4900 C   0  0  2  0  0  0  0  0  0  0  0  0
   -0.0145   -2.4700    5.3004 C   0  0  0  0  0  0  0  0  0  0  0  0
    1.0362   -1.7412    4.4548 C   0  0  0  0  0  0  0  0  0  0  0  0
    2.1505   -2.7248    4.0288 C   0  0  1  0  0  0  0  0  0  0  0  0
    2.6974   -3.2887    5.1862 O   0  0  0  0  0  0  0  0  0  0  0  0
    1.7932   -4.0578    5.9767 C   0  0  0  0  0  0  0  0  0  0  0  0
    1.6223   -3.6805    3.1686 O   0  0  0  0  0  0  0  0  0  0  0  0
    2.7057   -4.3241    2.4944 C   0  0  1  0  0  0  0  0  0  0  0  0
    2.2452   -4.8447    1.0717 C   0  0  1  0  0  0  0  0  0  0  0  0
    2.2587   -4.2466   -0.3880 C   0  0  0  0  0  0  0  0  0  0  0  0
    3.5300   -3.4181   -0.5520 C   0  0  2  0  0  0  0  0  0  0  0  0
    4.2348   -2.9681   -1.8619 C   0  0  2  0  0  0  0  0  0  0  0  0
    3.4231   -2.7440   -3.1467 C   0  0  0  0  0  0  0  0  0  0  0  0
    5.3672   -3.9199   -1.9433 C   0  0  0  0  0  0  0  0  0  0  0  0
    5.8546   -3.8209   -0.7037 C   0  0  0  0  0  0  0  0  0  0  0  0
    6.1642   -2.3580   -0.3631 C   0  0  2  0  0  0  0  0  0  0  0  0
    7.5043   -1.9480   -0.5597 O   0  0  0  0  0  0  0  0  0  0  0  0
    5.6755   -2.1898    1.0730 C   0  0  0  0  0  0  0  0  0  0  0  0
    4.8607   -3.1822    1.4212 C   0  0  0  0  0  0  0  0  0  0  0  0
    3.9548   -3.3748    2.6472 C   0  0  1  0  0  0  0  0  0  0  0  0
    3.3241   -2.1115    3.2346 C   0  0  1  0  0  0  0  0  0  0  0  0
    2.7868   -1.1023    2.1880 C   0  0  0  0  0  0  0  0  0  0  0  0
    4.6924   -4.0761    0.2429 C   0  0  1  0  0  0  0  0  0  0  0  0
    4.5220   -5.5537    0.5721 C   0  0  0  0  0  0  0  0  0  0  0  0
    5.4555   -6.3448    0.4958 O   0  0  0  0  0  0  0  0  0  0  0  0
    3.2631   -5.8497    0.9492 O   0  0  0  0  0  0  0  0  0  0  0  0
    5.1636   -1.8114   -1.4201 C   0  0  0  0  0  0  0  0  0  0  0  0
    5.1421   -0.6839   -1.8967 O   0  0  0  0  0  0  0  0  0  0  0  0
   -0.8338   -4.8000    6.6264 H   0  0  0  0  0  0  0  0  0  0  0  0
   -1.2209   -3.4142    7.6298 H   0  0  0  0  0  0  0  0  0  0  0  0
    0.0531   -4.5245    8.1188 H   0  0  0  0  0  0  0  0  0  0  0  0
    1.0539   -2.4334    7.1557 H   0  0  0  0  0  0  0  0  0  0  0  0
   -0.5409   -3.1848    4.6696 H   0  0  0  0  0  0  0  0  0  0  0  0
   -0.7554   -1.7520    5.6513 H   0  0  0  0  0  0  0  0  0  0  0  0
    0.5418   -1.3286    3.5731 H   0  0  0  0  0  0  0  0  0  0  0  0
    1.4999   -0.9292    5.0167 H   0  0  0  0  0  0  0  0  0  0  0  0
    2.3404   -4.4859    6.8183 H   0  0  0  0  0  0  0  0  0  0  0  0
    1.4237   -4.9008    5.3921 H   0  0  0  0  0  0  0  0  0  0  0  0
    2.9218   -5.2000    3.1112 H   0  0  0  0  0  0  0  0  0  0  0  0
    2.2575   -3.7729    1.1513 H   0  0  0  0  0  0  0  0  0  0  0  0
    2.1800   -5.0578   -1.1031 H   0  0  0  0  0  0  0  0  0  0  0  0
    1.4317   -3.5846   -0.6354 H   0  0  0  0  0  0  0  0  0  0  0  0
    3.2135   -2.4647   -0.0955 H   0  0  0  0  0  0  0  0  0  0  0  0
    4.0689   -2.3692   -3.9363 H   0  0  0  0  0  0  0  0  0  0  0  0
    2.6283   -2.0132   -2.9956 H   0  0  0  0  0  0  0  0  0  0  0  0
    2.9792   -3.6754   -3.5005 H   0  0  0  0  0  0  0  0  0  0  0  0
    6.0085   -3.7610   -2.7992 H   0  0  0  0  0  0  0  0  0  0  0  0
    8.0661   -2.3450    0.0922 H   0  0  0  0  0  0  0  0  0  0  0  0
    5.9185   -1.3346    1.6870 H   0  0  0  0  0  0  0  0  0  0  0  0
    4.6015   -3.8137    3.4039 H   0  0  0  0  0  0  0  0  0  0  0  0
    4.0165   -1.6063    3.9084 H   0  0  0  0  0  0  0  0  0  0  0  0
    1.9945   -1.5335    1.5687 H   0  0  0  0  0  0  0  0  0  0  0  0
    3.5623   -0.7243    1.5211 H   0  0  0  0  0  0  0  0  0  0  0  0
    2.3716   -0.2201    2.6766 H   0  0  0  0  0  0  0  0  0  0  0  0
  1  2  1  0
  1 30  1  0
  1 31  1  0
  1 32  1  0
  2  7  1  0
  2  3  1  0
  2 33  1  1
  3  4  1  0
  3 34  1  0
  3 35  1  0
  4  5  1  0
  4 36  1  0
  4 37  1  0
  5 22  1  0
  5  6  1  1
  5  8  1  0
  6  7  1  0
  7 38  1  0
  7 39  1  0
  8  9  1  0
  9 21  1  0
  9 10  1  0
  9 40  1  1
 10 27  1  0
 10 11  1  0
 10 41  1  1
 11 12  1  0
 11 42  1  0
 11 43  1  0
 12 24  1  0
 12 13  1  0
 12 44  1  1
 13 28  1  0
 13 14  1  6
 13 15  1  0
 14 45  1  0
 14 46  1  0
 14 47  1  0
 15 16  2  0
 15 48  1  0
 16 24  1  0
 16 17  1  0
 17 18  1  1
 17 19  1  0
 17 28  1  0
 18 49  1  0
 19 20  2  0
 19 50  1  0
 20 21  1  0
 20 24  1  0
 21 22  1  0
 21 51  1  1
 22 23  1  0
 22 52  1  1
 23 53  1  0
 23 54  1  0
 23 55  1  0
 24 25  1  1
 25 26  2  0
 25 27  1  0
 28 29  2  0
M  END
>  <i_m_ct_stereo_status>  (168) 
1

>  <s_m_source_file>  (168) 
/var/tmp/pbs.5076255.sched01/tmp06yssb5m/4267g10r58.sdf

>  <i_m_source_file_index>  (168) 
33

>  <i_lp_mmshare_version>  (168) 
48012

>  <i_f3d_flags>  (168) 
0

>  <s_epik_input>  (168) 
TzFbQ0gyXVtDQEhdKFtDSDNdKVtDSDJdW0NIMl1bQ0BdMTJPW0NASF0zW0NAQEhdNFtDSDJdW0NASF01QzYoQyg9TylPNClDN1tDQEBdKFtPSF0pKEMoPU8pW0NAQF01KFtDSDNdKVtDSF09NylbQ0hdPUM2W0NASF0zW0NASF0yW0NIM10=

>  <s_epik_cmdline>  (168) 
J2VwaWtfcHl0aG9uJywgJy1waHQnLCAnMi4wJywgJy1waCcsICc3LjAnLCAnLXRuJywgJzgnLCAnLW1hJywgJzIwMCcsICctaW1hZScsICc8aW5maWxlLm1hZT4nLCAnLW9tYWUnLCAnPG91dGZpbGUubWFlPic=

>  <r_lp_tautomer_probability>  (168) 
1

>  <r_epik_Ionization_Penalty>  (168) 
9.86587e-06

>  <r_epik_Ionization_Penalty_Charging>  (168) 
0

>  <r_epik_Ionization_Penalty_Neutral>  (168) 
9.86587e-06

>  <r_epik_State_Penalty>  (168) 
-0

>  <r_epik_Charging_Adjusted_Penalty>  (168) 
0

>  <i_epik_Tot_Q>  (168) 
0

>  <i_epik_Tot_abs_Q>  (168) 
0

>  <s_epik_Chemistry_Notes>  (168) 
This compound has an ester and may undergo hydrolysis at high or low pH.

>  <s_lp_Force_Field>  (168) 
OPLS3e

>  <r_lp_Energy>  (168) 
188.468

>  <b_lp_Chiralities_Consistent>  (168) 
1

>  <s_lp_Variant>  (168) 
49:0-1

>  <s_i_glide_gridfile>  (168) 
pfpi4k_grid

>  <i_i_glide_lignum>  (168) 
33

>  <i_i_glide_rotatable_bonds>  (168) 
1

>  <r_i_docking_score>  (168) 
-2.94617

>  <r_i_glide_ligand_efficiency>  (168) 
-0.101592

>  <r_i_glide_ligand_efficiency_sa>  (168) 
-0.312123

>  <r_i_glide_ligand_efficiency_ln>  (168) 
-0.674598

>  <r_i_glide_gscore>  (168) 
-2.94617

>  <r_i_glide_lipo>  (168) 
-0.347126

>  <r_i_glide_hbond>  (168) 
0

>  <r_i_glide_metal>  (168) 
-0

>  <r_i_glide_rewards>  (168) 
-0.797391

>  <r_i_glide_evdw>  (168) 
-24.8093

>  <r_i_glide_ecoul>  (168) 
-3.50362

>  <r_i_glide_erotb>  (168) 
0

>  <r_i_glide_esite>  (168) 
-0.0356401

>  <r_i_glide_emodel>  (168) 
-34.3534

>  <r_i_glide_energy>  (168) 
-28.313

>  <r_i_glide_einternal>  (168) 
0.0157493

>  <r_i_glide_intrahb_reward>  (168) 
-0

>  <i_i_glide_confnum>  (168) 
1

>  <i_i_glide_posenum>  (168) 
10

>  <r_i_glide_eff_state_penalty>  (168) 
0

>  <ligand_id>  (168) 
49

>  <original_smiles>  (168) 
CC1CCC2(OC1)OC1C3CC4C5(C)C=C6C(O)(C=C(C1C2C)C64C(=O)O3)C5=O

>  <smiles>  (168) 
[H]OC12C(=O)C3(C([H])([H])[H])C([H])=C1C14C(=O)OC([H])(C([H])([H])C13[H])C1([H])OC3(OC([H])([H])C([H])(C([H])([H])[H])C([H])([H])C3([H])[H])C([H])(C([H])([H])[H])C1([H])C4=C2[H]

$$$$
52:0:0
     RDKit          3D

 63 70  0  0  1  0  0  0  0  0999 V2000
    0.6950  -10.4876    3.9859 C   0  0  0  0  0  0  0  0  0  0  0  0
    2.1889  -10.2172    3.7977 C   0  0  1  0  0  0  0  0  0  0  0  0
    2.3982   -9.6458    2.3678 C   0  0  0  0  0  0  0  0  0  0  0  0
    2.0084   -8.1821    1.9186 C   0  0  0  0  0  0  0  0  0  0  0  0
    2.9557   -6.8924    1.8655 C   0  0  1  0  0  0  0  0  0  0  0  0
    3.3055   -6.3489    3.2121 C   0  0  2  0  0  0  0  0  0  0  0  0
    2.7021   -4.9258    3.2899 C   0  0  0  0  0  0  0  0  0  0  0  0
    3.0154   -4.0703    2.0444 C   0  0  0  0  0  0  0  0  0  0  0  0
    4.4506   -4.1698    1.5740 C   0  0  1  0  0  0  0  0  0  0  0  0
    5.4360   -4.1188    2.6986 C   0  0  1  0  0  0  0  0  0  0  0  0
    5.5268   -5.1414    3.8186 C   0  0  0  0  0  0  0  0  0  0  0  0
    4.8295   -6.5197    3.5572 C   0  0  2  0  0  0  0  0  0  0  0  0
    5.7106   -7.7246    2.8886 C   0  0  2  0  0  0  0  0  0  0  0  0
    6.8331   -7.1172    2.0486 C   0  0  0  0  0  0  0  0  0  0  0  0
    6.5746   -6.2116    1.0751 C   0  0  0  0  0  0  0  0  0  0  0  0
    5.2371   -5.4251    0.8386 C   0  0  2  0  0  0  0  0  0  0  0  0
    6.3049   -4.3440    1.5553 C   0  0  0  0  0  0  0  0  0  0  0  0
    4.1412   -6.6546    0.8309 C   0  0  1  0  0  0  0  0  0  0  0  0
    4.6385   -7.9335    0.6659 O   0  0  0  0  0  0  0  0  0  0  0  0
    5.2604   -8.5829    1.6361 C   0  0  0  0  0  0  0  0  0  0  0  0
    5.7035   -9.6960    1.4253 O   0  0  0  0  0  0  0  0  0  0  0  0
    6.1263   -8.7779    3.9999 C   0  0  0  0  0  0  0  0  0  0  0  0
    5.4097   -9.0859    5.1165 C   0  0  0  0  0  0  0  0  0  0  0  0
    3.9317   -8.9339    5.4913 C   0  0  0  0  0  0  0  0  0  0  0  0
    2.9797  -10.0669    5.1080 C   0  0  2  0  0  0  0  0  0  0  0  0
    3.2061  -11.3022    4.2559 C   0  0  2  0  0  0  0  0  0  0  0  0
    4.5196  -11.5811    3.6042 C   0  0  0  0  0  0  0  0  0  0  0  0
    5.7024  -11.7382    4.2240 C   0  0  0  0  0  0  0  0  0  0  0  0
    6.9406  -11.2234    3.5794 C   0  0  0  0  0  0  0  0  0  0  0  0
    7.6752  -11.9500    2.8971 O   0  0  0  0  0  0  0  0  0  0  0  0
    7.3455   -9.7134    3.7990 C   0  0  0  0  0  0  0  0  0  0  0  0
    0.2842  -11.0683    3.1694 H   0  0  0  0  0  0  0  0  0  0  0  0
    0.1408   -9.5505    4.0742 H   0  0  0  0  0  0  0  0  0  0  0  0
    0.5198  -11.0587    4.9051 H   0  0  0  0  0  0  0  0  0  0  0  0
    3.3208   -9.9827    1.9461 H   0  0  0  0  0  0  0  0  0  0  0  0
    1.7325  -10.2543    1.7485 H   0  0  0  0  0  0  0  0  0  0  0  0
    1.6567   -8.2991    0.8964 H   0  0  0  0  0  0  0  0  0  0  0  0
    1.1121   -7.9185    2.4737 H   0  0  0  0  0  0  0  0  0  0  0  0
    2.1720   -6.2737    1.4380 H   0  0  0  0  0  0  0  0  0  0  0  0
    2.6953   -6.9020    3.9143 H   0  0  0  0  0  0  0  0  0  0  0  0
    1.6177   -5.0007    3.3791 H   0  0  0  0  0  0  0  0  0  0  0  0
    3.0079   -4.4216    4.2114 H   0  0  0  0  0  0  0  0  0  0  0  0
    2.3245   -4.2314    1.2267 H   0  0  0  0  0  0  0  0  0  0  0  0
    2.8144   -3.0248    2.3296 H   0  0  0  0  0  0  0  0  0  0  0  0
    4.4995   -3.3115    0.8773 H   0  0  0  0  0  0  0  0  0  0  0  0
    5.5497   -3.0767    3.0608 H   0  0  0  0  0  0  0  0  0  0  0  0
    6.5743   -5.3192    4.0899 H   0  0  0  0  0  0  0  0  0  0  0  0
    5.1164   -4.7035    4.7194 H   0  0  0  0  0  0  0  0  0  0  0  0
    4.8272   -6.7477    4.6167 H   0  0  0  0  0  0  0  0  0  0  0  0
    7.8198   -7.5563    2.0902 H   0  0  0  0  0  0  0  0  0  0  0  0
    7.3781   -5.9983    0.3643 H   0  0  0  0  0  0  0  0  0  0  0  0
    6.5283   -3.4780    0.9328 H   0  0  0  0  0  0  0  0  0  0  0  0
    7.2905   -4.5045    2.0490 H   0  0  0  0  0  0  0  0  0  0  0  0
    3.6104   -6.5037   -0.1038 H   0  0  0  0  0  0  0  0  0  0  0  0
    5.8809   -9.7803    5.7973 H   0  0  0  0  0  0  0  0  0  0  0  0
    3.9901   -8.9658    6.5857 H   0  0  0  0  0  0  0  0  0  0  0  0
    3.4591   -7.9921    5.3490 H   0  0  0  0  0  0  0  0  0  0  0  0
    2.3622  -10.2848    5.9891 H   0  0  0  0  0  0  0  0  0  0  0  0
    2.7616  -12.2380    4.6181 H   0  0  0  0  0  0  0  0  0  0  0  0
    4.5370  -11.4805    2.5194 H   0  0  0  0  0  0  0  0  0  0  0  0
    5.7207  -11.8321    5.3049 H   0  0  0  0  0  0  0  0  0  0  0  0
    7.9755   -9.3965    2.9672 H   0  0  0  0  0  0  0  0  0  0  0  0
    7.9802   -9.6726    4.6867 H   0  0  0  0  0  0  0  0  0  0  0  0
  2  1  1  1
  1 32  1  0
  1 33  1  0
  1 34  1  0
  2 25  1  0
  2 26  1  0
  2  3  1  0
  3  4  1  0
  3 35  1  0
  3 36  1  0
  4  5  1  0
  4 37  1  0
  4 38  1  0
  5 18  1  0
  5  6  1  0
  5 39  1  6
  6 12  1  0
  6  7  1  0
  6 40  1  1
  7  8  1  0
  7 41  1  0
  7 42  1  0
  8  9  1  0
  8 43  1  0
  8 44  1  0
  9 16  1  0
  9 10  1  0
  9 45  1  6
 10 17  1  0
 10 11  1  0
 10 46  1  1
 11 12  1  0
 11 47  1  0
 11 48  1  0
 12 13  1  0
 12 49  1  1
 13 20  1  0
 13 14  1  6
 13 22  1  0
 14 15  2  0
 14 50  1  0
 15 16  1  0
 15 51  1  0
 16 17  1  6
 16 18  1  0
 17 52  1  0
 17 53  1  0
 18 19  1  0
 18 54  1  6
 19 20  1  0
 20 21  2  0
 22 31  1  0
 22 23  2  3
 23 24  1  0
 23 55  1  0
 24 25  1  0
 24 56  1  0
 24 57  1  0
 25 26  1  0
 25 58  1  1
 26 27  1  0
 26 59  1  1
 27 28  2  3
 27 60  1  0
 28 29  1  0
 28 61  1  0
 29 30  2  0
 29 31  1  0
 31 62  1  0
 31 63  1  0
M  END
>  <i_m_ct_stereo_status>  (169) 
1

>  <s_m_source_file>  (169) 
/var/tmp/pbs.5076255.sched01/tmp06yssb5m/4267g10r58.sdf

>  <i_m_source_file_index>  (169) 
37

>  <i_lp_mmshare_version>  (169) 
48012

>  <i_f3d_flags>  (169) 
2

>  <s_epik_input>  (169) 
W0NIMl0xW0NIMl1bQ0BASF0oW0NAQEhdKFtDSDJdMilbQ0gyXTMpQzMoW0NIXT1bQ0hdNClbQ0BASF0oT0M1PU8pW0NASF0oW0NASF0xW0NASF0yW0NAXTQ1NilbQ0gyXVtDSDJdW0NAQF03KFtDSDNdKVtDQEhdOFtDQEBIXTcvW0NIXT1bQ0hdXEMoPU8pW0NIMl1DXDY9W0NIXS9bQ0gyXTg=

>  <s_epik_cmdline>  (169) 
J2VwaWtfcHl0aG9uJywgJy1waHQnLCAnMi4wJywgJy1waCcsICc3LjAnLCAnLXRuJywgJzgnLCAnLW1hJywgJzIwMCcsICctaW1hZScsICc8aW5maWxlLm1hZT4nLCAnLW9tYWUnLCAnPG91dGZpbGUubWFlPic=

>  <r_lp_tautomer_probability>  (169) 
1

>  <r_epik_Ionization_Penalty>  (169) 
0

>  <r_epik_Ionization_Penalty_Charging>  (169) 
0

>  <r_epik_Ionization_Penalty_Neutral>  (169) 
0

>  <r_epik_State_Penalty>  (169) 
-0

>  <r_epik_Charging_Adjusted_Penalty>  (169) 
0

>  <i_epik_Tot_Q>  (169) 
0

>  <i_epik_Tot_abs_Q>  (169) 
0

>  <s_epik_Chemistry_Notes>  (169) 
This compound has an ester and may undergo hydrolysis at high or low pH.

>  <s_lp_Force_Field>  (169) 
OPLS3e

>  <r_lp_Energy>  (169) 
371.639

>  <b_lp_Chiralities_Consistent>  (169) 
0

>  <s_lp_Variant>  (169) 
52:0-1

>  <s_i_glide_gridfile>  (169) 
pfpi4k_grid

>  <i_i_glide_lignum>  (169) 
37

>  <i_i_glide_rotatable_bonds>  (169) 
0

>  <r_i_docking_score>  (169) 
-2.91954

>  <r_i_glide_ligand_efficiency>  (169) 
-0.0941787

>  <r_i_glide_ligand_efficiency_sa>  (169) 
-0.295851

>  <r_i_glide_ligand_efficiency_ln>  (169) 
-0.658446

>  <r_i_glide_gscore>  (169) 
-2.91954

>  <r_i_glide_lipo>  (169) 
-0.509714

>  <r_i_glide_hbond>  (169) 
0

>  <r_i_glide_metal>  (169) 
-0

>  <r_i_glide_rewards>  (169) 
-0.592891

>  <r_i_glide_evdw>  (169) 
-29.0488

>  <r_i_glide_ecoul>  (169) 
-2.39585

>  <r_i_glide_erotb>  (169) 
0

>  <r_i_glide_esite>  (169) 
-0.00511839

>  <r_i_glide_emodel>  (169) 
-36.7104

>  <r_i_glide_energy>  (169) 
-31.4446

>  <r_i_glide_einternal>  (169) 
0

>  <r_i_glide_intrahb_reward>  (169) 
-0

>  <i_i_glide_confnum>  (169) 
2

>  <i_i_glide_posenum>  (169) 
3

>  <r_i_glide_eff_state_penalty>  (169) 
0

>  <ligand_id>  (169) 
52

>  <original_smiles>  (169) 
CC12CCC3C4CCC5C6CC4C4(C=CC5(C6)C3OC4=O)C3=CCC1C2C=CC(=O)C3

>  <smiles>  (169) 
[H]C1=C([H])C2([H])C3([H])C([H])([H])C([H])=C(C([H])([H])C1=O)C14C(=O)OC5([H])C([H])(C([H])([H])C([H])([H])C23C([H])([H])[H])C2([H])C([H])([H])C([H])([H])C3([H])C([H])(C([H])([H])C12[H])C([H])([H])C53C([H])=C4[H]

$$$$
52:0:1
     RDKit          3D

 63 70  0  0  1  0  0  0  0  0999 V2000
    0.4001   -7.3921    3.0241 C   0  0  0  0  0  0  0  0  0  0  0  0
    1.9108   -7.1696    3.1052 C   0  0  1  0  0  0  0  0  0  0  0  0
    2.4717   -7.0607    1.6560 C   0  0  0  0  0  0  0  0  0  0  0  0
    2.2714   -5.8137    0.7121 C   0  0  0  0  0  0  0  0  0  0  0  0
    3.2574   -4.5768    0.4836 C   0  0  1  0  0  0  0  0  0  0  0  0
    3.3250   -3.6373    1.6504 C   0  0  2  0  0  0  0  0  0  0  0  0
    2.8075   -2.2660    1.1608 C   0  0  0  0  0  0  0  0  0  0  0  0
    3.4296   -1.8252   -0.1820 C   0  0  0  0  0  0  0  0  0  0  0  0
    4.9338   -2.0452   -0.2756 C   0  0  1  0  0  0  0  0  0  0  0  0
    5.6361   -1.6009    0.9737 C   0  0  1  0  0  0  0  0  0  0  0  0
    5.4029   -2.2532    2.3432 C   0  0  0  0  0  0  0  0  0  0  0  0
    4.7245   -3.6603    2.3685 C   0  0  2  0  0  0  0  0  0  0  0  0
    5.6756   -4.9955    2.3182 C   0  0  2  0  0  0  0  0  0  0  0  0
    6.9853   -4.6573    1.6035 C   0  0  0  0  0  0  0  0  0  0  0  0
    7.0044   -4.1047    0.3547 C   0  0  0  0  0  0  0  0  0  0  0  0
    5.8018   -3.4342   -0.3862 C   0  0  2  0  0  0  0  0  0  0  0  0
    6.7254   -2.1747    0.2029 C   0  0  0  0  0  0  0  0  0  0  0  0
    4.6535   -4.6297   -0.2658 C   0  0  1  0  0  0  0  0  0  0  0  0
    5.1104   -5.9039    0.0751 O   0  0  0  0  0  0  0  0  0  0  0  0
    5.4671   -6.1906    1.3214 C   0  0  0  0  0  0  0  0  0  0  0  0
    5.8556   -7.3297    1.5522 O   0  0  0  0  0  0  0  0  0  0  0  0
    5.7778   -5.6397    3.7557 C   0  0  0  0  0  0  0  0  0  0  0  0
    4.8107   -5.6141    4.7161 C   0  0  0  0  0  0  0  0  0  0  0  0
    3.3040   -5.3849    4.6826 C   0  0  0  0  0  0  0  0  0  0  0  0
    2.3866   -6.6003    4.4511 C   0  0  2  0  0  0  0  0  0  0  0  0
    2.7423   -8.0398    4.0929 C   0  0  2  0  0  0  0  0  0  0  0  0
    4.1655   -8.4717    3.8641 C   0  0  0  0  0  0  0  0  0  0  0  0
    5.1690   -8.4038    4.7651 C   0  0  0  0  0  0  0  0  0  0  0  0
    6.5455   -8.0870    4.2940 C   0  0  0  0  0  0  0  0  0  0  0  0
    7.3704   -8.9624    4.0439 O   0  0  0  0  0  0  0  0  0  0  0  0
    6.9632   -6.5734    4.1300 C   0  0  0  0  0  0  0  0  0  0  0  0
    0.1525   -8.2072    2.3440 H   0  0  0  0  0  0  0  0  0  0  0  0
   -0.1056   -6.4868    2.6907 H   0  0  0  0  0  0  0  0  0  0  0  0
   -0.0050   -7.6626    4.0003 H   0  0  0  0  0  0  0  0  0  0  0  0
    3.4452   -7.4816    1.5877 H   0  0  0  0  0  0  0  0  0  0  0  0
    1.9381   -7.8518    1.1270 H   0  0  0  0  0  0  0  0  0  0  0  0
    2.1458   -6.2389   -0.2848 H   0  0  0  0  0  0  0  0  0  0  0  0
    1.2867   -5.4276    0.9527 H   0  0  0  0  0  0  0  0  0  0  0  0
    2.6232   -4.1309   -0.2743 H   0  0  0  0  0  0  0  0  0  0  0  0
    2.5475   -3.9576    2.3263 H   0  0  0  0  0  0  0  0  0  0  0  0
    1.7313   -2.3221    1.0087 H   0  0  0  0  0  0  0  0  0  0  0  0
    2.9203   -1.4968    1.9234 H   0  0  0  0  0  0  0  0  0  0  0  0
    2.9288   -2.2535   -1.0498 H   0  0  0  0  0  0  0  0  0  0  0  0
    3.2200   -0.7588   -0.2825 H   0  0  0  0  0  0  0  0  0  0  0  0
    5.1709   -1.4309   -1.1625 H   0  0  0  0  0  0  0  0  0  0  0  0
    5.7174   -0.5149    1.0270 H   0  0  0  0  0  0  0  0  0  0  0  0
    6.3341   -2.3026    2.8863 H   0  0  0  0  0  0  0  0  0  0  0  0
    4.8195   -1.5576    2.9523 H   0  0  0  0  0  0  0  0  0  0  0  0
    4.4759   -3.5516    3.4103 H   0  0  0  0  0  0  0  0  0  0  0  0
    7.9109   -5.0425    2.0019 H   0  0  0  0  0  0  0  0  0  0  0  0
    7.9534   -4.0893   -0.1714 H   0  0  0  0  0  0  0  0  0  0  0  0
    7.1299   -1.5369   -0.5885 H   0  0  0  0  0  0  0  0  0  0  0  0
    7.5671   -2.1532    0.9212 H   0  0  0  0  0  0  0  0  0  0  0  0
    4.3620   -4.7832   -1.3059 H   0  0  0  0  0  0  0  0  0  0  0  0
    5.0836   -6.0523    5.6636 H   0  0  0  0  0  0  0  0  0  0  0  0
    3.1102   -5.0800    5.7121 H   0  0  0  0  0  0  0  0  0  0  0  0
    2.9182   -4.5364    4.1569 H   0  0  0  0  0  0  0  0  0  0  0  0
    1.5870   -6.5451    5.1887 H   0  0  0  0  0  0  0  0  0  0  0  0
    2.1856   -8.8228    4.6034 H   0  0  0  0  0  0  0  0  0  0  0  0
    4.4203   -8.7073    2.8465 H   0  0  0  0  0  0  0  0  0  0  0  0
    4.9390   -8.1630    5.7913 H   0  0  0  0  0  0  0  0  0  0  0  0
    7.7783   -6.5151    3.4116 H   0  0  0  0  0  0  0  0  0  0  0  0
    7.3796   -6.2500    5.0843 H   0  0  0  0  0  0  0  0  0  0  0  0
  2  1  1  6
  1 32  1  0
  1 33  1  0
  1 34  1  0
  2 25  1  0
  2 26  1  0
  2  3  1  0
  3  4  1  0
  3 35  1  0
  3 36  1  0
  4  5  1  0
  4 37  1  0
  4 38  1  0
  5 18  1  0
  5  6  1  0
  5 39  1  6
  6 12  1  0
  6  7  1  0
  6 40  1  1
  7  8  1  0
  7 41  1  0
  7 42  1  0
  8  9  1  0
  8 43  1  0
  8 44  1  0
  9 16  1  0
  9 10  1  0
  9 45  1  6
 10 17  1  0
 10 11  1  0
 10 46  1  1
 11 12  1  0
 11 47  1  0
 11 48  1  0
 12 13  1  0
 12 49  1  1
 13 20  1  0
 13 14  1  6
 13 22  1  0
 14 15  2  0
 14 50  1  0
 15 16  1  0
 15 51  1  0
 16 17  1  6
 16 18  1  0
 17 52  1  0
 17 53  1  0
 18 19  1  0
 18 54  1  6
 19 20  1  0
 20 21  2  0
 22 31  1  0
 22 23  2  3
 23 24  1  0
 23 55  1  0
 24 25  1  0
 24 56  1  0
 24 57  1  0
 25 26  1  0
 25 58  1  1
 26 27  1  0
 26 59  1  1
 27 28  2  3
 27 60  1  0
 28 29  1  0
 28 61  1  0
 29 30  2  0
 29 31  1  0
 31 62  1  0
 31 63  1  0
M  END
>  <i_m_ct_stereo_status>  (170) 
1

>  <s_m_source_file>  (170) 
/var/tmp/pbs.5076255.sched01/tmp06yssb5m/4267g10r58.sdf

>  <i_m_source_file_index>  (170) 
37

>  <i_lp_mmshare_version>  (170) 
48012

>  <i_f3d_flags>  (170) 
2

>  <s_epik_input>  (170) 
W0NIMl0xW0NIMl1bQ0BASF0oW0NAQEhdKFtDSDJdMilbQ0gyXTMpQzMoW0NIXT1bQ0hdNClbQ0BASF0oT0M1PU8pW0NASF0oW0NASF0xW0NASF0yW0NAXTQ1NilbQ0gyXVtDSDJdW0NAQF03KFtDSDNdKVtDQEhdOFtDQEBIXTcvW0NIXT1bQ0hdXEMoPU8pW0NIMl1DXDY9W0NIXS9bQ0gyXTg=

>  <s_epik_cmdline>  (170) 
J2VwaWtfcHl0aG9uJywgJy1waHQnLCAnMi4wJywgJy1waCcsICc3LjAnLCAnLXRuJywgJzgnLCAnLW1hJywgJzIwMCcsICctaW1hZScsICc8aW5maWxlLm1hZT4nLCAnLW9tYWUnLCAnPG91dGZpbGUubWFlPic=

>  <r_lp_tautomer_probability>  (170) 
1

>  <r_epik_Ionization_Penalty>  (170) 
0

>  <r_epik_Ionization_Penalty_Charging>  (170) 
0

>  <r_epik_Ionization_Penalty_Neutral>  (170) 
0

>  <r_epik_State_Penalty>  (170) 
-0

>  <r_epik_Charging_Adjusted_Penalty>  (170) 
0

>  <i_epik_Tot_Q>  (170) 
0

>  <i_epik_Tot_abs_Q>  (170) 
0

>  <s_epik_Chemistry_Notes>  (170) 
This compound has an ester and may undergo hydrolysis at high or low pH.

>  <s_lp_Force_Field>  (170) 
OPLS3e

>  <r_lp_Energy>  (170) 
371.639

>  <b_lp_Chiralities_Consistent>  (170) 
0

>  <s_lp_Variant>  (170) 
52:0-1

>  <s_i_glide_gridfile>  (170) 
pfpi4k_grid

>  <i_i_glide_lignum>  (170) 
37

>  <i_i_glide_rotatable_bonds>  (170) 
0

>  <r_i_docking_score>  (170) 
-2.58405

>  <r_i_glide_ligand_efficiency>  (170) 
-0.0833563

>  <r_i_glide_ligand_efficiency_sa>  (170) 
-0.261854

>  <r_i_glide_ligand_efficiency_ln>  (170) 
-0.582782

>  <r_i_glide_gscore>  (170) 
-2.58405

>  <r_i_glide_lipo>  (170) 
-0.545834

>  <r_i_glide_hbond>  (170) 
0

>  <r_i_glide_metal>  (170) 
-0

>  <r_i_glide_rewards>  (170) 
-0.686055

>  <r_i_glide_evdw>  (170) 
-25.7342

>  <r_i_glide_ecoul>  (170) 
-0.436327

>  <r_i_glide_erotb>  (170) 
0

>  <r_i_glide_esite>  (170) 
0

>  <r_i_glide_emodel>  (170) 
-30.8315

>  <r_i_glide_energy>  (170) 
-26.1705

>  <r_i_glide_einternal>  (170) 
0

>  <r_i_glide_intrahb_reward>  (170) 
-0

>  <i_i_glide_confnum>  (170) 
1

>  <i_i_glide_posenum>  (170) 
9

>  <r_i_glide_eff_state_penalty>  (170) 
0

>  <ligand_id>  (170) 
52

>  <original_smiles>  (170) 
CC12CCC3C4CCC5C6CC4C4(C=CC5(C6)C3OC4=O)C3=CCC1C2C=CC(=O)C3

>  <smiles>  (170) 
[H]C1=C([H])C2([H])C3([H])C([H])([H])C([H])=C(C([H])([H])C1=O)C14C(=O)OC5([H])C([H])(C([H])([H])C([H])([H])C23C([H])([H])[H])C2([H])C([H])([H])C([H])([H])C3([H])C([H])(C([H])([H])C12[H])C([H])([H])C53C([H])=C4[H]

$$$$
52:0:2
     RDKit          3D

 63 70  0  0  1  0  0  0  0  0999 V2000
    4.5387   -2.8942    8.8201 C   0  0  0  0  0  0  0  0  0  0  0  0
    4.1911   -1.8246    7.7846 C   0  0  1  0  0  0  0  0  0  0  0  0
    5.2893   -1.8361    6.6795 C   0  0  0  0  0  0  0  0  0  0  0  0
    5.4313   -2.9556    5.5778 C   0  0  0  0  0  0  0  0  0  0  0  0
    4.8723   -2.9378    4.0793 C   0  0  1  0  0  0  0  0  0  0  0  0
    3.3879   -3.1232    4.0029 C   0  0  2  0  0  0  0  0  0  0  0  0
    3.1357   -4.4464    3.2413 C   0  0  0  0  0  0  0  0  0  0  0  0
    3.9600   -4.5642    1.9403 C   0  0  0  0  0  0  0  0  0  0  0  0
    3.9908   -3.2859    1.1065 C   0  0  1  0  0  0  0  0  0  0  0  0
    2.6308   -2.6606    0.9881 C   0  0  1  0  0  0  0  0  0  0  0  0
    1.8487   -2.0875    2.1856 C   0  0  0  0  0  0  0  0  0  0  0  0
    2.6433   -1.8289    3.4990 C   0  0  2  0  0  0  0  0  0  0  0  0
    3.2899   -0.3430    3.7195 C   0  0  2  0  0  0  0  0  0  0  0  0
    3.5541    0.2874    2.3514 C   0  0  0  0  0  0  0  0  0  0  0  0
    4.3207   -0.3330    1.4036 C   0  0  0  0  0  0  0  0  0  0  0  0
    4.7248   -1.8431    1.3751 C   0  0  2  0  0  0  0  0  0  0  0  0
    3.4654   -1.6930    0.2961 C   0  0  0  0  0  0  0  0  0  0  0  0
    5.3754   -2.0100    2.8903 C   0  0  1  0  0  0  0  0  0  0  0  0
    5.7210   -0.8232    3.5453 O   0  0  0  0  0  0  0  0  0  0  0  0
    4.7831   -0.0797    4.1196 C   0  0  0  0  0  0  0  0  0  0  0  0
    5.1446    0.9200    4.7329 O   0  0  0  0  0  0  0  0  0  0  0  0
    2.4101    0.4783    4.7405 C   0  0  0  0  0  0  0  0  0  0  0  0
    1.6963   -0.0373    5.7795 C   0  0  0  0  0  0  0  0  0  0  0  0
    1.7675   -1.3502    6.5531 C   0  0  0  0  0  0  0  0  0  0  0  0
    2.7060   -1.4292    7.7722 C   0  0  2  0  0  0  0  0  0  0  0  0
    3.7318   -0.4232    8.2837 C   0  0  2  0  0  0  0  0  0  0  0  0
    4.0002    0.8715    7.5646 C   0  0  0  0  0  0  0  0  0  0  0  0
    3.0981    1.8474    7.3269 C   0  0  0  0  0  0  0  0  0  0  0  0
    3.1788    2.6153    6.0528 C   0  0  0  0  0  0  0  0  0  0  0  0
    3.7720    3.6868    5.9722 O   0  0  0  0  0  0  0  0  0  0  0  0
    2.4680    2.0321    4.7680 C   0  0  0  0  0  0  0  0  0  0  0  0
    5.5695   -2.8004    9.1603 H   0  0  0  0  0  0  0  0  0  0  0  0
    4.3945   -3.8932    8.4064 H   0  0  0  0  0  0  0  0  0  0  0  0
    3.9039   -2.8026    9.7018 H   0  0  0  0  0  0  0  0  0  0  0  0
    5.4662   -0.8576    6.3053 H   0  0  0  0  0  0  0  0  0  0  0  0
    6.2155   -1.9333    7.2501 H   0  0  0  0  0  0  0  0  0  0  0  0
    6.5095   -3.0696    5.4651 H   0  0  0  0  0  0  0  0  0  0  0  0
    5.1335   -3.8958    6.0426 H   0  0  0  0  0  0  0  0  0  0  0  0
    5.3465   -3.8823    3.8339 H   0  0  0  0  0  0  0  0  0  0  0  0
    3.0753   -3.3687    5.0065 H   0  0  0  0  0  0  0  0  0  0  0  0
    3.4142   -5.2850    3.8822 H   0  0  0  0  0  0  0  0  0  0  0  0
    2.0739   -4.5948    3.0516 H   0  0  0  0  0  0  0  0  0  0  0  0
    4.9716   -4.9347    2.1044 H   0  0  0  0  0  0  0  0  0  0  0  0
    3.5005   -5.3585    1.3497 H   0  0  0  0  0  0  0  0  0  0  0  0
    4.3834   -3.6836    0.1529 H   0  0  0  0  0  0  0  0  0  0  0  0
    2.0053   -3.1992    0.2796 H   0  0  0  0  0  0  0  0  0  0  0  0
    1.3188   -1.1826    1.8835 H   0  0  0  0  0  0  0  0  0  0  0  0
    1.0345   -2.7750    2.4257 H   0  0  0  0  0  0  0  0  0  0  0  0
    1.7380   -1.8178    4.0812 H   0  0  0  0  0  0  0  0  0  0  0  0
    3.3280    1.3323    2.2056 H   0  0  0  0  0  0  0  0  0  0  0  0
    4.6563    0.2649    0.5613 H   0  0  0  0  0  0  0  0  0  0  0  0
    3.7445   -1.9531   -0.7328 H   0  0  0  0  0  0  0  0  0  0  0  0
    2.7550   -0.8650    0.1032 H   0  0  0  0  0  0  0  0  0  0  0  0
    6.3567   -2.4260    2.6659 H   0  0  0  0  0  0  0  0  0  0  0  0
    1.1050    0.6739    6.3361 H   0  0  0  0  0  0  0  0  0  0  0  0
    0.7615   -1.4087    6.9701 H   0  0  0  0  0  0  0  0  0  0  0  0
    1.8043   -2.2730    6.0120 H   0  0  0  0  0  0  0  0  0  0  0  0
    2.1444   -1.8932    8.5810 H   0  0  0  0  0  0  0  0  0  0  0  0
    3.7784   -0.2762    9.3597 H   0  0  0  0  0  0  0  0  0  0  0  0
    4.9530    0.9361    7.0725 H   0  0  0  0  0  0  0  0  0  0  0  0
    2.1319    1.7992    7.8042 H   0  0  0  0  0  0  0  0  0  0  0  0
    2.9556    2.4424    3.8855 H   0  0  0  0  0  0  0  0  0  0  0  0
    1.4495    2.4216    4.7590 H   0  0  0  0  0  0  0  0  0  0  0  0
  2  1  1  1
  1 32  1  0
  1 33  1  0
  1 34  1  0
  2 25  1  0
  2 26  1  0
  2  3  1  0
  3  4  1  0
  3 35  1  0
  3 36  1  0
  4  5  1  0
  4 37  1  0
  4 38  1  0
  5 18  1  0
  5  6  1  0
  5 39  1  6
  6 12  1  0
  6  7  1  0
  6 40  1  1
  7  8  1  0
  7 41  1  0
  7 42  1  0
  8  9  1  0
  8 43  1  0
  8 44  1  0
  9 16  1  0
  9 10  1  0
  9 45  1  6
 10 17  1  0
 10 11  1  0
 10 46  1  6
 11 12  1  0
 11 47  1  0
 11 48  1  0
 12 13  1  0
 12 49  1  1
 13 20  1  0
 13 14  1  6
 13 22  1  0
 14 15  2  0
 14 50  1  0
 15 16  1  0
 15 51  1  0
 16 17  1  6
 16 18  1  0
 17 52  1  0
 17 53  1  0
 18 19  1  0
 18 54  1  6
 19 20  1  0
 20 21  2  0
 22 31  1  0
 22 23  2  3
 23 24  1  0
 23 55  1  0
 24 25  1  0
 24 56  1  0
 24 57  1  0
 25 26  1  0
 25 58  1  1
 26 27  1  0
 26 59  1  1
 27 28  2  3
 27 60  1  0
 28 29  1  0
 28 61  1  0
 29 30  2  0
 29 31  1  0
 31 62  1  0
 31 63  1  0
M  END
>  <i_m_ct_stereo_status>  (171) 
1

>  <s_m_source_file>  (171) 
/var/tmp/pbs.5076255.sched01/tmp06yssb5m/4267g10r58.sdf

>  <i_m_source_file_index>  (171) 
37

>  <i_lp_mmshare_version>  (171) 
48012

>  <i_f3d_flags>  (171) 
2

>  <s_epik_input>  (171) 
W0NIMl0xW0NIMl1bQ0BASF0oW0NAQEhdKFtDSDJdMilbQ0gyXTMpQzMoW0NIXT1bQ0hdNClbQ0BASF0oT0M1PU8pW0NASF0oW0NASF0xW0NASF0yW0NAXTQ1NilbQ0gyXVtDSDJdW0NAQF03KFtDSDNdKVtDQEhdOFtDQEBIXTcvW0NIXT1bQ0hdXEMoPU8pW0NIMl1DXDY9W0NIXS9bQ0gyXTg=

>  <s_epik_cmdline>  (171) 
J2VwaWtfcHl0aG9uJywgJy1waHQnLCAnMi4wJywgJy1waCcsICc3LjAnLCAnLXRuJywgJzgnLCAnLW1hJywgJzIwMCcsICctaW1hZScsICc8aW5maWxlLm1hZT4nLCAnLW9tYWUnLCAnPG91dGZpbGUubWFlPic=

>  <r_lp_tautomer_probability>  (171) 
1

>  <r_epik_Ionization_Penalty>  (171) 
0

>  <r_epik_Ionization_Penalty_Charging>  (171) 
0

>  <r_epik_Ionization_Penalty_Neutral>  (171) 
0

>  <r_epik_State_Penalty>  (171) 
-0

>  <r_epik_Charging_Adjusted_Penalty>  (171) 
0

>  <i_epik_Tot_Q>  (171) 
0

>  <i_epik_Tot_abs_Q>  (171) 
0

>  <s_epik_Chemistry_Notes>  (171) 
This compound has an ester and may undergo hydrolysis at high or low pH.

>  <s_lp_Force_Field>  (171) 
OPLS3e

>  <r_lp_Energy>  (171) 
371.639

>  <b_lp_Chiralities_Consistent>  (171) 
0

>  <s_lp_Variant>  (171) 
52:0-1

>  <s_i_glide_gridfile>  (171) 
pfpi4k_grid

>  <i_i_glide_lignum>  (171) 
37

>  <i_i_glide_rotatable_bonds>  (171) 
0

>  <r_i_docking_score>  (171) 
-1.99631

>  <r_i_glide_ligand_efficiency>  (171) 
-0.0643971

>  <r_i_glide_ligand_efficiency_sa>  (171) 
-0.202296

>  <r_i_glide_ligand_efficiency_ln>  (171) 
-0.450229

>  <r_i_glide_gscore>  (171) 
-1.99631

>  <r_i_glide_lipo>  (171) 
-0.317493

>  <r_i_glide_hbond>  (171) 
0

>  <r_i_glide_metal>  (171) 
-0

>  <r_i_glide_rewards>  (171) 
-0.65924

>  <r_i_glide_evdw>  (171) 
-16.388

>  <r_i_glide_ecoul>  (171) 
-1.33451

>  <r_i_glide_erotb>  (171) 
0

>  <r_i_glide_esite>  (171) 
0

>  <r_i_glide_emodel>  (171) 
-21.283

>  <r_i_glide_energy>  (171) 
-17.7225

>  <r_i_glide_einternal>  (171) 
0

>  <r_i_glide_intrahb_reward>  (171) 
-0

>  <i_i_glide_confnum>  (171) 
1

>  <i_i_glide_posenum>  (171) 
1

>  <r_i_glide_eff_state_penalty>  (171) 
0

>  <ligand_id>  (171) 
52

>  <original_smiles>  (171) 
CC12CCC3C4CCC5C6CC4C4(C=CC5(C6)C3OC4=O)C3=CCC1C2C=CC(=O)C3

>  <smiles>  (171) 
[H]C1=C([H])C2([H])C3([H])C([H])([H])C([H])=C(C([H])([H])C1=O)C14C(=O)OC5([H])C([H])(C([H])([H])C([H])([H])C23C([H])([H])[H])C2([H])C([H])([H])C([H])([H])C3([H])C([H])(C([H])([H])C12[H])C([H])([H])C53C([H])=C4[H]

$$$$
54:0:0
     RDKit          3D

 40 46  0  0  1  0  0  0  0  0999 V2000
    3.6397   -0.0029   -4.5530 C   0  0  0  0  0  0  0  0  0  0  0  0
    4.3425   -1.2461   -4.4659 O   0  0  0  0  0  0  0  0  0  0  0  0
    4.0412   -2.1459   -3.3817 C   0  0  1  0  0  0  0  0  0  0  0  0
    2.5031   -3.0168   -3.2333 C   0  0  1  0  0  0  0  0  0  0  0  0
    1.8936   -3.5722   -1.8632 C   0  0  0  0  0  0  0  0  0  0  0  0
    3.1393   -3.2926   -0.8640 C   0  0  1  0  0  0  0  0  0  0  0  0
    2.9491   -3.8501    0.5486 C   0  0  0  0  0  0  0  0  0  0  0  0
    4.2051   -3.8820    1.4385 C   0  0  0  0  0  0  0  0  0  0  0  0
    4.8076   -2.5404    1.7708 C   0  0  0  0  0  0  0  0  0  0  0  0
    5.2790   -2.1167    3.0475 C   0  0  0  0  0  0  0  0  0  0  0  0
    5.7824   -0.8539    2.8770 C   0  0  0  0  0  0  0  0  0  0  0  0
    5.6731   -0.4669    1.5853 O   0  0  0  0  0  0  0  0  0  0  0  0
    5.0562   -1.4897    0.9333 C   0  0  0  0  0  0  0  0  0  0  0  0
    4.8054   -1.2836   -0.5059 C   0  0  1  0  0  0  0  0  0  0  0  0
    5.8915   -1.8800   -1.4295 C   0  0  0  0  0  0  0  0  0  0  0  0
    5.2515   -2.7967   -2.4928 C   0  0  1  0  0  0  0  0  0  0  0  0
    4.3445   -3.7990   -1.7134 C   0  0  2  0  0  0  0  0  0  0  0  0
    3.6838   -3.3968   -2.8864 C   0  0  2  0  0  0  0  0  0  0  0  0
    3.2947   -1.7056   -2.4148 C   0  0  1  0  0  0  0  0  0  0  0  0
    3.4064   -1.7701   -0.9296 C   0  0  1  0  0  0  0  0  0  0  0  0
    4.0003    0.6088   -5.3498 H   0  0  0  0  0  0  0  0  0  0  0  0
    3.7315    0.5598   -3.6082 H   0  0  0  0  0  0  0  0  0  0  0  0
    2.5749   -0.2042   -4.7254 H   0  0  0  0  0  0  0  0  0  0  0  0
    2.1218   -3.4530   -4.1648 H   0  0  0  0  0  0  0  0  0  0  0  0
    0.9660   -3.0850   -1.5736 H   0  0  0  0  0  0  0  0  0  0  0  0
    1.6202   -4.6339   -1.9075 H   0  0  0  0  0  0  0  0  0  0  0  0
    2.1656   -3.2759    1.0491 H   0  0  0  0  0  0  0  0  0  0  0  0
    2.5788   -4.8713    0.4458 H   0  0  0  0  0  0  0  0  0  0  0  0
    3.9367   -4.3591    2.3827 H   0  0  0  0  0  0  0  0  0  0  0  0
    4.9744   -4.4995    0.9761 H   0  0  0  0  0  0  0  0  0  0  0  0
    5.2802   -2.6742    3.9636 H   0  0  0  0  0  0  0  0  0  0  0  0
    6.2590   -0.1523    3.5374 H   0  0  0  0  0  0  0  0  0  0  0  0
    4.8041   -0.2074   -0.6851 H   0  0  0  0  0  0  0  0  0  0  0  0
    6.4021   -1.0812   -1.9416 H   0  0  0  0  0  0  0  0  0  0  0  0
    6.6248   -2.4456   -0.8410 H   0  0  0  0  0  0  0  0  0  0  0  0
    6.0229   -3.2907   -3.0975 H   0  0  0  0  0  0  0  0  0  0  0  0
    4.6388   -4.8559   -1.6715 H   0  0  0  0  0  0  0  0  0  0  0  0
    3.8659   -4.1265   -3.7626 H   0  0  0  0  0  0  0  0  0  0  0  0
    2.4782   -1.0001   -2.7382 H   0  0  0  0  0  0  0  0  0  0  0  0
    2.6455   -1.1892   -0.4105 H   0  0  0  0  0  0  0  0  0  0  0  0
  1  2  1  0
  1 21  1  0
  1 22  1  0
  1 23  1  0
  3  2  1  6
  3 16  1  0
  3 19  1  0
  3  4  1  0
  4 18  1  0
  4  5  1  0
  4 24  1  6
  6  5  1  6
  5 25  1  0
  5 26  1  0
  6 17  1  0
  6 20  1  0
  6  7  1  0
  7  8  1  0
  7 27  1  0
  7 28  1  0
  8  9  1  0
  8 29  1  0
  8 30  1  0
  9 13  2  0
  9 10  1  0
 10 11  2  0
 10 31  1  0
 11 12  1  0
 11 32  1  0
 12 13  1  0
 13 14  1  0
 14 20  1  0
 14 15  1  0
 14 33  1  1
 15 16  1  0
 15 34  1  0
 15 35  1  0
 16 17  1  0
 16 36  1  6
 17 18  1  0
 17 37  1  6
 18 19  1  0
 18 38  1  6
 19 20  1  0
 19 39  1  6
 20 40  1  1
M  END
>  <i_m_ct_stereo_status>  (172) 
1

>  <s_m_source_file>  (172) 
/var/tmp/pbs.5076255.sched01/tmp06yssb5m/4267g10r58.sdf

>  <i_m_source_file_index>  (172) 
39

>  <i_lp_mmshare_version>  (172) 
48012

>  <i_f3d_flags>  (172) 
2

>  <s_epik_input>  (172) 
W0NAXTEyM1tDQEBIXTRbQ0BIXTVDNihPW0NIM10pW0NASF0oW0NIMl0xKVtDQEhdNFtDQEBIXTZbQ0BASF0zW0NASF0oW0NIMl01KWM3YyhbQ0gyXVtDSDJdMilbY0hdW2NIXW83

>  <s_epik_cmdline>  (172) 
J2VwaWtfcHl0aG9uJywgJy1waHQnLCAnMi4wJywgJy1waCcsICc3LjAnLCAnLXRuJywgJzgnLCAnLW1hJywgJzIwMCcsICctaW1hZScsICc8aW5maWxlLm1hZT4nLCAnLW9tYWUnLCAnPG91dGZpbGUubWFlPic=

>  <r_lp_tautomer_probability>  (172) 
1

>  <r_epik_Ionization_Penalty>  (172) 
8.29462e-11

>  <r_epik_Ionization_Penalty_Charging>  (172) 
0

>  <r_epik_Ionization_Penalty_Neutral>  (172) 
8.29462e-11

>  <r_epik_State_Penalty>  (172) 
-0

>  <r_epik_Charging_Adjusted_Penalty>  (172) 
0

>  <i_epik_Tot_Q>  (172) 
0

>  <i_epik_Tot_abs_Q>  (172) 
0

>  <s_lp_Force_Field>  (172) 
OPLS3e

>  <r_lp_Energy>  (172) 
381.852

>  <b_lp_Chiralities_Consistent>  (172) 
0

>  <s_lp_Variant>  (172) 
54:0-1

>  <s_i_glide_gridfile>  (172) 
pfpi4k_grid

>  <i_i_glide_lignum>  (172) 
39

>  <i_i_glide_rotatable_bonds>  (172) 
1

>  <r_i_docking_score>  (172) 
-4.58249

>  <r_i_glide_ligand_efficiency>  (172) 
-0.229124

>  <r_i_glide_ligand_efficiency_sa>  (172) 
-0.62194

>  <r_i_glide_ligand_efficiency_ln>  (172) 
-1.14685

>  <r_i_glide_gscore>  (172) 
-4.58249

>  <r_i_glide_lipo>  (172) 
-1.112

>  <r_i_glide_hbond>  (172) 
-0.430726

>  <r_i_glide_metal>  (172) 
-0

>  <r_i_glide_rewards>  (172) 
-1.57943

>  <r_i_glide_evdw>  (172) 
-19.647

>  <r_i_glide_ecoul>  (172) 
-3.18657

>  <r_i_glide_erotb>  (172) 
0

>  <r_i_glide_esite>  (172) 
0

>  <r_i_glide_emodel>  (172) 
-14.3889

>  <r_i_glide_energy>  (172) 
-22.8336

>  <r_i_glide_einternal>  (172) 
26.5283

>  <r_i_glide_intrahb_reward>  (172) 
-0

>  <i_i_glide_confnum>  (172) 
1

>  <i_i_glide_posenum>  (172) 
2

>  <r_i_glide_eff_state_penalty>  (172) 
0

>  <ligand_id>  (172) 
54

>  <original_smiles>  (172) 
COC12C3CC45CCc6ccoc6C6CC1C4C3C2C65

>  <smiles>  (172) 
[H]c1oc2c(c1[H])C([H])([H])C([H])([H])C13C([H])([H])C4([H])C5([H])C6([H])C1([H])C2([H])C([H])([H])C([H])(C53[H])C46OC([H])([H])[H]

$$$$
54:0:1
     RDKit          3D

 40 46  0  0  1  0  0  0  0  0999 V2000
    3.6046    0.5278   -4.3798 C   0  0  0  0  0  0  0  0  0  0  0  0
    4.2164    0.3418   -3.1138 O   0  0  0  0  0  0  0  0  0  0  0  0
    4.4282   -1.0011   -2.6962 C   0  0  1  0  0  0  0  0  0  0  0  0
    3.7218   -2.3700   -3.5436 C   0  0  1  0  0  0  0  0  0  0  0  0
    3.4099   -3.7802   -2.9003 C   0  0  0  0  0  0  0  0  0  0  0  0
    4.0110   -3.5707   -1.4098 C   0  0  1  0  0  0  0  0  0  0  0  0
    4.0232   -4.8261   -0.5133 C   0  0  0  0  0  0  0  0  0  0  0  0
    4.8587   -4.7620    0.7775 C   0  0  0  0  0  0  0  0  0  0  0  0
    4.4215   -3.7340    1.7817 C   0  0  0  0  0  0  0  0  0  0  0  0
    4.3379   -3.9159    3.1923 C   0  0  0  0  0  0  0  0  0  0  0  0
    3.9578   -2.7184    3.7172 C   0  0  0  0  0  0  0  0  0  0  0  0
    3.8092   -1.7911    2.7367 O   0  0  0  0  0  0  0  0  0  0  0  0
    4.0601   -2.4357    1.5654 C   0  0  0  0  0  0  0  0  0  0  0  0
    3.9388   -1.6018    0.3299 C   0  0  1  0  0  0  0  0  0  0  0  0
    5.2954   -1.0088   -0.1332 C   0  0  0  0  0  0  0  0  0  0  0  0
    5.5726   -1.3957   -1.6058 C   0  0  1  0  0  0  0  0  0  0  0  0
    5.3730   -2.9302   -1.7344 C   0  0  2  0  0  0  0  0  0  0  0  0
    4.8160   -2.3146   -2.8750 C   0  0  2  0  0  0  0  0  0  0  0  0
    3.4098   -1.5133   -2.0971 C   0  0  1  0  0  0  0  0  0  0  0  0
    3.2518   -2.3523   -0.8374 C   0  0  1  0  0  0  0  0  0  0  0  0
    3.5304    1.5983   -4.5730 H   0  0  0  0  0  0  0  0  0  0  0  0
    2.5958    0.1206   -4.4212 H   0  0  0  0  0  0  0  0  0  0  0  0
    4.2048    0.0857   -5.1680 H   0  0  0  0  0  0  0  0  0  0  0  0
    3.8298   -2.3737   -4.6288 H   0  0  0  0  0  0  0  0  0  0  0  0
    2.3335   -3.9854   -2.9031 H   0  0  0  0  0  0  0  0  0  0  0  0
    3.9601   -4.5172   -3.4934 H   0  0  0  0  0  0  0  0  0  0  0  0
    2.9900   -5.1023   -0.2733 H   0  0  0  0  0  0  0  0  0  0  0  0
    4.4473   -5.6396   -1.0993 H   0  0  0  0  0  0  0  0  0  0  0  0
    4.8068   -5.7344    1.2643 H   0  0  0  0  0  0  0  0  0  0  0  0
    5.9059   -4.5914    0.5335 H   0  0  0  0  0  0  0  0  0  0  0  0
    4.5465   -4.8115    3.7578 H   0  0  0  0  0  0  0  0  0  0  0  0
    3.7669   -2.3695    4.7192 H   0  0  0  0  0  0  0  0  0  0  0  0
    3.3021   -0.7523    0.5685 H   0  0  0  0  0  0  0  0  0  0  0  0
    5.3064    0.0740    0.0009 H   0  0  0  0  0  0  0  0  0  0  0  0
    6.1126   -1.3969    0.4790 H   0  0  0  0  0  0  0  0  0  0  0  0
    6.5702   -1.1168   -1.9147 H   0  0  0  0  0  0  0  0  0  0  0  0
    6.2332   -3.5637   -1.9653 H   0  0  0  0  0  0  0  0  0  0  0  0
    5.5049   -2.3333   -3.7806 H   0  0  0  0  0  0  0  0  0  0  0  0
    2.4785   -1.0509   -2.4847 H   0  0  0  0  0  0  0  0  0  0  0  0
    2.2139   -2.6145   -0.6177 H   0  0  0  0  0  0  0  0  0  0  0  0
  1  2  1  0
  1 21  1  0
  1 22  1  0
  1 23  1  0
  3  2  1  6
  3 16  1  0
  3 19  1  0
  3  4  1  0
  4 18  1  0
  4  5  1  0
  4 24  1  6
  6  5  1  6
  5 25  1  0
  5 26  1  0
  6 17  1  0
  6 20  1  0
  6  7  1  0
  7  8  1  0
  7 27  1  0
  7 28  1  0
  8  9  1  0
  8 29  1  0
  8 30  1  0
  9 13  2  0
  9 10  1  0
 10 11  2  0
 10 31  1  0
 11 12  1  0
 11 32  1  0
 12 13  1  0
 13 14  1  0
 14 20  1  0
 14 15  1  0
 14 33  1  1
 15 16  1  0
 15 34  1  0
 15 35  1  0
 16 17  1  0
 16 36  1  6
 17 18  1  0
 17 37  1  6
 18 19  1  0
 18 38  1  6
 19 20  1  0
 19 39  1  6
 20 40  1  1
M  END
>  <i_m_ct_stereo_status>  (173) 
1

>  <s_m_source_file>  (173) 
/var/tmp/pbs.5076255.sched01/tmp06yssb5m/4267g10r58.sdf

>  <i_m_source_file_index>  (173) 
39

>  <i_lp_mmshare_version>  (173) 
48012

>  <i_f3d_flags>  (173) 
2

>  <s_epik_input>  (173) 
W0NAXTEyM1tDQEBIXTRbQ0BIXTVDNihPW0NIM10pW0NASF0oW0NIMl0xKVtDQEhdNFtDQEBIXTZbQ0BASF0zW0NASF0oW0NIMl01KWM3YyhbQ0gyXVtDSDJdMilbY0hdW2NIXW83

>  <s_epik_cmdline>  (173) 
J2VwaWtfcHl0aG9uJywgJy1waHQnLCAnMi4wJywgJy1waCcsICc3LjAnLCAnLXRuJywgJzgnLCAnLW1hJywgJzIwMCcsICctaW1hZScsICc8aW5maWxlLm1hZT4nLCAnLW9tYWUnLCAnPG91dGZpbGUubWFlPic=

>  <r_lp_tautomer_probability>  (173) 
1

>  <r_epik_Ionization_Penalty>  (173) 
8.29462e-11

>  <r_epik_Ionization_Penalty_Charging>  (173) 
0

>  <r_epik_Ionization_Penalty_Neutral>  (173) 
8.29462e-11

>  <r_epik_State_Penalty>  (173) 
-0

>  <r_epik_Charging_Adjusted_Penalty>  (173) 
0

>  <i_epik_Tot_Q>  (173) 
0

>  <i_epik_Tot_abs_Q>  (173) 
0

>  <s_lp_Force_Field>  (173) 
OPLS3e

>  <r_lp_Energy>  (173) 
381.852

>  <b_lp_Chiralities_Consistent>  (173) 
0

>  <s_lp_Variant>  (173) 
54:0-1

>  <s_i_glide_gridfile>  (173) 
pfpi4k_grid

>  <i_i_glide_lignum>  (173) 
39

>  <i_i_glide_rotatable_bonds>  (173) 
1

>  <r_i_docking_score>  (173) 
-2.51181

>  <r_i_glide_ligand_efficiency>  (173) 
-0.125591

>  <r_i_glide_ligand_efficiency_sa>  (173) 
-0.340906

>  <r_i_glide_ligand_efficiency_ln>  (173) 
-0.628624

>  <r_i_glide_gscore>  (173) 
-2.51181

>  <r_i_glide_lipo>  (173) 
-0.444054

>  <r_i_glide_hbond>  (173) 
0

>  <r_i_glide_metal>  (173) 
-0

>  <r_i_glide_rewards>  (173) 
-1.57943

>  <r_i_glide_evdw>  (173) 
-12.0231

>  <r_i_glide_ecoul>  (173) 
0.752161

>  <r_i_glide_erotb>  (173) 
0

>  <r_i_glide_esite>  (173) 
0

>  <r_i_glide_emodel>  (173) 
-13.2829

>  <r_i_glide_energy>  (173) 
-11.2709

>  <r_i_glide_einternal>  (173) 
1.60764

>  <r_i_glide_intrahb_reward>  (173) 
-0

>  <i_i_glide_confnum>  (173) 
2

>  <i_i_glide_posenum>  (173) 
22

>  <r_i_glide_eff_state_penalty>  (173) 
0

>  <ligand_id>  (173) 
54

>  <original_smiles>  (173) 
COC12C3CC45CCc6ccoc6C6CC1C4C3C2C65

>  <smiles>  (173) 
[H]c1oc2c(c1[H])C([H])([H])C([H])([H])C13C([H])([H])C4([H])C5([H])C6([H])C1([H])C2([H])C([H])([H])C([H])(C53[H])C46OC([H])([H])[H]

$$$$
55:0:0
     RDKit          3D

 48 52  0  0  1  0  0  0  0  0999 V2000
    1.9405   -3.2706    2.5116 C   0  0  0  0  0  0  0  0  0  0  0  0
    3.0198   -3.5857    1.4579 C   0  0  2  0  0  0  0  0  0  0  0  0
    3.9031   -4.5965    1.9576 O   0  0  0  0  0  0  0  0  0  0  0  0
    5.0937   -4.2180    2.6481 C   0  0  1  0  0  0  0  0  0  0  0  0
    6.2114   -3.9679    1.6778 C   0  0  0  0  0  0  0  0  0  0  0  0
    7.2147   -4.9219    1.3993 C   0  0  0  0  0  0  0  0  0  0  0  0
    8.2281   -4.6048    0.4790 C   0  0  0  0  0  0  0  0  0  0  0  0
    8.2279   -3.3462   -0.1623 C   0  0  0  0  0  0  0  0  0  0  0  0
    7.2137   -2.4085    0.1245 C   0  0  0  0  0  0  0  0  0  0  0  0
    6.1960   -2.7182    1.0554 C   0  0  0  0  0  0  0  0  0  0  0  0
    5.0151   -1.8035    1.4305 C   0  0  2  0  0  0  0  0  0  0  0  0
    5.2793   -0.3679    0.9001 C   0  0  0  0  0  0  0  0  0  0  0  0
    4.8733   -1.7680    2.9814 C   0  0  0  0  0  0  0  0  0  0  0  0
    4.7056   -0.5814    3.7232 C   0  0  0  0  0  0  0  0  0  0  0  0
    4.6105   -0.7745    5.1227 C   0  0  0  0  0  0  0  0  0  0  0  0
    4.6735   -2.0496    5.7360 C   0  0  0  0  0  0  0  0  0  0  0  0
    4.8316   -3.2475    4.9969 C   0  0  0  0  0  0  0  0  0  0  0  0
    4.9209   -3.0420    3.6112 C   0  0  0  0  0  0  0  0  0  0  0  0
    3.6889   -2.3428    0.7689 C   0  0  1  0  0  0  0  0  0  0  0  0
    3.8172   -2.5600   -0.6980 N   0  0  0  0  0  0  0  0  0  0  0  0
    4.3281   -3.6715   -1.3211 C   0  0  0  0  0  0  0  0  0  0  0  0
    4.2538   -3.4508   -2.6682 C   0  0  0  0  0  0  0  0  0  0  0  0
    3.6992   -2.2109   -2.8282 N   0  0  0  0  0  0  0  0  0  0  0  0
    3.4261   -1.5503   -4.1075 C   0  0  0  0  0  0  0  0  0  0  0  0
    3.4273   -1.6683   -1.6301 C   0  0  0  0  0  0  0  0  0  0  0  0
    1.1946   -2.5907    2.1070 H   0  0  0  0  0  0  0  0  0  0  0  0
    2.3320   -2.8149    3.4170 H   0  0  0  0  0  0  0  0  0  0  0  0
    1.4307   -4.1887    2.8065 H   0  0  0  0  0  0  0  0  0  0  0  0
    2.4636   -4.1129    0.6802 H   0  0  0  0  0  0  0  0  0  0  0  0
    5.3841   -5.0856    3.2420 H   0  0  0  0  0  0  0  0  0  0  0  0
    7.2193   -5.8827    1.8947 H   0  0  0  0  0  0  0  0  0  0  0  0
    9.0084   -5.3215    0.2651 H   0  0  0  0  0  0  0  0  0  0  0  0
    9.0058   -3.0924   -0.8674 H   0  0  0  0  0  0  0  0  0  0  0  0
    7.2380   -1.4551   -0.3638 H   0  0  0  0  0  0  0  0  0  0  0  0
    6.1902    0.0332    1.3480 H   0  0  0  0  0  0  0  0  0  0  0  0
    4.4586    0.3149    1.1308 H   0  0  0  0  0  0  0  0  0  0  0  0
    5.4027   -0.3231   -0.1829 H   0  0  0  0  0  0  0  0  0  0  0  0
    4.6575    0.4077    3.2968 H   0  0  0  0  0  0  0  0  0  0  0  0
    4.4841    0.0942    5.7481 H   0  0  0  0  0  0  0  0  0  0  0  0
    4.5904   -2.1013    6.8118 H   0  0  0  0  0  0  0  0  0  0  0  0
    4.8774   -4.2185    5.4733 H   0  0  0  0  0  0  0  0  0  0  0  0
    2.9462   -1.5471    0.8686 H   0  0  0  0  0  0  0  0  0  0  0  0
    4.6847   -4.5331   -0.7727 H   0  0  0  0  0  0  0  0  0  0  0  0
    4.5354   -4.0910   -3.4975 H   0  0  0  0  0  0  0  0  0  0  0  0
    3.2295   -0.4796   -3.9747 H   0  0  0  0  0  0  0  0  0  0  0  0
    2.5629   -2.0397   -4.5680 H   0  0  0  0  0  0  0  0  0  0  0  0
    4.3012   -1.6810   -4.7519 H   0  0  0  0  0  0  0  0  0  0  0  0
    2.9641   -0.7132   -1.4643 H   0  0  0  0  0  0  0  0  0  0  0  0
  1  2  1  0
  1 26  1  0
  1 27  1  0
  1 28  1  0
  2 19  1  0
  2  3  1  0
  2 29  1  6
  3  4  1  0
  4 18  1  0
  4  5  1  0
  4 30  1  1
  5 10  1  0
  5  6  2  0
  6  7  1  0
  6 31  1  0
  7  8  2  0
  7 32  1  0
  8  9  1  0
  8 33  1  0
  9 10  2  0
  9 34  1  0
 10 11  1  0
 11 12  1  6
 11 13  1  0
 11 19  1  0
 12 35  1  0
 12 36  1  0
 12 37  1  0
 13 18  2  0
 13 14  1  0
 14 15  2  0
 14 38  1  0
 15 16  1  0
 15 39  1  0
 16 17  2  0
 16 40  1  0
 17 18  1  0
 17 41  1  0
 19 20  1  0
 19 42  1  6
 20 25  2  0
 20 21  1  0
 21 22  2  0
 21 43  1  0
 22 23  1  0
 22 44  1  0
 23 24  1  0
 23 25  1  0
 24 45  1  0
 24 46  1  0
 24 47  1  0
 25 48  1  0
M  CHG  1  20   1
M  END
>  <i_m_ct_stereo_status>  (174) 
1

>  <s_m_source_file>  (174) 
/var/tmp/pbs.5076255.sched01/tmp06yssb5m/4267g10r58.sdf

>  <i_m_source_file_index>  (174) 
40

>  <i_lp_mmshare_version>  (174) 
48012

>  <i_f3d_flags>  (174) 
0

>  <s_epik_input>  (174) 
W0NIM11uKFtjSF0xKVtjSF1bY0hdW24rXTFbQ0BIXTJbQ0BIXShbQ0gzXSlPW0NAQEhdKGMoYzNbQ0BAXTI0W0NIM10pW2NIXVtjSF1bY0hdW2NIXTMpYzVjNFtjSF1bY0hdW2NIXVtjSF01

>  <s_epik_cmdline>  (174) 
J2VwaWtfcHl0aG9uJywgJy1waHQnLCAnMi4wJywgJy1waCcsICc3LjAnLCAnLXRuJywgJzgnLCAnLW1hJywgJzIwMCcsICctaW1hZScsICc8aW5maWxlLm1hZT4nLCAnLW9tYWUnLCAnPG91dGZpbGUubWFlPic=

>  <r_lp_tautomer_probability>  (174) 
1

>  <r_epik_Ionization_Penalty>  (174) 
5.80172e-14

>  <r_epik_Ionization_Penalty_Charging>  (174) 
0

>  <r_epik_Ionization_Penalty_Neutral>  (174) 
5.80172e-14

>  <r_epik_State_Penalty>  (174) 
-0

>  <r_epik_Charging_Adjusted_Penalty>  (174) 
0

>  <i_epik_Tot_Q>  (174) 
1

>  <i_epik_Tot_abs_Q>  (174) 
1

>  <s_lp_Force_Field>  (174) 
OPLS3e

>  <r_lp_Energy>  (174) 
48.7898

>  <b_lp_Chiralities_Consistent>  (174) 
1

>  <s_lp_Variant>  (174) 
55:0-1

>  <s_i_glide_gridfile>  (174) 
pfpi4k_grid

>  <i_i_glide_lignum>  (174) 
40

>  <i_i_glide_rotatable_bonds>  (174) 
1

>  <r_i_docking_score>  (174) 
-3.97009

>  <r_i_glide_ligand_efficiency>  (174) 
-0.158804

>  <r_i_glide_ligand_efficiency_sa>  (174) 
-0.464345

>  <r_i_glide_ligand_efficiency_ln>  (174) 
-0.941031

>  <r_i_glide_gscore>  (174) 
-3.97009

>  <r_i_glide_lipo>  (174) 
-1.15394

>  <r_i_glide_hbond>  (174) 
0

>  <r_i_glide_metal>  (174) 
-0

>  <r_i_glide_rewards>  (174) 
-1.1984

>  <r_i_glide_evdw>  (174) 
-24.8904

>  <r_i_glide_ecoul>  (174) 
-2.85006

>  <r_i_glide_erotb>  (174) 
0.171341

>  <r_i_glide_esite>  (174) 
-0.117071

>  <r_i_glide_emodel>  (174) 
-34.9598

>  <r_i_glide_energy>  (174) 
-27.7405

>  <r_i_glide_einternal>  (174) 
0.0199933

>  <r_i_glide_intrahb_reward>  (174) 
-0

>  <i_i_glide_confnum>  (174) 
6

>  <i_i_glide_posenum>  (174) 
37

>  <r_i_glide_eff_state_penalty>  (174) 
0

>  <ligand_id>  (174) 
55

>  <original_smiles>  (174) 
CC1OC2c3ccccc3C(C)(c3ccccc32)C1[n+]1ccn(C)c1

>  <smiles>  (174) 
[H]c1c([H])c([H])c2c(c1[H])C1([H])OC([H])(C([H])([H])[H])C([H])([n+]3c([H])c([H])n(C([H])([H])[H])c3[H])C2(C([H])([H])[H])c2c([H])c([H])c([H])c([H])c21

$$$$
55:0:1
     RDKit          3D

 48 52  0  0  1  0  0  0  0  0999 V2000
    2.3656   -5.4787    1.4002 C   0  0  0  0  0  0  0  0  0  0  0  0
    3.5336   -4.9654    0.5406 C   0  0  2  0  0  0  0  0  0  0  0  0
    4.7357   -5.6636    0.8836 O   0  0  0  0  0  0  0  0  0  0  0  0
    5.6114   -5.1118    1.8656 C   0  0  1  0  0  0  0  0  0  0  0  0
    6.5612   -4.1391    1.2320 C   0  0  0  0  0  0  0  0  0  0  0  0
    7.8882   -4.4779    0.8942 C   0  0  0  0  0  0  0  0  0  0  0  0
    8.7109   -3.4942    0.3128 C   0  0  0  0  0  0  0  0  0  0  0  0
    8.2113   -2.2036    0.0759 C   0  0  0  0  0  0  0  0  0  0  0  0
    6.8816   -1.8799    0.4080 C   0  0  0  0  0  0  0  0  0  0  0  0
    6.0443   -2.8586    0.9963 C   0  0  0  0  0  0  0  0  0  0  0  0
    4.5712   -2.6525    1.3917 C   0  0  2  0  0  0  0  0  0  0  0  0
    4.2328   -1.1337    1.3648 C   0  0  0  0  0  0  0  0  0  0  0  0
    4.3440   -3.2065    2.8306 C   0  0  0  0  0  0  0  0  0  0  0  0
    3.6427   -2.5074    3.8325 C   0  0  0  0  0  0  0  0  0  0  0  0
    3.5599   -3.1813    5.0740 C   0  0  0  0  0  0  0  0  0  0  0  0
    4.1302   -4.4596    5.3003 C   0  0  0  0  0  0  0  0  0  0  0  0
    4.8285   -5.1745    4.2970 C   0  0  0  0  0  0  0  0  0  0  0  0
    4.9017   -4.4975    3.0711 C   0  0  0  0  0  0  0  0  0  0  0  0
    3.6441   -3.4054    0.3624 C   0  0  1  0  0  0  0  0  0  0  0  0
    3.9266   -3.0492   -1.0566 N   0  0  0  0  0  0  0  0  0  0  0  0
    4.7274   -3.7442   -1.9297 C   0  0  0  0  0  0  0  0  0  0  0  0
    4.6972   -3.0812   -3.1227 C   0  0  0  0  0  0  0  0  0  0  0  0
    3.9000   -1.9827   -2.9454 N   0  0  0  0  0  0  0  0  0  0  0  0
    3.5954   -0.9617   -3.9555 C   0  0  0  0  0  0  0  0  0  0  0  0
    3.4184   -1.9738   -1.6915 C   0  0  0  0  0  0  0  0  0  0  0  0
    1.4233   -5.0690    1.0464 H   0  0  0  0  0  0  0  0  0  0  0  0
    2.4641   -5.2376    2.4559 H   0  0  0  0  0  0  0  0  0  0  0  0
    2.2920   -6.5645    1.3158 H   0  0  0  0  0  0  0  0  0  0  0  0
    3.2869   -5.3849   -0.4319 H   0  0  0  0  0  0  0  0  0  0  0  0
    6.2104   -5.9434    2.2309 H   0  0  0  0  0  0  0  0  0  0  0  0
    8.2784   -5.4656    1.0949 H   0  0  0  0  0  0  0  0  0  0  0  0
    9.7345   -3.7033    0.0530 H   0  0  0  0  0  0  0  0  0  0  0  0
    8.8728   -1.4576   -0.3393 H   0  0  0  0  0  0  0  0  0  0  0  0
    6.5298   -0.8801    0.2192 H   0  0  0  0  0  0  0  0  0  0  0  0
    4.8488   -0.5880    2.0824 H   0  0  0  0  0  0  0  0  0  0  0  0
    3.1865   -0.9479    1.6087 H   0  0  0  0  0  0  0  0  0  0  0  0
    4.3968   -0.6692    0.3936 H   0  0  0  0  0  0  0  0  0  0  0  0
    3.2000   -1.5268    3.7016 H   0  0  0  0  0  0  0  0  0  0  0  0
    3.0417   -2.6971    5.8824 H   0  0  0  0  0  0  0  0  0  0  0  0
    4.0193   -4.9000    6.2792 H   0  0  0  0  0  0  0  0  0  0  0  0
    5.2611   -6.1556    4.4775 H   0  0  0  0  0  0  0  0  0  0  0  0
    2.6298   -3.0426    0.5381 H   0  0  0  0  0  0  0  0  0  0  0  0
    5.2290   -4.6609   -1.6554 H   0  0  0  0  0  0  0  0  0  0  0  0
    5.1785   -3.3257   -4.0587 H   0  0  0  0  0  0  0  0  0  0  0  0
    3.1739   -0.0610   -3.4934 H   0  0  0  0  0  0  0  0  0  0  0  0
    2.8861   -1.3748   -4.6787 H   0  0  0  0  0  0  0  0  0  0  0  0
    4.5186   -0.6986   -4.4820 H   0  0  0  0  0  0  0  0  0  0  0  0
    2.7519   -1.2259   -1.2802 H   0  0  0  0  0  0  0  0  0  0  0  0
  1  2  1  0
  1 26  1  0
  1 27  1  0
  1 28  1  0
  2 19  1  0
  2  3  1  0
  2 29  1  6
  3  4  1  0
  4 18  1  0
  4  5  1  0
  4 30  1  1
  5 10  1  0
  5  6  2  0
  6  7  1  0
  6 31  1  0
  7  8  2  0
  7 32  1  0
  8  9  1  0
  8 33  1  0
  9 10  2  0
  9 34  1  0
 10 11  1  0
 11 12  1  1
 11 13  1  0
 11 19  1  0
 12 35  1  0
 12 36  1  0
 12 37  1  0
 13 18  2  0
 13 14  1  0
 14 15  2  0
 14 38  1  0
 15 16  1  0
 15 39  1  0
 16 17  2  0
 16 40  1  0
 17 18  1  0
 17 41  1  0
 19 20  1  0
 19 42  1  1
 20 25  2  0
 20 21  1  0
 21 22  2  0
 21 43  1  0
 22 23  1  0
 22 44  1  0
 23 24  1  0
 23 25  1  0
 24 45  1  0
 24 46  1  0
 24 47  1  0
 25 48  1  0
M  CHG  1  20   1
M  END
>  <i_m_ct_stereo_status>  (175) 
1

>  <s_m_source_file>  (175) 
/var/tmp/pbs.5076255.sched01/tmp06yssb5m/4267g10r58.sdf

>  <i_m_source_file_index>  (175) 
40

>  <i_lp_mmshare_version>  (175) 
48012

>  <i_f3d_flags>  (175) 
0

>  <s_epik_input>  (175) 
W0NIM11uKFtjSF0xKVtjSF1bY0hdW24rXTFbQ0BIXTJbQ0BIXShbQ0gzXSlPW0NAQEhdKGMoYzNbQ0BAXTI0W0NIM10pW2NIXVtjSF1bY0hdW2NIXTMpYzVjNFtjSF1bY0hdW2NIXVtjSF01

>  <s_epik_cmdline>  (175) 
J2VwaWtfcHl0aG9uJywgJy1waHQnLCAnMi4wJywgJy1waCcsICc3LjAnLCAnLXRuJywgJzgnLCAnLW1hJywgJzIwMCcsICctaW1hZScsICc8aW5maWxlLm1hZT4nLCAnLW9tYWUnLCAnPG91dGZpbGUubWFlPic=

>  <r_lp_tautomer_probability>  (175) 
1

>  <r_epik_Ionization_Penalty>  (175) 
5.80172e-14

>  <r_epik_Ionization_Penalty_Charging>  (175) 
0

>  <r_epik_Ionization_Penalty_Neutral>  (175) 
5.80172e-14

>  <r_epik_State_Penalty>  (175) 
-0

>  <r_epik_Charging_Adjusted_Penalty>  (175) 
0

>  <i_epik_Tot_Q>  (175) 
1

>  <i_epik_Tot_abs_Q>  (175) 
1

>  <s_lp_Force_Field>  (175) 
OPLS3e

>  <r_lp_Energy>  (175) 
48.7898

>  <b_lp_Chiralities_Consistent>  (175) 
1

>  <s_lp_Variant>  (175) 
55:0-1

>  <s_i_glide_gridfile>  (175) 
pfpi4k_grid

>  <i_i_glide_lignum>  (175) 
40

>  <i_i_glide_rotatable_bonds>  (175) 
1

>  <r_i_docking_score>  (175) 
-3.65392

>  <r_i_glide_ligand_efficiency>  (175) 
-0.146157

>  <r_i_glide_ligand_efficiency_sa>  (175) 
-0.427365

>  <r_i_glide_ligand_efficiency_ln>  (175) 
-0.866088

>  <r_i_glide_gscore>  (175) 
-3.65392

>  <r_i_glide_lipo>  (175) 
-0.94277

>  <r_i_glide_hbond>  (175) 
0

>  <r_i_glide_metal>  (175) 
-0

>  <r_i_glide_rewards>  (175) 
-1.23123

>  <r_i_glide_evdw>  (175) 
-25.7468

>  <r_i_glide_ecoul>  (175) 
-1.90766

>  <r_i_glide_erotb>  (175) 
0.171341

>  <r_i_glide_esite>  (175) 
-0.077772

>  <r_i_glide_emodel>  (175) 
-34.006

>  <r_i_glide_energy>  (175) 
-27.6544

>  <r_i_glide_einternal>  (175) 
0.278104

>  <r_i_glide_intrahb_reward>  (175) 
-0

>  <i_i_glide_confnum>  (175) 
6

>  <i_i_glide_posenum>  (175) 
36

>  <r_i_glide_eff_state_penalty>  (175) 
0

>  <ligand_id>  (175) 
55

>  <original_smiles>  (175) 
CC1OC2c3ccccc3C(C)(c3ccccc32)C1[n+]1ccn(C)c1

>  <smiles>  (175) 
[H]c1c([H])c([H])c2c(c1[H])C1([H])OC([H])(C([H])([H])[H])C([H])([n+]3c([H])c([H])n(C([H])([H])[H])c3[H])C2(C([H])([H])[H])c2c([H])c([H])c([H])c([H])c21

$$$$
55:0:2
     RDKit          3D

 48 52  0  0  1  0  0  0  0  0999 V2000
    1.5593   -2.4639    2.6314 C   0  0  0  0  0  0  0  0  0  0  0  0
    2.6162   -3.1025    1.7040 C   0  0  2  0  0  0  0  0  0  0  0  0
    3.1898   -4.2517    2.3370 O   0  0  0  0  0  0  0  0  0  0  0  0
    4.3743   -4.1162    3.1209 C   0  0  1  0  0  0  0  0  0  0  0  0
    5.5988   -4.2054    2.2552 C   0  0  0  0  0  0  0  0  0  0  0  0
    6.3564   -5.3883    2.1171 C   0  0  0  0  0  0  0  0  0  0  0  0
    7.4825   -5.3881    1.2713 C   0  0  0  0  0  0  0  0  0  0  0  0
    7.8314   -4.2163    0.5711 C   0  0  0  0  0  0  0  0  0  0  0  0
    7.0626   -3.0428    0.7165 C   0  0  0  0  0  0  0  0  0  0  0  0
    5.9341   -3.0337    1.5728 C   0  0  0  0  0  0  0  0  0  0  0  0
    4.9740   -1.8468    1.7770 C   0  0  2  0  0  0  0  0  0  0  0  0
    5.6153   -0.5602    1.1960 C   0  0  0  0  0  0  0  0  0  0  0  0
    4.7219   -1.6654    3.3044 C   0  0  0  0  0  0  0  0  0  0  0  0
    4.7922   -0.4222    3.9646 C   0  0  0  0  0  0  0  0  0  0  0  0
    4.5471   -0.4856    5.3577 C   0  0  0  0  0  0  0  0  0  0  0  0
    4.2521   -1.6925    6.0394 C   0  0  0  0  0  0  0  0  0  0  0  0
    4.1706   -2.9437    5.3811 C   0  0  0  0  0  0  0  0  0  0  0  0
    4.4128   -2.8662    4.0013 C   0  0  0  0  0  0  0  0  0  0  0  0
    3.6136   -2.1069    1.0172 C   0  0  1  0  0  0  0  0  0  0  0  0
    3.7995   -2.4431   -0.4234 N   0  0  0  0  0  0  0  0  0  0  0  0
    4.3199   -3.6049   -0.9369 C   0  0  0  0  0  0  0  0  0  0  0  0
    4.3280   -3.4795   -2.2951 C   0  0  0  0  0  0  0  0  0  0  0  0
    3.7559   -2.2759   -2.5798 N   0  0  0  0  0  0  0  0  0  0  0  0
    3.5133   -1.7522   -3.9268 C   0  0  0  0  0  0  0  0  0  0  0  0
    3.4310   -1.6376   -1.4419 C   0  0  0  0  0  0  0  0  0  0  0  0
    1.0144   -1.6734    2.1170 H   0  0  0  0  0  0  0  0  0  0  0  0
    1.9753   -2.0406    3.5428 H   0  0  0  0  0  0  0  0  0  0  0  0
    0.8282   -3.2132    2.9358 H   0  0  0  0  0  0  0  0  0  0  0  0
    2.0274   -3.5413    0.8996 H   0  0  0  0  0  0  0  0  0  0  0  0
    4.3937   -4.9838    3.7819 H   0  0  0  0  0  0  0  0  0  0  0  0
    6.0832   -6.2869    2.6495 H   0  0  0  0  0  0  0  0  0  0  0  0
    8.0813   -6.2812    1.1609 H   0  0  0  0  0  0  0  0  0  0  0  0
    8.6876   -4.2106   -0.0845 H   0  0  0  0  0  0  0  0  0  0  0  0
    7.3552   -2.1716    0.1595 H   0  0  0  0  0  0  0  0  0  0  0  0
    6.5549   -0.3611    1.7143 H   0  0  0  0  0  0  0  0  0  0  0  0
    4.9662    0.3092    1.3125 H   0  0  0  0  0  0  0  0  0  0  0  0
    5.8283   -0.6279    0.1279 H   0  0  0  0  0  0  0  0  0  0  0  0
    5.0210    0.5157    3.4847 H   0  0  0  0  0  0  0  0  0  0  0  0
    4.5883    0.4314    5.9232 H   0  0  0  0  0  0  0  0  0  0  0  0
    4.0772   -1.6470    7.1044 H   0  0  0  0  0  0  0  0  0  0  0  0
    3.9458   -3.8623    5.9070 H   0  0  0  0  0  0  0  0  0  0  0  0
    3.0809   -1.1535    1.0168 H   0  0  0  0  0  0  0  0  0  0  0  0
    4.6499   -4.4269   -0.3171 H   0  0  0  0  0  0  0  0  0  0  0  0
    4.6578   -4.1818   -3.0537 H   0  0  0  0  0  0  0  0  0  0  0  0
    3.2960   -0.6793   -3.9033 H   0  0  0  0  0  0  0  0  0  0  0  0
    2.6715   -2.3025   -4.3633 H   0  0  0  0  0  0  0  0  0  0  0  0
    4.4090   -1.9319   -4.5330 H   0  0  0  0  0  0  0  0  0  0  0  0
    2.9449   -0.6833   -1.3755 H   0  0  0  0  0  0  0  0  0  0  0  0
  1  2  1  0
  1 26  1  0
  1 27  1  0
  1 28  1  0
  2 19  1  0
  2  3  1  0
  2 29  1  6
  3  4  1  0
  4 18  1  0
  4  5  1  0
  4 30  1  1
  5 10  1  0
  5  6  2  0
  6  7  1  0
  6 31  1  0
  7  8  2  0
  7 32  1  0
  8  9  1  0
  8 33  1  0
  9 10  2  0
  9 34  1  0
 10 11  1  0
 11 12  1  6
 11 13  1  0
 11 19  1  0
 12 35  1  0
 12 36  1  0
 12 37  1  0
 13 18  2  0
 13 14  1  0
 14 15  2  0
 14 38  1  0
 15 16  1  0
 15 39  1  0
 16 17  2  0
 16 40  1  0
 17 18  1  0
 17 41  1  0
 19 20  1  0
 19 42  1  6
 20 25  2  0
 20 21  1  0
 21 22  2  0
 21 43  1  0
 22 23  1  0
 22 44  1  0
 23 24  1  0
 23 25  1  0
 24 45  1  0
 24 46  1  0
 24 47  1  0
 25 48  1  0
M  CHG  1  20   1
M  END
>  <i_m_ct_stereo_status>  (176) 
1

>  <s_m_source_file>  (176) 
/var/tmp/pbs.5076255.sched01/tmp06yssb5m/4267g10r58.sdf

>  <i_m_source_file_index>  (176) 
40

>  <i_lp_mmshare_version>  (176) 
48012

>  <i_f3d_flags>  (176) 
0

>  <s_epik_input>  (176) 
W0NIM11uKFtjSF0xKVtjSF1bY0hdW24rXTFbQ0BIXTJbQ0BIXShbQ0gzXSlPW0NAQEhdKGMoYzNbQ0BAXTI0W0NIM10pW2NIXVtjSF1bY0hdW2NIXTMpYzVjNFtjSF1bY0hdW2NIXVtjSF01

>  <s_epik_cmdline>  (176) 
J2VwaWtfcHl0aG9uJywgJy1waHQnLCAnMi4wJywgJy1waCcsICc3LjAnLCAnLXRuJywgJzgnLCAnLW1hJywgJzIwMCcsICctaW1hZScsICc8aW5maWxlLm1hZT4nLCAnLW9tYWUnLCAnPG91dGZpbGUubWFlPic=

>  <r_lp_tautomer_probability>  (176) 
1

>  <r_epik_Ionization_Penalty>  (176) 
5.80172e-14

>  <r_epik_Ionization_Penalty_Charging>  (176) 
0

>  <r_epik_Ionization_Penalty_Neutral>  (176) 
5.80172e-14

>  <r_epik_State_Penalty>  (176) 
-0

>  <r_epik_Charging_Adjusted_Penalty>  (176) 
0

>  <i_epik_Tot_Q>  (176) 
1

>  <i_epik_Tot_abs_Q>  (176) 
1

>  <s_lp_Force_Field>  (176) 
OPLS3e

>  <r_lp_Energy>  (176) 
48.7898

>  <b_lp_Chiralities_Consistent>  (176) 
1

>  <s_lp_Variant>  (176) 
55:0-1

>  <s_i_glide_gridfile>  (176) 
pfpi4k_grid

>  <i_i_glide_lignum>  (176) 
40

>  <i_i_glide_rotatable_bonds>  (176) 
1

>  <r_i_docking_score>  (176) 
-3.65143

>  <r_i_glide_ligand_efficiency>  (176) 
-0.146057

>  <r_i_glide_ligand_efficiency_sa>  (176) 
-0.427074

>  <r_i_glide_ligand_efficiency_ln>  (176) 
-0.865499

>  <r_i_glide_gscore>  (176) 
-3.65143

>  <r_i_glide_lipo>  (176) 
-0.937225

>  <r_i_glide_hbond>  (176) 
0

>  <r_i_glide_metal>  (176) 
-0

>  <r_i_glide_rewards>  (176) 
-1.15548

>  <r_i_glide_evdw>  (176) 
-22.2011

>  <r_i_glide_ecoul>  (176) 
-3.29185

>  <r_i_glide_erotb>  (176) 
0.171341

>  <r_i_glide_esite>  (176) 
-0.126233

>  <r_i_glide_emodel>  (176) 
-31.533

>  <r_i_glide_energy>  (176) 
-25.4929

>  <r_i_glide_einternal>  (176) 
0.834775

>  <r_i_glide_intrahb_reward>  (176) 
-0

>  <i_i_glide_confnum>  (176) 
6

>  <i_i_glide_posenum>  (176) 
20

>  <r_i_glide_eff_state_penalty>  (176) 
0

>  <ligand_id>  (176) 
55

>  <original_smiles>  (176) 
CC1OC2c3ccccc3C(C)(c3ccccc32)C1[n+]1ccn(C)c1

>  <smiles>  (176) 
[H]c1c([H])c([H])c2c(c1[H])C1([H])OC([H])(C([H])([H])[H])C([H])([n+]3c([H])c([H])n(C([H])([H])[H])c3[H])C2(C([H])([H])[H])c2c([H])c([H])c([H])c([H])c21

$$$$
56:0:0
     RDKit          3D

 44 46  0  0  1  0  0  0  0  0999 V2000
    1.2978    2.9484    5.5245 C   0  0  0  0  0  0  0  0  0  0  0  0
    1.2480    2.2407    4.2182 C   0  0  0  0  0  0  0  0  0  0  0  0
    0.5827    1.1425    3.6866 C   0  0  0  0  0  0  0  0  0  0  0  0
   -0.4266    0.1319    4.2728 C   0  0  2  0  0  0  0  0  0  0  0  0
   -1.7381    0.6658    4.6899 N   0  0  0  0  0  0  0  0  0  0  0  0
   -1.7641    1.3351    5.9210 C   0  0  0  0  0  0  0  0  0  0  0  0
   -2.5064    2.5135    6.1150 C   0  0  0  0  0  0  0  0  0  0  0  0
   -2.4028    3.2390    7.3215 C   0  0  0  0  0  0  0  0  0  0  0  0
   -1.5602    2.7743    8.3450 C   0  0  0  0  0  0  0  0  0  0  0  0
   -0.8135    1.6008    8.1539 C   0  0  0  0  0  0  0  0  0  0  0  0
   -0.9416    0.8396    6.9536 C   0  0  0  0  0  0  0  0  0  0  0  0
    0.0484   -0.2688    6.6689 C   0  0  0  0  0  0  0  0  0  0  0  0
    0.6822   -0.7336    7.6117 O   0  0  0  0  0  0  0  0  0  0  0  0
    0.1323   -0.7065    5.3777 N   0  0  0  0  0  0  0  0  0  0  0  0
    0.9699   -1.9300    5.0180 C   0  0  0  0  0  0  0  0  0  0  0  0
    0.5137   -3.1389    5.8639 C   0  0  0  0  0  0  0  0  0  0  0  0
    2.4768   -1.6603    5.2499 C   0  0  0  0  0  0  0  0  0  0  0  0
    0.8403   -2.3750    3.5453 C   0  0  0  0  0  0  0  0  0  0  0  0
    1.0853    1.0962    2.3226 C   0  0  0  0  0  0  0  0  0  0  0  0
    1.9805    2.0402    2.0794 N   0  0  0  0  0  0  0  0  0  0  0  0
    2.0519    2.7537    3.2077 N   0  0  0  0  0  0  0  0  0  0  0  0
    2.9044    3.9165    3.3290 C   0  0  0  0  0  0  0  0  0  0  0  0
    2.1890    4.9971    3.6595 F   0  0  0  0  0  0  0  0  0  0  0  0
    3.8277    3.7132    4.2762 F   0  0  0  0  0  0  0  0  0  0  0  0
    0.6726    2.4462    6.2221 H   0  0  0  0  0  0  0  0  0  0  0  0
    0.8904    3.9682    5.4487 H   0  0  0  0  0  0  0  0  0  0  0  0
    2.2970    2.9072    5.9843 H   0  0  0  0  0  0  0  0  0  0  0  0
   -0.7450   -0.5085    3.4594 H   0  0  0  0  0  0  0  0  0  0  0  0
   -2.3138    1.0361    3.9279 H   0  0  0  0  0  0  0  0  0  0  0  0
   -3.0834    2.9396    5.2984 H   0  0  0  0  0  0  0  0  0  0  0  0
   -2.9426    4.1578    7.4505 H   0  0  0  0  0  0  0  0  0  0  0  0
   -1.3756    3.4061    9.2081 H   0  0  0  0  0  0  0  0  0  0  0  0
   -0.0582    1.3495    8.8799 H   0  0  0  0  0  0  0  0  0  0  0  0
    1.0062   -4.0519    5.5342 H   0  0  0  0  0  0  0  0  0  0  0  0
   -0.5580   -3.3091    5.7740 H   0  0  0  0  0  0  0  0  0  0  0  0
    0.7541   -3.0433    6.9197 H   0  0  0  0  0  0  0  0  0  0  0  0
    2.7207   -1.4790    6.2966 H   0  0  0  0  0  0  0  0  0  0  0  0
    2.8299   -0.8063    4.6661 H   0  0  0  0  0  0  0  0  0  0  0  0
    3.0734   -2.5276    4.9460 H   0  0  0  0  0  0  0  0  0  0  0  0
    1.4418   -3.2639    3.3486 H   0  0  0  0  0  0  0  0  0  0  0  0
    1.1846   -1.6245    2.8328 H   0  0  0  0  0  0  0  0  0  0  0  0
   -0.1839   -2.6492    3.3012 H   0  0  0  0  0  0  0  0  0  0  0  0
    0.8552    0.4122    1.5174 H   0  0  0  0  0  0  0  0  0  0  0  0
    3.4110    4.1209    2.3760 H   0  0  0  0  0  0  0  0  0  0  0  0
  1  2  1  0
  1 25  1  0
  1 26  1  0
  1 27  1  0
  2 21  1  0
  2  3  2  0
  3  4  1  0
  3 19  1  0
  4 14  1  0
  4  5  1  0
  4 28  1  6
  5  6  1  0
  5 29  1  0
  6 11  2  0
  6  7  1  0
  7  8  2  0
  7 30  1  0
  8  9  1  0
  8 31  1  0
  9 10  2  0
  9 32  1  0
 10 11  1  0
 10 33  1  0
 11 12  1  0
 12 13  2  0
 12 14  1  0
 14 15  1  0
 15 16  1  0
 15 17  1  0
 15 18  1  0
 16 34  1  0
 16 35  1  0
 16 36  1  0
 17 37  1  0
 17 38  1  0
 17 39  1  0
 18 40  1  0
 18 41  1  0
 18 42  1  0
 19 20  2  0
 19 43  1  0
 20 21  1  0
 21 22  1  0
 22 23  1  0
 22 24  1  0
 22 44  1  0
M  END
>  <i_m_ct_stereo_status>  (177) 
1

>  <s_m_source_file>  (177) 
/var/tmp/pbs.5076255.sched01/tmp06yssb5m/4267g10r58.sdf

>  <i_m_source_file_index>  (177) 
41

>  <i_lp_mmshare_version>  (177) 
48012

>  <i_f3d_flags>  (177) 
0

>  <s_epik_input>  (177) 
RltDSF0oRiluMW5bY0hdYyhjMVtDSDNdKVtDQEhdKFtOSF0yKU4oQyhbQ0gzXSkoW0NIM10pW0NIM10pQyg9TyljKGMyMylbY0hdW2NIXVtjSF1bY0hdMw==

>  <s_epik_cmdline>  (177) 
J2VwaWtfcHl0aG9uJywgJy1waHQnLCAnMi4wJywgJy1waCcsICc3LjAnLCAnLXRuJywgJzgnLCAnLW1hJywgJzIwMCcsICctaW1hZScsICc8aW5maWxlLm1hZT4nLCAnLW9tYWUnLCAnPG91dGZpbGUubWFlPic=

>  <r_lp_tautomer_probability>  (177) 
1

>  <r_epik_Ionization_Penalty>  (177) 
1.1385e-06

>  <r_epik_Ionization_Penalty_Charging>  (177) 
0

>  <r_epik_Ionization_Penalty_Neutral>  (177) 
1.1385e-06

>  <r_epik_State_Penalty>  (177) 
-0

>  <r_epik_Charging_Adjusted_Penalty>  (177) 
0

>  <i_epik_Tot_Q>  (177) 
0

>  <i_epik_Tot_abs_Q>  (177) 
0

>  <s_epik_Chemistry_Notes>  (177) 
This compound contains an acetal/aminal-like group ( X-CH(R)-Y where X, Y are N, S, or O) that may be acid/base labile, releasing an aldehyde.

>  <s_lp_Force_Field>  (177) 
OPLS3e

>  <r_lp_Energy>  (177) 
31.6206

>  <b_lp_Chiralities_Consistent>  (177) 
1

>  <s_lp_Variant>  (177) 
56:0-1

>  <s_i_glide_gridfile>  (177) 
pfpi4k_grid

>  <i_i_glide_lignum>  (177) 
41

>  <i_i_glide_rotatable_bonds>  (177) 
3

>  <r_i_docking_score>  (177) 
-3.07621

>  <r_i_glide_ligand_efficiency>  (177) 
-0.128176

>  <r_i_glide_ligand_efficiency_sa>  (177) 
-0.369722

>  <r_i_glide_ligand_efficiency_ln>  (177) 
-0.736279

>  <r_i_glide_gscore>  (177) 
-3.07621

>  <r_i_glide_lipo>  (177) 
-0.259367

>  <r_i_glide_hbond>  (177) 
-0.119357

>  <r_i_glide_metal>  (177) 
-0

>  <r_i_glide_rewards>  (177) 
-1.12934

>  <r_i_glide_evdw>  (177) 
-20.0817

>  <r_i_glide_ecoul>  (177) 
-3.68506

>  <r_i_glide_erotb>  (177) 
0.168692

>  <r_i_glide_esite>  (177) 
-0.179998

>  <r_i_glide_emodel>  (177) 
-26.2229

>  <r_i_glide_energy>  (177) 
-23.7667

>  <r_i_glide_einternal>  (177) 
2.35693

>  <r_i_glide_intrahb_reward>  (177) 
-0

>  <i_i_glide_confnum>  (177) 
4

>  <i_i_glide_posenum>  (177) 
37

>  <r_i_glide_eff_state_penalty>  (177) 
0

>  <ligand_id>  (177) 
56

>  <original_smiles>  (177) 
Cc1c(C2Nc3ccccc3C(=O)N2C(C)(C)C)cnn1C(F)F

>  <smiles>  (177) 
[H]c1nn(C([H])(F)F)c(C([H])([H])[H])c1C1([H])N([H])c2c([H])c([H])c([H])c([H])c2C(=O)N1C(C([H])([H])[H])(C([H])([H])[H])C([H])([H])[H]

$$$$
56:0:1
     RDKit          3D

 44 46  0  0  1  0  0  0  0  0999 V2000
   -0.2872    2.5083    2.9305 C   0  0  0  0  0  0  0  0  0  0  0  0
    0.6816    2.5820    4.0651 C   0  0  0  0  0  0  0  0  0  0  0  0
    0.7572    1.8480    5.2248 C   0  0  0  0  0  0  0  0  0  0  0  0
   -0.1055    0.6780    5.7033 C   0  0  2  0  0  0  0  0  0  0  0  0
   -1.5060    1.0362    5.9695 N   0  0  0  0  0  0  0  0  0  0  0  0
   -1.7092    1.7506    7.1520 C   0  0  0  0  0  0  0  0  0  0  0  0
   -2.7579    2.6970    7.2551 C   0  0  0  0  0  0  0  0  0  0  0  0
   -2.9777    3.3656    8.4767 C   0  0  0  0  0  0  0  0  0  0  0  0
   -2.1713    3.0853    9.5947 C   0  0  0  0  0  0  0  0  0  0  0  0
   -1.1175    2.1610    9.4761 C   0  0  0  0  0  0  0  0  0  0  0  0
   -0.8794    1.4925    8.2582 C   0  0  0  0  0  0  0  0  0  0  0  0
    0.2041    0.4508    8.1482 C   0  0  0  0  0  0  0  0  0  0  0  0
    0.7145    0.0297    9.1857 O   0  0  0  0  0  0  0  0  0  0  0  0
    0.5006   -0.0056    6.8919 N   0  0  0  0  0  0  0  0  0  0  0  0
    1.5397   -1.0815    6.6672 C   0  0  0  0  0  0  0  0  0  0  0  0
    1.7715   -1.4053    5.1665 C   0  0  0  0  0  0  0  0  0  0  0  0
    1.1358   -2.4032    7.3701 C   0  0  0  0  0  0  0  0  0  0  0  0
    2.9319   -0.6683    7.2178 C   0  0  0  0  0  0  0  0  0  0  0  0
    1.8853    2.4279    5.8817 C   0  0  0  0  0  0  0  0  0  0  0  0
    2.4604    3.3993    5.1995 N   0  0  0  0  0  0  0  0  0  0  0  0
    1.7373    3.4861    4.0645 N   0  0  0  0  0  0  0  0  0  0  0  0
    2.0855    4.5154    3.0942 C   0  0  0  0  0  0  0  0  0  0  0  0
    1.4283    5.6387    3.3806 F   0  0  0  0  0  0  0  0  0  0  0  0
    3.3998    4.7557    3.0916 F   0  0  0  0  0  0  0  0  0  0  0  0
   -1.0316    1.7306    3.0907 H   0  0  0  0  0  0  0  0  0  0  0  0
    0.2306    2.2846    1.9997 H   0  0  0  0  0  0  0  0  0  0  0  0
   -0.8098    3.4568    2.8174 H   0  0  0  0  0  0  0  0  0  0  0  0
   -0.2320   -0.0191    4.8750 H   0  0  0  0  0  0  0  0  0  0  0  0
   -2.0586    1.2875    5.1618 H   0  0  0  0  0  0  0  0  0  0  0  0
   -3.3933    2.9127    6.4073 H   0  0  0  0  0  0  0  0  0  0  0  0
   -3.7867    4.0757    8.5703 H   0  0  0  0  0  0  0  0  0  0  0  0
   -2.3474    3.5841   10.5360 H   0  0  0  0  0  0  0  0  0  0  0  0
   -0.5156    1.9448   10.3455 H   0  0  0  0  0  0  0  0  0  0  0  0
    2.6117   -2.0866    5.0187 H   0  0  0  0  0  0  0  0  0  0  0  0
    2.0231   -0.5164    4.5817 H   0  0  0  0  0  0  0  0  0  0  0  0
    0.8988   -1.8811    4.7124 H   0  0  0  0  0  0  0  0  0  0  0  0
    0.2234   -2.8314    6.9568 H   0  0  0  0  0  0  0  0  0  0  0  0
    0.9980   -2.2992    8.4447 H   0  0  0  0  0  0  0  0  0  0  0  0
    1.9245   -3.1480    7.2614 H   0  0  0  0  0  0  0  0  0  0  0  0
    3.6575   -1.4675    7.0455 H   0  0  0  0  0  0  0  0  0  0  0  0
    2.9373   -0.4917    8.2943 H   0  0  0  0  0  0  0  0  0  0  0  0
    3.3267    0.2205    6.7234 H   0  0  0  0  0  0  0  0  0  0  0  0
    2.3223    2.1728    6.8328 H   0  0  0  0  0  0  0  0  0  0  0  0
    1.8220    4.1944    2.0843 H   0  0  0  0  0  0  0  0  0  0  0  0
  1  2  1  0
  1 25  1  0
  1 26  1  0
  1 27  1  0
  2 21  1  0
  2  3  2  0
  3  4  1  0
  3 19  1  0
  4 14  1  0
  4  5  1  0
  4 28  1  6
  5  6  1  0
  5 29  1  0
  6 11  2  0
  6  7  1  0
  7  8  2  0
  7 30  1  0
  8  9  1  0
  8 31  1  0
  9 10  2  0
  9 32  1  0
 10 11  1  0
 10 33  1  0
 11 12  1  0
 12 13  2  0
 12 14  1  0
 14 15  1  0
 15 16  1  0
 15 17  1  0
 15 18  1  0
 16 34  1  0
 16 35  1  0
 16 36  1  0
 17 37  1  0
 17 38  1  0
 17 39  1  0
 18 40  1  0
 18 41  1  0
 18 42  1  0
 19 20  2  0
 19 43  1  0
 20 21  1  0
 21 22  1  0
 22 23  1  0
 22 24  1  0
 22 44  1  0
M  END
>  <i_m_ct_stereo_status>  (178) 
1

>  <s_m_source_file>  (178) 
/var/tmp/pbs.5076255.sched01/tmp06yssb5m/4267g10r58.sdf

>  <i_m_source_file_index>  (178) 
41

>  <i_lp_mmshare_version>  (178) 
48012

>  <i_f3d_flags>  (178) 
0

>  <s_epik_input>  (178) 
RltDSF0oRiluMW5bY0hdYyhjMVtDSDNdKVtDQEhdKFtOSF0yKU4oQyhbQ0gzXSkoW0NIM10pW0NIM10pQyg9TyljKGMyMylbY0hdW2NIXVtjSF1bY0hdMw==

>  <s_epik_cmdline>  (178) 
J2VwaWtfcHl0aG9uJywgJy1waHQnLCAnMi4wJywgJy1waCcsICc3LjAnLCAnLXRuJywgJzgnLCAnLW1hJywgJzIwMCcsICctaW1hZScsICc8aW5maWxlLm1hZT4nLCAnLW9tYWUnLCAnPG91dGZpbGUubWFlPic=

>  <r_lp_tautomer_probability>  (178) 
1

>  <r_epik_Ionization_Penalty>  (178) 
1.1385e-06

>  <r_epik_Ionization_Penalty_Charging>  (178) 
0

>  <r_epik_Ionization_Penalty_Neutral>  (178) 
1.1385e-06

>  <r_epik_State_Penalty>  (178) 
-0

>  <r_epik_Charging_Adjusted_Penalty>  (178) 
0

>  <i_epik_Tot_Q>  (178) 
0

>  <i_epik_Tot_abs_Q>  (178) 
0

>  <s_epik_Chemistry_Notes>  (178) 
This compound contains an acetal/aminal-like group ( X-CH(R)-Y where X, Y are N, S, or O) that may be acid/base labile, releasing an aldehyde.

>  <s_lp_Force_Field>  (178) 
OPLS3e

>  <r_lp_Energy>  (178) 
31.6206

>  <b_lp_Chiralities_Consistent>  (178) 
1

>  <s_lp_Variant>  (178) 
56:0-1

>  <s_i_glide_gridfile>  (178) 
pfpi4k_grid

>  <i_i_glide_lignum>  (178) 
41

>  <i_i_glide_rotatable_bonds>  (178) 
3

>  <r_i_docking_score>  (178) 
-3.04246

>  <r_i_glide_ligand_efficiency>  (178) 
-0.126769

>  <r_i_glide_ligand_efficiency_sa>  (178) 
-0.365666

>  <r_i_glide_ligand_efficiency_ln>  (178) 
-0.728201

>  <r_i_glide_gscore>  (178) 
-3.04246

>  <r_i_glide_lipo>  (178) 
-0.269056

>  <r_i_glide_hbond>  (178) 
0

>  <r_i_glide_metal>  (178) 
-0

>  <r_i_glide_rewards>  (178) 
-1.27169

>  <r_i_glide_evdw>  (178) 
-19.124

>  <r_i_glide_ecoul>  (178) 
-3.50139

>  <r_i_glide_erotb>  (178) 
0.168692

>  <r_i_glide_esite>  (178) 
-0.188996

>  <r_i_glide_emodel>  (178) 
-26.2869

>  <r_i_glide_energy>  (178) 
-22.6254

>  <r_i_glide_einternal>  (178) 
1.90985

>  <r_i_glide_intrahb_reward>  (178) 
-0

>  <i_i_glide_confnum>  (178) 
6

>  <i_i_glide_posenum>  (178) 
28

>  <r_i_glide_eff_state_penalty>  (178) 
0

>  <ligand_id>  (178) 
56

>  <original_smiles>  (178) 
Cc1c(C2Nc3ccccc3C(=O)N2C(C)(C)C)cnn1C(F)F

>  <smiles>  (178) 
[H]c1nn(C([H])(F)F)c(C([H])([H])[H])c1C1([H])N([H])c2c([H])c([H])c([H])c([H])c2C(=O)N1C(C([H])([H])[H])(C([H])([H])[H])C([H])([H])[H]

$$$$
56:0:2
     RDKit          3D

 44 46  0  0  1  0  0  0  0  0999 V2000
   -0.9584    3.6182    3.5270 C   0  0  0  0  0  0  0  0  0  0  0  0
    0.3145    2.8750    3.7364 C   0  0  0  0  0  0  0  0  0  0  0  0
    0.5687    1.6173    4.1850 C   0  0  0  0  0  0  0  0  0  0  0  0
   -0.3488    0.4451    4.6004 C   0  0  2  0  0  0  0  0  0  0  0  0
   -1.6830    0.8495    5.0661 N   0  0  0  0  0  0  0  0  0  0  0  0
   -1.6936    1.4575    6.3259 C   0  0  0  0  0  0  0  0  0  0  0  0
   -2.5750    2.5255    6.6479 C   0  0  0  0  0  0  0  0  0  0  0  0
   -2.5946    3.0503    7.9540 C   0  0  0  0  0  0  0  0  0  0  0  0
   -1.7392    2.5228    8.9392 C   0  0  0  0  0  0  0  0  0  0  0  0
   -0.8302    1.5026    8.6013 C   0  0  0  0  0  0  0  0  0  0  0  0
   -0.7885    0.9758    7.3003 C   0  0  0  0  0  0  0  0  0  0  0  0
    0.1423   -0.1533    6.9382 C   0  0  0  0  0  0  0  0  0  0  0  0
    0.6592   -0.7767    7.8687 O   0  0  0  0  0  0  0  0  0  0  0  0
    0.3011   -0.4547    5.6176 N   0  0  0  0  0  0  0  0  0  0  0  0
    1.1519   -1.6255    5.1599 C   0  0  0  0  0  0  0  0  0  0  0  0
    1.1858   -1.7716    3.6083 C   0  0  0  0  0  0  0  0  0  0  0  0
    0.6151   -2.9662    5.7204 C   0  0  0  0  0  0  0  0  0  0  0  0
    2.6406   -1.5498    5.6711 C   0  0  0  0  0  0  0  0  0  0  0  0
    2.0043    1.5663    4.0992 C   0  0  0  0  0  0  0  0  0  0  0  0
    2.5686    2.7011    3.7285 N   0  0  0  0  0  0  0  0  0  0  0  0
    1.5295    3.4971    3.4426 N   0  0  0  0  0  0  0  0  0  0  0  0
    1.8669    4.8075    2.9793 C   0  0  0  0  0  0  0  0  0  0  0  0
    2.2003    5.5765    4.0223 F   0  0  0  0  0  0  0  0  0  0  0  0
    2.8932    4.7656    2.1116 F   0  0  0  0  0  0  0  0  0  0  0  0
   -1.8405    3.0052    3.7228 H   0  0  0  0  0  0  0  0  0  0  0  0
   -1.0452    3.9143    2.4928 H   0  0  0  0  0  0  0  0  0  0  0  0
   -0.9795    4.5149    4.1442 H   0  0  0  0  0  0  0  0  0  0  0  0
   -0.6303   -0.0946    3.7032 H   0  0  0  0  0  0  0  0  0  0  0  0
   -2.2804    1.2751    4.3603 H   0  0  0  0  0  0  0  0  0  0  0  0
   -3.2513    2.9273    5.8994 H   0  0  0  0  0  0  0  0  0  0  0  0
   -3.2924    3.8247    8.2168 H   0  0  0  0  0  0  0  0  0  0  0  0
   -1.7662    2.9071    9.9487 H   0  0  0  0  0  0  0  0  0  0  0  0
   -0.1817    1.1017    9.3678 H   0  0  0  0  0  0  0  0  0  0  0  0
    1.9154   -2.5142    3.2773 H   0  0  0  0  0  0  0  0  0  0  0  0
    1.4596   -0.8543    3.0907 H   0  0  0  0  0  0  0  0  0  0  0  0
    0.2228   -2.0894    3.2030 H   0  0  0  0  0  0  0  0  0  0  0  0
   -0.3781   -3.2494    5.3617 H   0  0  0  0  0  0  0  0  0  0  0  0
    0.5935   -3.0016    6.8125 H   0  0  0  0  0  0  0  0  0  0  0  0
    1.2969   -3.7843    5.4554 H   0  0  0  0  0  0  0  0  0  0  0  0
    3.1710   -2.4470    5.3263 H   0  0  0  0  0  0  0  0  0  0  0  0
    2.6936   -1.5537    6.7655 H   0  0  0  0  0  0  0  0  0  0  0  0
    3.2467   -0.7144    5.3404 H   0  0  0  0  0  0  0  0  0  0  0  0
    2.7273    0.7826    4.2305 H   0  0  0  0  0  0  0  0  0  0  0  0
    0.9994    5.2567    2.4958 H   0  0  0  0  0  0  0  0  0  0  0  0
  1  2  1  0
  1 25  1  0
  1 26  1  0
  1 27  1  0
  2 21  1  0
  2  3  2  0
  3  4  1  0
  3 19  1  0
  4 14  1  0
  4  5  1  0
  4 28  1  6
  5  6  1  0
  5 29  1  0
  6 11  2  0
  6  7  1  0
  7  8  2  0
  7 30  1  0
  8  9  1  0
  8 31  1  0
  9 10  2  0
  9 32  1  0
 10 11  1  0
 10 33  1  0
 11 12  1  0
 12 13  2  0
 12 14  1  0
 14 15  1  0
 15 16  1  0
 15 17  1  0
 15 18  1  0
 16 34  1  0
 16 35  1  0
 16 36  1  0
 17 37  1  0
 17 38  1  0
 17 39  1  0
 18 40  1  0
 18 41  1  0
 18 42  1  0
 19 20  2  0
 19 43  1  0
 20 21  1  0
 21 22  1  0
 22 23  1  0
 22 24  1  0
 22 44  1  0
M  END
>  <i_m_ct_stereo_status>  (179) 
1

>  <s_m_source_file>  (179) 
/var/tmp/pbs.5076255.sched01/tmp06yssb5m/4267g10r58.sdf

>  <i_m_source_file_index>  (179) 
41

>  <i_lp_mmshare_version>  (179) 
48012

>  <i_f3d_flags>  (179) 
0

>  <s_epik_input>  (179) 
RltDSF0oRiluMW5bY0hdYyhjMVtDSDNdKVtDQEhdKFtOSF0yKU4oQyhbQ0gzXSkoW0NIM10pW0NIM10pQyg9TyljKGMyMylbY0hdW2NIXVtjSF1bY0hdMw==

>  <s_epik_cmdline>  (179) 
J2VwaWtfcHl0aG9uJywgJy1waHQnLCAnMi4wJywgJy1waCcsICc3LjAnLCAnLXRuJywgJzgnLCAnLW1hJywgJzIwMCcsICctaW1hZScsICc8aW5maWxlLm1hZT4nLCAnLW9tYWUnLCAnPG91dGZpbGUubWFlPic=

>  <r_lp_tautomer_probability>  (179) 
1

>  <r_epik_Ionization_Penalty>  (179) 
1.1385e-06

>  <r_epik_Ionization_Penalty_Charging>  (179) 
0

>  <r_epik_Ionization_Penalty_Neutral>  (179) 
1.1385e-06

>  <r_epik_State_Penalty>  (179) 
-0

>  <r_epik_Charging_Adjusted_Penalty>  (179) 
0

>  <i_epik_Tot_Q>  (179) 
0

>  <i_epik_Tot_abs_Q>  (179) 
0

>  <s_epik_Chemistry_Notes>  (179) 
This compound contains an acetal/aminal-like group ( X-CH(R)-Y where X, Y are N, S, or O) that may be acid/base labile, releasing an aldehyde.

>  <s_lp_Force_Field>  (179) 
OPLS3e

>  <r_lp_Energy>  (179) 
31.6206

>  <b_lp_Chiralities_Consistent>  (179) 
1

>  <s_lp_Variant>  (179) 
56:0-1

>  <s_i_glide_gridfile>  (179) 
pfpi4k_grid

>  <i_i_glide_lignum>  (179) 
41

>  <i_i_glide_rotatable_bonds>  (179) 
3

>  <r_i_docking_score>  (179) 
-2.88886

>  <r_i_glide_ligand_efficiency>  (179) 
-0.120369

>  <r_i_glide_ligand_efficiency_sa>  (179) 
-0.347205

>  <r_i_glide_ligand_efficiency_ln>  (179) 
-0.691437

>  <r_i_glide_gscore>  (179) 
-2.88886

>  <r_i_glide_lipo>  (179) 
-0.247785

>  <r_i_glide_hbond>  (179) 
0

>  <r_i_glide_metal>  (179) 
-0

>  <r_i_glide_rewards>  (179) 
-1.17591

>  <r_i_glide_evdw>  (179) 
-20.1534

>  <r_i_glide_ecoul>  (179) 
-3.00596

>  <r_i_glide_erotb>  (179) 
0.168692

>  <r_i_glide_esite>  (179) 
-0.175297

>  <r_i_glide_emodel>  (179) 
-25.4624

>  <r_i_glide_energy>  (179) 
-23.1594

>  <r_i_glide_einternal>  (179) 
2.02683

>  <r_i_glide_intrahb_reward>  (179) 
-0

>  <i_i_glide_confnum>  (179) 
2

>  <i_i_glide_posenum>  (179) 
30

>  <r_i_glide_eff_state_penalty>  (179) 
0

>  <ligand_id>  (179) 
56

>  <original_smiles>  (179) 
Cc1c(C2Nc3ccccc3C(=O)N2C(C)(C)C)cnn1C(F)F

>  <smiles>  (179) 
[H]c1nn(C([H])(F)F)c(C([H])([H])[H])c1C1([H])N([H])c2c([H])c([H])c([H])c([H])c2C(=O)N1C(C([H])([H])[H])(C([H])([H])[H])C([H])([H])[H]

$$$$
57:0:0
     RDKit          3D

 55 58  0  0  1  0  0  0  0  0999 V2000
    4.1853   -0.6547   -2.0910 C   0  0  0  0  0  0  0  0  0  0  0  0
    4.9501   -1.7371   -1.3758 C   0  0  2  0  0  0  0  0  0  0  0  0
    4.6221   -2.9962   -2.1462 C   0  0  1  0  0  0  0  0  0  0  0  0
    4.9785   -2.8197   -3.5036 O   0  0  0  0  0  0  0  0  0  0  0  0
    5.3520   -4.2423   -1.7436 C   0  0  0  0  0  0  0  0  0  0  0  0
    5.5248   -4.7526   -0.2812 C   0  0  1  0  0  0  0  0  0  0  0  0
    6.8638   -4.3491    0.3312 C   0  0  0  0  0  0  0  0  0  0  0  0
    6.9967   -2.8578    0.5918 C   0  0  0  0  0  0  0  0  0  0  0  0
    5.7113   -2.2463    1.2065 C   0  0  2  0  0  0  0  0  0  0  0  0
    6.1039   -1.0185    2.0365 C   0  0  0  0  0  0  0  0  0  0  0  0
    5.2915   -3.1136    2.2784 O   0  0  0  0  0  0  0  0  0  0  0  0
    4.4341   -4.2486    2.1144 C   0  0  2  0  0  0  0  0  0  0  0  0
    4.8011   -5.3942    3.0929 C   0  0  0  0  0  0  0  0  0  0  0  0
    5.9852   -5.1113    3.9991 C   0  0  0  0  0  0  0  0  0  0  0  0
    3.6162   -5.8637    3.9391 C   0  0  0  0  0  0  0  0  0  0  0  0
    5.2060   -6.4047    2.2142 O   0  0  0  0  0  0  0  0  0  0  0  0
    4.2976   -6.2565    1.0385 O   0  0  0  0  0  0  0  0  0  0  0  0
    4.3091   -4.8781    0.7036 C   0  0  2  0  0  0  0  0  0  0  0  0
    2.9351   -4.6006    0.0700 C   0  0  1  0  0  0  0  0  0  0  0  0
    1.8307   -5.5952    0.4986 C   0  0  0  0  0  0  0  0  0  0  0  0
    2.4471   -3.1349    0.0390 C   0  0  0  0  0  0  0  0  0  0  0  0
    3.2082   -1.9424    0.5983 C   0  0  0  0  0  0  0  0  0  0  0  0
    4.6551   -1.7215    0.1718 C   0  0  2  0  0  0  0  0  0  0  0  0
    3.0995   -0.8302   -2.0971 H   0  0  0  0  0  0  0  0  0  0  0  0
    4.5313   -0.4422   -3.1015 H   0  0  0  0  0  0  0  0  0  0  0  0
    4.3503    0.2396   -1.5389 H   0  0  0  0  0  0  0  0  0  0  0  0
    5.9915   -1.4648   -1.5288 H   0  0  0  0  0  0  0  0  0  0  0  0
    3.5578   -3.1621   -2.2312 H   0  0  0  0  0  0  0  0  0  0  0  0
    4.7793   -3.5900   -3.9504 H   0  0  0  0  0  0  0  0  0  0  0  0
    4.9662   -5.0704   -2.3431 H   0  0  0  0  0  0  0  0  0  0  0  0
    6.3611   -4.0636   -2.1156 H   0  0  0  0  0  0  0  0  0  0  0  0
    5.7251   -5.8021   -0.4859 H   0  0  0  0  0  0  0  0  0  0  0  0
    7.0412   -4.9132    1.2469 H   0  0  0  0  0  0  0  0  0  0  0  0
    7.6881   -4.6475   -0.3189 H   0  0  0  0  0  0  0  0  0  0  0  0
    7.8322   -2.7596    1.2613 H   0  0  0  0  0  0  0  0  0  0  0  0
    7.3346   -2.3475   -0.3024 H   0  0  0  0  0  0  0  0  0  0  0  0
    6.5437   -0.2595    1.3805 H   0  0  0  0  0  0  0  0  0  0  0  0
    6.8156   -1.2383    2.8043 H   0  0  0  0  0  0  0  0  0  0  0  0
    5.2350   -0.5952    2.5555 H   0  0  0  0  0  0  0  0  0  0  0  0
    3.4342   -3.9283    2.4250 H   0  0  0  0  0  0  0  0  0  0  0  0
    5.8156   -4.2428    4.6383 H   0  0  0  0  0  0  0  0  0  0  0  0
    6.8263   -4.9472    3.3462 H   0  0  0  0  0  0  0  0  0  0  0  0
    6.2420   -5.9634    4.6250 H   0  0  0  0  0  0  0  0  0  0  0  0
    3.2896   -5.0626    4.6051 H   0  0  0  0  0  0  0  0  0  0  0  0
    3.9132   -6.7090    4.5596 H   0  0  0  0  0  0  0  0  0  0  0  0
    2.7746   -6.1685    3.3217 H   0  0  0  0  0  0  0  0  0  0  0  0
    3.0434   -4.8273   -0.9721 H   0  0  0  0  0  0  0  0  0  0  0  0
    1.5551   -5.4569    1.5457 H   0  0  0  0  0  0  0  0  0  0  0  0
    2.1163   -6.6396    0.3659 H   0  0  0  0  0  0  0  0  0  0  0  0
    0.9586   -5.4663   -0.1378 H   0  0  0  0  0  0  0  0  0  0  0  0
    2.0274   -2.9181   -0.9356 H   0  0  0  0  0  0  0  0  0  0  0  0
    1.5806   -3.0602    0.6996 H   0  0  0  0  0  0  0  0  0  0  0  0
    2.6397   -1.0623    0.2994 H   0  0  0  0  0  0  0  0  0  0  0  0
    3.1307   -1.9251    1.6882 H   0  0  0  0  0  0  0  0  0  0  0  0
    4.6830   -0.6497    0.3415 H   0  0  0  0  0  0  0  0  0  0  0  0
  1  2  1  0
  1 24  1  0
  1 25  1  0
  1 26  1  0
  2 23  1  0
  2  3  1  0
  2 27  1  1
  3  4  1  0
  3  5  1  0
  3 28  1  6
  4 29  1  0
  5  6  1  0
  5 30  1  0
  5 31  1  0
  6 18  1  0
  6  7  1  0
  6 32  1  6
  7  8  1  0
  7 33  1  0
  7 34  1  0
  8  9  1  0
  8 35  1  0
  8 36  1  0
  9 23  1  0
  9 10  1  1
  9 11  1  0
 10 37  1  0
 10 38  1  0
 10 39  1  0
 11 12  1  0
 12 18  1  0
 12 13  1  0
 12 40  1  1
 13 14  1  0
 13 15  1  0
 13 16  1  0
 14 41  1  0
 14 42  1  0
 14 43  1  0
 15 44  1  0
 15 45  1  0
 15 46  1  0
 16 17  1  0
 18 17  1  1
 18 19  1  0
 19 20  1  0
 19 21  1  0
 19 47  1  6
 20 48  1  0
 20 49  1  0
 20 50  1  0
 21 22  1  0
 21 51  1  0
 21 52  1  0
 22 23  1  0
 22 53  1  0
 22 54  1  0
 23 55  1  1
M  END
>  <i_m_ct_stereo_status>  (180) 
1

>  <s_m_source_file>  (180) 
/var/tmp/pbs.5076255.sched01/tmp06yssb5m/4267g10r58.sdf

>  <i_m_source_file_index>  (180) 
42

>  <i_lp_mmshare_version>  (180) 
48012

>  <i_f3d_flags>  (180) 
0

>  <s_epik_input>  (180) 
W0NAQF0xMjNbQ0BIXTRbQ0gyXVtDQEhdKFtPSF0pW0NAQEhdKFtDSDNdKVtDQEBIXShbQ0gyXVtDSDJdW0NAQEhdM1tDSDNdKVtDQF0oW0NIM10pKFtDSDJdW0NIMl00KU9bQ0BASF0xQyhbQ0gzXSkoW0NIM10pT08y

>  <s_epik_cmdline>  (180) 
J2VwaWtfcHl0aG9uJywgJy1waHQnLCAnMi4wJywgJy1waCcsICc3LjAnLCAnLXRuJywgJzgnLCAnLW1hJywgJzIwMCcsICctaW1hZScsICc8aW5maWxlLm1hZT4nLCAnLW9tYWUnLCAnPG91dGZpbGUubWFlPic=

>  <r_lp_tautomer_probability>  (180) 
1

>  <r_epik_Ionization_Penalty>  (180) 
7.43582e-07

>  <r_epik_Ionization_Penalty_Charging>  (180) 
0

>  <r_epik_Ionization_Penalty_Neutral>  (180) 
7.43582e-07

>  <r_epik_State_Penalty>  (180) 
-0

>  <r_epik_Charging_Adjusted_Penalty>  (180) 
0

>  <i_epik_Tot_Q>  (180) 
0

>  <i_epik_Tot_abs_Q>  (180) 
0

>  <s_lp_Force_Field>  (180) 
OPLS3e

>  <r_lp_Energy>  (180) 
79.8236

>  <b_lp_Chiralities_Consistent>  (180) 
1

>  <s_lp_Variant>  (180) 
57:0-1

>  <s_i_glide_gridfile>  (180) 
pfpi4k_grid

>  <i_i_glide_lignum>  (180) 
42

>  <i_i_glide_rotatable_bonds>  (180) 
1

>  <r_i_docking_score>  (180) 
-2.32795

>  <r_i_glide_ligand_efficiency>  (180) 
-0.101215

>  <r_i_glide_ligand_efficiency_sa>  (180) 
-0.287843

>  <r_i_glide_ligand_efficiency_ln>  (180) 
-0.56292

>  <r_i_glide_gscore>  (180) 
-2.32795

>  <r_i_glide_lipo>  (180) 
-0.544463

>  <r_i_glide_hbond>  (180) 
0

>  <r_i_glide_metal>  (180) 
-0

>  <r_i_glide_rewards>  (180) 
-1.1969

>  <r_i_glide_evdw>  (180) 
-6.01574

>  <r_i_glide_ecoul>  (180) 
-1.90537

>  <r_i_glide_erotb>  (180) 
0

>  <r_i_glide_esite>  (180) 
0

>  <r_i_glide_emodel>  (180) 
-9.39942

>  <r_i_glide_energy>  (180) 
-7.9211

>  <r_i_glide_einternal>  (180) 
0.330213

>  <r_i_glide_intrahb_reward>  (180) 
-0

>  <i_i_glide_confnum>  (180) 
1

>  <i_i_glide_posenum>  (180) 
36

>  <r_i_glide_eff_state_penalty>  (180) 
0

>  <ligand_id>  (180) 
57

>  <original_smiles>  (180) 
CC1C(O)CC2CCC3(C)OC4C(C)(C)OOC24C(C)CCC13

>  <smiles>  (180) 
[H]OC1([H])C([H])([H])C2([H])C([H])([H])C([H])([H])C3(C([H])([H])[H])OC4([H])C(C([H])([H])[H])(C([H])([H])[H])OOC42C([H])(C([H])([H])[H])C([H])([H])C([H])([H])C3([H])C1([H])C([H])([H])[H]

$$$$
57:0:1
     RDKit          3D

 55 58  0  0  1  0  0  0  0  0999 V2000
    4.0592   -0.6754   -2.0351 C   0  0  0  0  0  0  0  0  0  0  0  0
    4.8874   -1.7575   -1.3550 C   0  0  2  0  0  0  0  0  0  0  0  0
    4.5791   -3.0199   -2.1355 C   0  0  1  0  0  0  0  0  0  0  0  0
    4.9034   -2.8274   -3.4923 O   0  0  0  0  0  0  0  0  0  0  0  0
    5.4078   -4.2376   -1.7488 C   0  0  0  0  0  0  0  0  0  0  0  0
    5.5424   -4.7517   -0.2876 C   0  0  1  0  0  0  0  0  0  0  0  0
    6.8876   -4.3415    0.3328 C   0  0  0  0  0  0  0  0  0  0  0  0
    6.9909   -2.8496    0.6095 C   0  0  0  0  0  0  0  0  0  0  0  0
    5.7186   -2.2513    1.2292 C   0  0  2  0  0  0  0  0  0  0  0  0
    6.0908   -1.0139    2.0449 C   0  0  0  0  0  0  0  0  0  0  0  0
    5.3200   -3.1284    2.3028 O   0  0  0  0  0  0  0  0  0  0  0  0
    4.4784   -4.2768    2.1512 C   0  0  2  0  0  0  0  0  0  0  0  0
    4.8837   -5.4141    3.1252 C   0  0  0  0  0  0  0  0  0  0  0  0
    6.0991   -5.1426    3.9889 C   0  0  0  0  0  0  0  0  0  0  0  0
    3.7264   -5.9072    3.9914 C   0  0  0  0  0  0  0  0  0  0  0  0
    5.2574   -6.4274    2.2087 O   0  0  0  0  0  0  0  0  0  0  0  0
    4.3571   -6.2751    1.0879 O   0  0  0  0  0  0  0  0  0  0  0  0
    4.3413   -4.8899    0.7288 C   0  0  2  0  0  0  0  0  0  0  0  0
    2.9460   -4.6349    0.1156 C   0  0  1  0  0  0  0  0  0  0  0  0
    1.8571   -5.6084    0.6051 C   0  0  0  0  0  0  0  0  0  0  0  0
    2.4301   -3.1793    0.1120 C   0  0  0  0  0  0  0  0  0  0  0  0
    3.2130   -1.9880    0.6506 C   0  0  0  0  0  0  0  0  0  0  0  0
    4.6399   -1.7596    0.1981 C   0  0  2  0  0  0  0  0  0  0  0  0
    2.9978   -0.9332   -2.0412 H   0  0  0  0  0  0  0  0  0  0  0  0
    4.3974   -0.4912   -3.0620 H   0  0  0  0  0  0  0  0  0  0  0  0
    4.2608    0.1884   -1.4501 H   0  0  0  0  0  0  0  0  0  0  0  0
    5.9269   -1.4820   -1.5345 H   0  0  0  0  0  0  0  0  0  0  0  0
    3.5239   -3.2239   -2.1855 H   0  0  0  0  0  0  0  0  0  0  0  0
    4.3244   -2.1221   -3.8057 H   0  0  0  0  0  0  0  0  0  0  0  0
    4.9508   -5.0468   -2.3235 H   0  0  0  0  0  0  0  0  0  0  0  0
    6.3771   -4.0027   -2.1265 H   0  0  0  0  0  0  0  0  0  0  0  0
    5.7160   -5.7958   -0.5002 H   0  0  0  0  0  0  0  0  0  0  0  0
    7.0629   -4.9130    1.2504 H   0  0  0  0  0  0  0  0  0  0  0  0
    7.7043   -4.6315   -0.3287 H   0  0  0  0  0  0  0  0  0  0  0  0
    7.8345   -2.7468    1.2736 H   0  0  0  0  0  0  0  0  0  0  0  0
    7.3331   -2.3275   -0.2864 H   0  0  0  0  0  0  0  0  0  0  0  0
    6.4687   -0.2747    1.3383 H   0  0  0  0  0  0  0  0  0  0  0  0
    6.8658   -1.1990    2.7700 H   0  0  0  0  0  0  0  0  0  0  0  0
    5.2198   -0.6141    2.5674 H   0  0  0  0  0  0  0  0  0  0  0  0
    3.4854   -3.9661    2.4904 H   0  0  0  0  0  0  0  0  0  0  0  0
    5.9383   -4.2633    4.6074 H   0  0  0  0  0  0  0  0  0  0  0  0
    6.9329   -5.0015    3.3238 H   0  0  0  0  0  0  0  0  0  0  0  0
    6.3453   -5.9836    4.6298 H   0  0  0  0  0  0  0  0  0  0  0  0
    3.4087   -5.1002    4.6525 H   0  0  0  0  0  0  0  0  0  0  0  0
    4.0488   -6.7434    4.6037 H   0  0  0  0  0  0  0  0  0  0  0  0
    2.8706   -6.2208    3.3859 H   0  0  0  0  0  0  0  0  0  0  0  0
    3.0550   -4.9067   -0.9138 H   0  0  0  0  0  0  0  0  0  0  0  0
    1.6090   -5.4905    1.6661 H   0  0  0  0  0  0  0  0  0  0  0  0
    2.1690   -6.6513    0.4752 H   0  0  0  0  0  0  0  0  0  0  0  0
    0.9690   -5.4748    0.0013 H   0  0  0  0  0  0  0  0  0  0  0  0
    1.9967   -2.9693   -0.8552 H   0  0  0  0  0  0  0  0  0  0  0  0
    1.6412   -3.1179    0.8195 H   0  0  0  0  0  0  0  0  0  0  0  0
    2.6364   -1.0921    0.3750 H   0  0  0  0  0  0  0  0  0  0  0  0
    3.1667   -1.9774    1.7482 H   0  0  0  0  0  0  0  0  0  0  0  0
    4.6522   -0.6823    0.3588 H   0  0  0  0  0  0  0  0  0  0  0  0
  1  2  1  0
  1 24  1  0
  1 25  1  0
  1 26  1  0
  2 23  1  0
  2  3  1  0
  2 27  1  1
  3  4  1  0
  3  5  1  0
  3 28  1  6
  4 29  1  0
  5  6  1  0
  5 30  1  0
  5 31  1  0
  6 18  1  0
  6  7  1  0
  6 32  1  6
  7  8  1  0
  7 33  1  0
  7 34  1  0
  8  9  1  0
  8 35  1  0
  8 36  1  0
  9 23  1  0
  9 10  1  1
  9 11  1  0
 10 37  1  0
 10 38  1  0
 10 39  1  0
 11 12  1  0
 12 18  1  0
 12 13  1  0
 12 40  1  1
 13 14  1  0
 13 15  1  0
 13 16  1  0
 14 41  1  0
 14 42  1  0
 14 43  1  0
 15 44  1  0
 15 45  1  0
 15 46  1  0
 16 17  1  0
 18 17  1  1
 18 19  1  0
 19 20  1  0
 19 21  1  0
 19 47  1  6
 20 48  1  0
 20 49  1  0
 20 50  1  0
 21 22  1  0
 21 51  1  0
 21 52  1  0
 22 23  1  0
 22 53  1  0
 22 54  1  0
 23 55  1  1
M  END
>  <i_m_ct_stereo_status>  (181) 
1

>  <s_m_source_file>  (181) 
/var/tmp/pbs.5076255.sched01/tmp06yssb5m/4267g10r58.sdf

>  <i_m_source_file_index>  (181) 
42

>  <i_lp_mmshare_version>  (181) 
48012

>  <i_f3d_flags>  (181) 
0

>  <s_epik_input>  (181) 
W0NAQF0xMjNbQ0BIXTRbQ0gyXVtDQEhdKFtPSF0pW0NAQEhdKFtDSDNdKVtDQEBIXShbQ0gyXVtDSDJdW0NAQEhdM1tDSDNdKVtDQF0oW0NIM10pKFtDSDJdW0NIMl00KU9bQ0BASF0xQyhbQ0gzXSkoW0NIM10pT08y

>  <s_epik_cmdline>  (181) 
J2VwaWtfcHl0aG9uJywgJy1waHQnLCAnMi4wJywgJy1waCcsICc3LjAnLCAnLXRuJywgJzgnLCAnLW1hJywgJzIwMCcsICctaW1hZScsICc8aW5maWxlLm1hZT4nLCAnLW9tYWUnLCAnPG91dGZpbGUubWFlPic=

>  <r_lp_tautomer_probability>  (181) 
1

>  <r_epik_Ionization_Penalty>  (181) 
7.43582e-07

>  <r_epik_Ionization_Penalty_Charging>  (181) 
0

>  <r_epik_Ionization_Penalty_Neutral>  (181) 
7.43582e-07

>  <r_epik_State_Penalty>  (181) 
-0

>  <r_epik_Charging_Adjusted_Penalty>  (181) 
0

>  <i_epik_Tot_Q>  (181) 
0

>  <i_epik_Tot_abs_Q>  (181) 
0

>  <s_lp_Force_Field>  (181) 
OPLS3e

>  <r_lp_Energy>  (181) 
79.8236

>  <b_lp_Chiralities_Consistent>  (181) 
1

>  <s_lp_Variant>  (181) 
57:0-1

>  <s_i_glide_gridfile>  (181) 
pfpi4k_grid

>  <i_i_glide_lignum>  (181) 
42

>  <i_i_glide_rotatable_bonds>  (181) 
1

>  <r_i_docking_score>  (181) 
-2.24098

>  <r_i_glide_ligand_efficiency>  (181) 
-0.097434

>  <r_i_glide_ligand_efficiency_sa>  (181) 
-0.277089

>  <r_i_glide_ligand_efficiency_ln>  (181) 
-0.54189

>  <r_i_glide_gscore>  (181) 
-2.24098

>  <r_i_glide_lipo>  (181) 
-0.535713

>  <r_i_glide_hbond>  (181) 
0

>  <r_i_glide_metal>  (181) 
-0

>  <r_i_glide_rewards>  (181) 
-1.1969

>  <r_i_glide_evdw>  (181) 
-6.64659

>  <r_i_glide_ecoul>  (181) 
-1.17362

>  <r_i_glide_erotb>  (181) 
0

>  <r_i_glide_esite>  (181) 
0

>  <r_i_glide_emodel>  (181) 
-8.99873

>  <r_i_glide_energy>  (181) 
-7.8202

>  <r_i_glide_einternal>  (181) 
0.350151

>  <r_i_glide_intrahb_reward>  (181) 
-0

>  <i_i_glide_confnum>  (181) 
2

>  <i_i_glide_posenum>  (181) 
28

>  <r_i_glide_eff_state_penalty>  (181) 
0

>  <ligand_id>  (181) 
57

>  <original_smiles>  (181) 
CC1C(O)CC2CCC3(C)OC4C(C)(C)OOC24C(C)CCC13

>  <smiles>  (181) 
[H]OC1([H])C([H])([H])C2([H])C([H])([H])C([H])([H])C3(C([H])([H])[H])OC4([H])C(C([H])([H])[H])(C([H])([H])[H])OOC42C([H])(C([H])([H])[H])C([H])([H])C([H])([H])C3([H])C1([H])C([H])([H])[H]

$$$$
58:0:0
     RDKit          3D

 37 39  0  0  1  0  0  0  0  0999 V2000
    3.9500   -0.5331    1.1858 C   0  0  0  0  0  0  0  0  0  0  0  0
    4.9660   -1.6991    0.9858 C   0  0  0  0  0  0  0  0  0  0  0  0
    6.3814   -1.0927    0.9719 C   0  0  0  0  0  0  0  0  0  0  0  0
    4.8374   -2.6609    2.1635 C   0  0  0  0  0  0  0  0  0  0  0  0
    4.9837   -2.2582    3.3159 O   0  0  0  0  0  0  0  0  0  0  0  0
    4.5603   -3.9289    1.7740 N   0  0  0  0  0  0  0  0  0  0  0  0
    4.3796   -5.0711    2.6504 C   0  0  0  0  0  0  0  0  0  0  0  0
    3.6984   -4.9039    4.0059 C   0  0  0  0  0  0  0  0  0  0  0  0
    5.1734   -5.1789    3.9489 C   0  0  0  0  0  0  0  0  0  0  0  0
    4.4711   -4.0138    0.4465 C   0  0  0  0  0  0  0  0  0  0  0  0
    4.2417   -5.0506   -0.1823 O   0  0  0  0  0  0  0  0  0  0  0  0
    4.6775   -2.6403   -0.2391 C   0  0  0  0  0  0  0  0  0  0  0  0
    5.8372   -2.7045   -1.2852 C   0  0  0  0  0  0  0  0  0  0  0  0
    5.4852   -3.4657   -2.5704 C   0  0  0  0  0  0  0  0  0  0  0  0
    4.1502   -3.0296   -3.1298 C   0  0  0  0  0  0  0  0  0  0  0  0
    4.0211   -2.7509   -4.3093 O   0  0  0  0  0  0  0  0  0  0  0  0
    2.9770   -2.9211   -2.1941 C   0  0  0  0  0  0  0  0  0  0  0  0
    3.3892   -2.1750   -0.9606 C   0  0  0  0  0  0  0  0  0  0  0  0
    4.0124    0.1610    0.3520 H   0  0  0  0  0  0  0  0  0  0  0  0
    4.1357    0.0405    2.0776 H   0  0  0  0  0  0  0  0  0  0  0  0
    2.9172   -0.8736    1.2624 H   0  0  0  0  0  0  0  0  0  0  0  0
    6.4886   -0.4099    0.1350 H   0  0  0  0  0  0  0  0  0  0  0  0
    7.1643   -1.8466    0.9110 H   0  0  0  0  0  0  0  0  0  0  0  0
    6.5574   -0.5204    1.8731 H   0  0  0  0  0  0  0  0  0  0  0  0
    4.1819   -6.0308    2.1708 H   0  0  0  0  0  0  0  0  0  0  0  0
    3.3762   -3.9095    4.3117 H   0  0  0  0  0  0  0  0  0  0  0  0
    3.0538   -5.7101    4.3544 H   0  0  0  0  0  0  0  0  0  0  0  0
    5.5150   -6.1671    4.2533 H   0  0  0  0  0  0  0  0  0  0  0  0
    5.8503   -4.3718    4.2202 H   0  0  0  0  0  0  0  0  0  0  0  0
    6.1098   -1.6931   -1.5837 H   0  0  0  0  0  0  0  0  0  0  0  0
    6.7312   -3.1514   -0.8426 H   0  0  0  0  0  0  0  0  0  0  0  0
    6.2832   -3.3403   -3.2984 H   0  0  0  0  0  0  0  0  0  0  0  0
    5.4145   -4.5277   -2.3434 H   0  0  0  0  0  0  0  0  0  0  0  0
    2.1535   -2.3716   -2.6381 H   0  0  0  0  0  0  0  0  0  0  0  0
    2.6206   -3.9062   -1.9041 H   0  0  0  0  0  0  0  0  0  0  0  0
    2.5617   -2.2604   -0.2770 H   0  0  0  0  0  0  0  0  0  0  0  0
    3.5024   -1.1370   -1.2661 H   0  0  0  0  0  0  0  0  0  0  0  0
  1  2  1  0
  1 19  1  0
  1 20  1  0
  1 21  1  0
  2 12  1  0
  2  3  1  0
  2  4  1  0
  3 22  1  0
  3 23  1  0
  3 24  1  0
  4  5  2  0
  4  6  1  0
  6  7  1  0
  6 10  1  0
  7  9  1  0
  7  8  1  0
  7 25  1  0
  8  9  1  0
  8 26  1  0
  8 27  1  0
  9 28  1  0
  9 29  1  0
 10 11  2  0
 10 12  1  0
 12 18  1  0
 12 13  1  0
 13 14  1  0
 13 30  1  0
 13 31  1  0
 14 15  1  0
 14 32  1  0
 14 33  1  0
 15 16  2  0
 15 17  1  0
 17 18  1  0
 17 34  1  0
 17 35  1  0
 18 36  1  0
 18 37  1  0
M  END
>  <i_m_ct_stereo_status>  (182) 
1

>  <s_m_source_file>  (182) 
/var/tmp/pbs.5076255.sched01/tmpc36l9o9d/84wsylf1cs.sdf

>  <i_m_source_file_index>  (182) 
1

>  <i_lp_mmshare_version>  (182) 
48012

>  <i_f3d_flags>  (182) 
0

>  <s_epik_input>  (182) 
W0NIMl0xW0NIMl1bQ0hdMU4oQzI9TylDKD1PKUMoW0NIM10pKFtDSDNdKUMyM1tDSDJdW0NIMl1DKD1PKVtDSDJdW0NIMl0z

>  <s_epik_cmdline>  (182) 
J2VwaWtfcHl0aG9uJywgJy1waHQnLCAnMi4wJywgJy1waCcsICc3LjAnLCAnLXRuJywgJzgnLCAnLW1hJywgJzIwMCcsICctaW1hZScsICc8aW5maWxlLm1hZT4nLCAnLW9tYWUnLCAnPG91dGZpbGUubWFlPic=

>  <r_lp_tautomer_probability>  (182) 
1

>  <r_epik_Ionization_Penalty>  (182) 
2.46262e-10

>  <r_epik_Ionization_Penalty_Charging>  (182) 
0

>  <r_epik_Ionization_Penalty_Neutral>  (182) 
2.46262e-10

>  <r_epik_State_Penalty>  (182) 
-0

>  <r_epik_Charging_Adjusted_Penalty>  (182) 
0

>  <i_epik_Tot_Q>  (182) 
0

>  <i_epik_Tot_abs_Q>  (182) 
0

>  <s_lp_Force_Field>  (182) 
OPLS3e

>  <r_lp_Energy>  (182) 
15.2882

>  <b_lp_Chiralities_Consistent>  (182) 
1

>  <s_lp_Variant>  (182) 
58:0-1

>  <s_i_glide_gridfile>  (182) 
pfpi4k_grid

>  <i_i_glide_lignum>  (182) 
1

>  <i_i_glide_rotatable_bonds>  (182) 
1

>  <r_i_docking_score>  (182) 
-4.00466

>  <r_i_glide_ligand_efficiency>  (182) 
-0.222481

>  <r_i_glide_ligand_efficiency_sa>  (182) 
-0.583066

>  <r_i_glide_ligand_efficiency_ln>  (182) 
-1.02938

>  <r_i_glide_gscore>  (182) 
-4.00466

>  <r_i_glide_lipo>  (182) 
-0.392411

>  <r_i_glide_hbond>  (182) 
-0.288889

>  <r_i_glide_metal>  (182) 
-0

>  <r_i_glide_rewards>  (182) 
-1.95718

>  <r_i_glide_evdw>  (182) 
-22.75

>  <r_i_glide_ecoul>  (182) 
-3.40011

>  <r_i_glide_erotb>  (182) 
0.281338

>  <r_i_glide_esite>  (182) 
0

>  <r_i_glide_emodel>  (182) 
-32.8043

>  <r_i_glide_energy>  (182) 
-26.1502

>  <r_i_glide_einternal>  (182) 
0.553335

>  <r_i_glide_intrahb_reward>  (182) 
-0

>  <i_i_glide_confnum>  (182) 
2

>  <i_i_glide_posenum>  (182) 
2

>  <r_i_glide_eff_state_penalty>  (182) 
0

>  <ligand_id>  (182) 
58

>  <original_smiles>  (182) 
CC1(C)C(=O)N(C2CC2)C(=O)C12CCC(=O)CC2

>  <smiles>  (182) 
[H]C([H])([H])C1(C([H])([H])[H])C(=O)N(C2([H])C([H])([H])C2([H])[H])C(=O)C12C([H])([H])C([H])([H])C(=O)C([H])([H])C2([H])[H]

$$$$
58:0:1
     RDKit          3D

 37 39  0  0  1  0  0  0  0  0999 V2000
    6.9810   -3.2623    0.0334 C   0  0  0  0  0  0  0  0  0  0  0  0
    5.6030   -2.5931    0.3177 C   0  0  0  0  0  0  0  0  0  0  0  0
    5.8319   -1.5361    1.4148 C   0  0  0  0  0  0  0  0  0  0  0  0
    5.1188   -1.9110   -0.9686 C   0  0  0  0  0  0  0  0  0  0  0  0
    5.7771   -1.0440   -1.5464 O   0  0  0  0  0  0  0  0  0  0  0  0
    3.9226   -2.3729   -1.3612 N   0  0  0  0  0  0  0  0  0  0  0  0
    3.2125   -1.8505   -2.5092 C   0  0  0  0  0  0  0  0  0  0  0  0
    2.6082   -2.7854   -3.5431 C   0  0  0  0  0  0  0  0  0  0  0  0
    3.8156   -1.9459   -3.8956 C   0  0  0  0  0  0  0  0  0  0  0  0
    3.4110   -3.2832   -0.5187 C   0  0  0  0  0  0  0  0  0  0  0  0
    2.2939   -3.8217   -0.6059 O   0  0  0  0  0  0  0  0  0  0  0  0
    4.4253   -3.5903    0.6228 C   0  0  0  0  0  0  0  0  0  0  0  0
    3.7437   -3.3854    2.0193 C   0  0  0  0  0  0  0  0  0  0  0  0
    2.6925   -4.4490    2.3964 C   0  0  0  0  0  0  0  0  0  0  0  0
    3.2137   -5.8691    2.1847 C   0  0  0  0  0  0  0  0  0  0  0  0
    3.1023   -6.7320    3.0537 O   0  0  0  0  0  0  0  0  0  0  0  0
    3.8914   -6.1414    0.8431 C   0  0  0  0  0  0  0  0  0  0  0  0
    4.9113   -5.0620    0.5247 C   0  0  0  0  0  0  0  0  0  0  0  0
    7.3356   -3.7939    0.9261 H   0  0  0  0  0  0  0  0  0  0  0  0
    7.7424   -2.5438   -0.2326 H   0  0  0  0  0  0  0  0  0  0  0  0
    6.9243   -3.9982   -0.7684 H   0  0  0  0  0  0  0  0  0  0  0  0
    6.1542   -2.0104    2.3461 H   0  0  0  0  0  0  0  0  0  0  0  0
    4.9409   -0.9468    1.6409 H   0  0  0  0  0  0  0  0  0  0  0  0
    6.6181   -0.8358    1.1486 H   0  0  0  0  0  0  0  0  0  0  0  0
    2.6233   -0.9455   -2.3215 H   0  0  0  0  0  0  0  0  0  0  0  0
    2.7734   -3.8572   -3.4132 H   0  0  0  0  0  0  0  0  0  0  0  0
    1.6574   -2.5188   -3.9914 H   0  0  0  0  0  0  0  0  0  0  0  0
    3.6631   -1.1118   -4.5724 H   0  0  0  0  0  0  0  0  0  0  0  0
    4.7725   -2.4612   -3.9737 H   0  0  0  0  0  0  0  0  0  0  0  0
    4.5005   -3.3950    2.8024 H   0  0  0  0  0  0  0  0  0  0  0  0
    3.2645   -2.3995    2.0759 H   0  0  0  0  0  0  0  0  0  0  0  0
    2.4013   -4.3093    3.4415 H   0  0  0  0  0  0  0  0  0  0  0  0
    1.8008   -4.3077    1.7910 H   0  0  0  0  0  0  0  0  0  0  0  0
    4.4320   -7.0889    0.8821 H   0  0  0  0  0  0  0  0  0  0  0  0
    3.1536   -6.2103    0.0395 H   0  0  0  0  0  0  0  0  0  0  0  0
    5.2771   -5.2705   -0.4901 H   0  0  0  0  0  0  0  0  0  0  0  0
    5.7488   -5.2052    1.2151 H   0  0  0  0  0  0  0  0  0  0  0  0
  1  2  1  0
  1 19  1  0
  1 20  1  0
  1 21  1  0
  2 12  1  0
  2  3  1  0
  2  4  1  0
  3 22  1  0
  3 23  1  0
  3 24  1  0
  4  5  2  0
  4  6  1  0
  6  7  1  0
  6 10  1  0
  7  9  1  0
  7  8  1  0
  7 25  1  0
  8  9  1  0
  8 26  1  0
  8 27  1  0
  9 28  1  0
  9 29  1  0
 10 11  2  0
 10 12  1  0
 12 18  1  0
 12 13  1  0
 13 14  1  0
 13 30  1  0
 13 31  1  0
 14 15  1  0
 14 32  1  0
 14 33  1  0
 15 16  2  0
 15 17  1  0
 17 18  1  0
 17 34  1  0
 17 35  1  0
 18 36  1  0
 18 37  1  0
M  END
>  <i_m_ct_stereo_status>  (183) 
1

>  <s_m_source_file>  (183) 
/var/tmp/pbs.5076255.sched01/tmpc36l9o9d/84wsylf1cs.sdf

>  <i_m_source_file_index>  (183) 
1

>  <i_lp_mmshare_version>  (183) 
48012

>  <i_f3d_flags>  (183) 
0

>  <s_epik_input>  (183) 
W0NIMl0xW0NIMl1bQ0hdMU4oQzI9TylDKD1PKUMoW0NIM10pKFtDSDNdKUMyM1tDSDJdW0NIMl1DKD1PKVtDSDJdW0NIMl0z

>  <s_epik_cmdline>  (183) 
J2VwaWtfcHl0aG9uJywgJy1waHQnLCAnMi4wJywgJy1waCcsICc3LjAnLCAnLXRuJywgJzgnLCAnLW1hJywgJzIwMCcsICctaW1hZScsICc8aW5maWxlLm1hZT4nLCAnLW9tYWUnLCAnPG91dGZpbGUubWFlPic=

>  <r_lp_tautomer_probability>  (183) 
1

>  <r_epik_Ionization_Penalty>  (183) 
2.46262e-10

>  <r_epik_Ionization_Penalty_Charging>  (183) 
0

>  <r_epik_Ionization_Penalty_Neutral>  (183) 
2.46262e-10

>  <r_epik_State_Penalty>  (183) 
-0

>  <r_epik_Charging_Adjusted_Penalty>  (183) 
0

>  <i_epik_Tot_Q>  (183) 
0

>  <i_epik_Tot_abs_Q>  (183) 
0

>  <s_lp_Force_Field>  (183) 
OPLS3e

>  <r_lp_Energy>  (183) 
15.2882

>  <b_lp_Chiralities_Consistent>  (183) 
1

>  <s_lp_Variant>  (183) 
58:0-1

>  <s_i_glide_gridfile>  (183) 
pfpi4k_grid

>  <i_i_glide_lignum>  (183) 
1

>  <i_i_glide_rotatable_bonds>  (183) 
1

>  <r_i_docking_score>  (183) 
-3.96588

>  <r_i_glide_ligand_efficiency>  (183) 
-0.220326

>  <r_i_glide_ligand_efficiency_sa>  (183) 
-0.577419

>  <r_i_glide_ligand_efficiency_ln>  (183) 
-1.01941

>  <r_i_glide_gscore>  (183) 
-3.96588

>  <r_i_glide_lipo>  (183) 
-0.821508

>  <r_i_glide_hbond>  (183) 
-0.0626186

>  <r_i_glide_metal>  (183) 
-0

>  <r_i_glide_rewards>  (183) 
-1.77741

>  <r_i_glide_evdw>  (183) 
-25.0445

>  <r_i_glide_ecoul>  (183) 
-1.83982

>  <r_i_glide_erotb>  (183) 
0.281338

>  <r_i_glide_esite>  (183) 
-0.0574858

>  <r_i_glide_emodel>  (183) 
-33.2854

>  <r_i_glide_energy>  (183) 
-26.8843

>  <r_i_glide_einternal>  (183) 
1.17548

>  <r_i_glide_intrahb_reward>  (183) 
-0

>  <i_i_glide_confnum>  (183) 
3

>  <i_i_glide_posenum>  (183) 
18

>  <r_i_glide_eff_state_penalty>  (183) 
0

>  <ligand_id>  (183) 
58

>  <original_smiles>  (183) 
CC1(C)C(=O)N(C2CC2)C(=O)C12CCC(=O)CC2

>  <smiles>  (183) 
[H]C([H])([H])C1(C([H])([H])[H])C(=O)N(C2([H])C([H])([H])C2([H])[H])C(=O)C12C([H])([H])C([H])([H])C(=O)C([H])([H])C2([H])[H]

$$$$
58:0:2
     RDKit          3D

 37 39  0  0  1  0  0  0  0  0999 V2000
    6.9779   -3.6331    0.6349 C   0  0  0  0  0  0  0  0  0  0  0  0
    5.8160   -2.6426    0.3083 C   0  0  0  0  0  0  0  0  0  0  0  0
    6.2236   -1.2600    0.8501 C   0  0  0  0  0  0  0  0  0  0  0  0
    5.6863   -2.5569   -1.2189 C   0  0  0  0  0  0  0  0  0  0  0  0
    6.6583   -2.2489   -1.9219 O   0  0  0  0  0  0  0  0  0  0  0  0
    4.4417   -2.8312   -1.6446 N   0  0  0  0  0  0  0  0  0  0  0  0
    4.0647   -2.8763   -3.0428 C   0  0  0  0  0  0  0  0  0  0  0  0
    3.7943   -1.5922   -3.7946 C   0  0  0  0  0  0  0  0  0  0  0  0
    2.6561   -2.5546   -3.5113 C   0  0  0  0  0  0  0  0  0  0  0  0
    3.6381   -3.1965   -0.6306 C   0  0  0  0  0  0  0  0  0  0  0  0
    2.4535   -3.5759   -0.7149 O   0  0  0  0  0  0  0  0  0  0  0  0
    4.3811   -3.1268    0.7228 C   0  0  0  0  0  0  0  0  0  0  0  0
    3.6338   -2.1515    1.6991 C   0  0  0  0  0  0  0  0  0  0  0  0
    2.2839   -2.6686    2.2440 C   0  0  0  0  0  0  0  0  0  0  0  0
    2.3917   -4.0889    2.7868 C   0  0  0  0  0  0  0  0  0  0  0  0
    1.9320   -4.3914    3.8844 O   0  0  0  0  0  0  0  0  0  0  0  0
    3.1032   -5.0976    1.8883 C   0  0  0  0  0  0  0  0  0  0  0  0
    4.4355   -4.5383    1.3822 C   0  0  0  0  0  0  0  0  0  0  0  0
    7.0611   -3.7456    1.7215 H   0  0  0  0  0  0  0  0  0  0  0  0
    7.9384   -3.2709    0.2713 H   0  0  0  0  0  0  0  0  0  0  0  0
    6.8009   -4.6415    0.2412 H   0  0  0  0  0  0  0  0  0  0  0  0
    6.2879   -1.2864    1.9354 H   0  0  0  0  0  0  0  0  0  0  0  0
    5.5167   -0.4780    0.5782 H   0  0  0  0  0  0  0  0  0  0  0  0
    7.2000   -0.9479    0.4883 H   0  0  0  0  0  0  0  0  0  0  0  0
    4.5579   -3.6620   -3.6257 H   0  0  0  0  0  0  0  0  0  0  0  0
    3.8230   -0.6708   -3.2101 H   0  0  0  0  0  0  0  0  0  0  0  0
    4.1287   -1.5060   -4.8226 H   0  0  0  0  0  0  0  0  0  0  0  0
    2.2466   -3.1201   -4.3364 H   0  0  0  0  0  0  0  0  0  0  0  0
    1.9148   -2.2185   -2.7816 H   0  0  0  0  0  0  0  0  0  0  0  0
    4.2649   -1.9263    2.5653 H   0  0  0  0  0  0  0  0  0  0  0  0
    3.4442   -1.1858    1.2039 H   0  0  0  0  0  0  0  0  0  0  0  0
    1.9304   -1.9871    3.0232 H   0  0  0  0  0  0  0  0  0  0  0  0
    1.5467   -2.6434    1.4440 H   0  0  0  0  0  0  0  0  0  0  0  0
    3.3377   -5.9968    2.4528 H   0  0  0  0  0  0  0  0  0  0  0  0
    2.4682   -5.3998    1.0529 H   0  0  0  0  0  0  0  0  0  0  0  0
    4.8583   -5.2649    0.6689 H   0  0  0  0  0  0  0  0  0  0  0  0
    5.1323   -4.4989    2.2344 H   0  0  0  0  0  0  0  0  0  0  0  0
  1  2  1  0
  1 19  1  0
  1 20  1  0
  1 21  1  0
  2 12  1  0
  2  3  1  0
  2  4  1  0
  3 22  1  0
  3 23  1  0
  3 24  1  0
  4  5  2  0
  4  6  1  0
  6  7  1  0
  6 10  1  0
  7  9  1  0
  7  8  1  0
  7 25  1  0
  8  9  1  0
  8 26  1  0
  8 27  1  0
  9 28  1  0
  9 29  1  0
 10 11  2  0
 10 12  1  0
 12 18  1  0
 12 13  1  0
 13 14  1  0
 13 30  1  0
 13 31  1  0
 14 15  1  0
 14 32  1  0
 14 33  1  0
 15 16  2  0
 15 17  1  0
 17 18  1  0
 17 34  1  0
 17 35  1  0
 18 36  1  0
 18 37  1  0
M  END
>  <i_m_ct_stereo_status>  (184) 
1

>  <s_m_source_file>  (184) 
/var/tmp/pbs.5076255.sched01/tmpc36l9o9d/84wsylf1cs.sdf

>  <i_m_source_file_index>  (184) 
1

>  <i_lp_mmshare_version>  (184) 
48012

>  <i_f3d_flags>  (184) 
0

>  <s_epik_input>  (184) 
W0NIMl0xW0NIMl1bQ0hdMU4oQzI9TylDKD1PKUMoW0NIM10pKFtDSDNdKUMyM1tDSDJdW0NIMl1DKD1PKVtDSDJdW0NIMl0z

>  <s_epik_cmdline>  (184) 
J2VwaWtfcHl0aG9uJywgJy1waHQnLCAnMi4wJywgJy1waCcsICc3LjAnLCAnLXRuJywgJzgnLCAnLW1hJywgJzIwMCcsICctaW1hZScsICc8aW5maWxlLm1hZT4nLCAnLW9tYWUnLCAnPG91dGZpbGUubWFlPic=

>  <r_lp_tautomer_probability>  (184) 
1

>  <r_epik_Ionization_Penalty>  (184) 
2.46262e-10

>  <r_epik_Ionization_Penalty_Charging>  (184) 
0

>  <r_epik_Ionization_Penalty_Neutral>  (184) 
2.46262e-10

>  <r_epik_State_Penalty>  (184) 
-0

>  <r_epik_Charging_Adjusted_Penalty>  (184) 
0

>  <i_epik_Tot_Q>  (184) 
0

>  <i_epik_Tot_abs_Q>  (184) 
0

>  <s_lp_Force_Field>  (184) 
OPLS3e

>  <r_lp_Energy>  (184) 
15.2882

>  <b_lp_Chiralities_Consistent>  (184) 
1

>  <s_lp_Variant>  (184) 
58:0-1

>  <s_i_glide_gridfile>  (184) 
pfpi4k_grid

>  <i_i_glide_lignum>  (184) 
1

>  <i_i_glide_rotatable_bonds>  (184) 
1

>  <r_i_docking_score>  (184) 
-3.94136

>  <r_i_glide_ligand_efficiency>  (184) 
-0.218964

>  <r_i_glide_ligand_efficiency_sa>  (184) 
-0.573849

>  <r_i_glide_ligand_efficiency_ln>  (184) 
-1.01311

>  <r_i_glide_gscore>  (184) 
-3.94136

>  <r_i_glide_lipo>  (184) 
-0.775088

>  <r_i_glide_hbond>  (184) 
-0.16

>  <r_i_glide_metal>  (184) 
-0

>  <r_i_glide_rewards>  (184) 
-1.74758

>  <r_i_glide_evdw>  (184) 
-26.3757

>  <r_i_glide_ecoul>  (184) 
-1.24837

>  <r_i_glide_erotb>  (184) 
0.281338

>  <r_i_glide_esite>  (184) 
-0.0339859

>  <r_i_glide_emodel>  (184) 
-33.6731

>  <r_i_glide_energy>  (184) 
-27.6241

>  <r_i_glide_einternal>  (184) 
1.61968

>  <r_i_glide_intrahb_reward>  (184) 
-0

>  <i_i_glide_confnum>  (184) 
4

>  <i_i_glide_posenum>  (184) 
29

>  <r_i_glide_eff_state_penalty>  (184) 
0

>  <ligand_id>  (184) 
58

>  <original_smiles>  (184) 
CC1(C)C(=O)N(C2CC2)C(=O)C12CCC(=O)CC2

>  <smiles>  (184) 
[H]C([H])([H])C1(C([H])([H])[H])C(=O)N(C2([H])C([H])([H])C2([H])[H])C(=O)C12C([H])([H])C([H])([H])C(=O)C([H])([H])C2([H])[H]

$$$$
59:0:0
     RDKit          3D

 34 37  0  0  1  0  0  0  0  0999 V2000
   -3.4062    2.9448    8.4322 C   0  0  0  0  0  0  0  0  0  0  0  0
   -2.5989    2.5026    7.2241 C   0  0  0  0  0  0  0  0  0  0  0  0
   -1.9991    1.3147    7.3105 N   0  0  0  0  0  0  0  0  0  0  0  0
   -1.2491    0.9306    6.2593 C   0  0  0  0  0  0  0  0  0  0  0  0
   -1.1250    1.7073    5.0875 C   0  0  0  0  0  0  0  0  0  0  0  0
   -0.3375    1.2387    3.8458 C   0  0  2  0  0  0  0  0  0  0  0  0
    0.7390    0.1632    4.0906 C   0  0  1  0  0  0  0  0  0  0  0  0
    1.0931   -0.4951    2.7326 C   0  0  0  0  0  0  0  0  0  0  0  0
    1.5191    0.4741    1.6885 N   0  0  0  0  0  0  0  0  0  0  0  0
    0.9372    1.8407    1.7732 C   0  0  0  0  0  0  0  0  0  0  0  0
    0.5981    2.2900    3.2232 C   0  0  2  0  0  0  0  0  0  0  0  0
    1.8079    2.3291    4.1579 C   0  0  2  0  0  0  0  0  0  0  0  0
    3.0931    1.5450    4.0595 C   0  0  0  0  0  0  0  0  0  0  0  0
    1.8984    0.9220    4.7350 C   0  0  2  0  0  0  0  0  0  0  0  0
   -1.8422    2.9247    5.1039 C   0  0  0  0  0  0  0  0  0  0  0  0
   -2.5670    3.3230    6.1745 N   0  0  0  0  0  0  0  0  0  0  0  0
   -3.3570    2.2203    9.2440 H   0  0  0  0  0  0  0  0  0  0  0  0
   -4.4533    3.0651    8.1620 H   0  0  0  0  0  0  0  0  0  0  0  0
   -3.0328    3.8957    8.8154 H   0  0  0  0  0  0  0  0  0  0  0  0
   -0.7841   -0.0350    6.3765 H   0  0  0  0  0  0  0  0  0  0  0  0
   -1.0825    0.9004    3.1242 H   0  0  0  0  0  0  0  0  0  0  0  0
    0.4074   -0.6354    4.7484 H   0  0  0  0  0  0  0  0  0  0  0  0
    1.8789   -1.2430    2.8689 H   0  0  0  0  0  0  0  0  0  0  0  0
    0.2158   -1.0233    2.3649 H   0  0  0  0  0  0  0  0  0  0  0  0
    2.5156    0.5869    1.8021 H   0  0  0  0  0  0  0  0  0  0  0  0
    1.6352    2.5453    1.3176 H   0  0  0  0  0  0  0  0  0  0  0  0
    0.0292    1.8520    1.1695 H   0  0  0  0  0  0  0  0  0  0  0  0
    0.1432    3.2781    3.1783 H   0  0  0  0  0  0  0  0  0  0  0  0
    1.7856    3.1347    4.8911 H   0  0  0  0  0  0  0  0  0  0  0  0
    3.4282    1.1710    3.0986 H   0  0  0  0  0  0  0  0  0  0  0  0
    3.9019    1.8638    4.7125 H   0  0  0  0  0  0  0  0  0  0  0  0
    1.9242    0.8696    5.8224 H   0  0  0  0  0  0  0  0  0  0  0  0
   -1.8576    3.5875    4.2530 H   0  0  0  0  0  0  0  0  0  0  0  0
    1.3442    0.0762    0.7666 H   0  0  0  0  0  0  0  0  0  0  0  0
  1  2  1  0
  1 17  1  0
  1 18  1  0
  1 19  1  0
  2 16  2  0
  2  3  1  0
  3  4  2  0
  4  5  1  0
  4 20  1  0
  5  6  1  0
  5 15  2  0
  6 11  1  0
  6  7  1  0
  6 21  1  6
  7 14  1  0
  7  8  1  0
  7 22  1  1
  8  9  1  0
  8 23  1  0
  8 24  1  0
  9 10  1  0
  9 25  1  0
  9 34  1  0
 10 11  1  0
 10 26  1  0
 10 27  1  0
 11 12  1  0
 11 28  1  6
 12 14  1  0
 12 13  1  0
 12 29  1  1
 13 14  1  0
 13 30  1  0
 13 31  1  0
 14 32  1  1
 15 16  1  0
 15 33  1  0
M  CHG  1   9   1
M  END
>  <i_m_ct_stereo_status>  (185) 
1

>  <s_m_source_file>  (185) 
/var/tmp/pbs.5076255.sched01/tmpc36l9o9d/84wsylf1cs.sdf

>  <i_m_source_file_index>  (185) 
2

>  <i_lp_mmshare_version>  (185) 
48012

>  <i_f3d_flags>  (185) 
0

>  <s_epik_input>  (185) 
W0NIM11jMW5bY0hdYyhbY0hdbjEpW0NASF0yW0NASF0oW0NIMl1bTkhdW0NIMl0zKVtDQEhdKFtDSDJdNClbQ0BIXTRbQ0BASF0yMw==

>  <s_epik_cmdline>  (185) 
J2VwaWtfcHl0aG9uJywgJy1waHQnLCAnMi4wJywgJy1waCcsICc3LjAnLCAnLXRuJywgJzgnLCAnLW1hJywgJzIwMCcsICctaW1hZScsICc8aW5maWxlLm1hZT4nLCAnLW9tYWUnLCAnPG91dGZpbGUubWFlPic=

>  <r_lp_tautomer_probability>  (185) 
1

>  <r_epik_Ionization_Penalty>  (185) 
0.000893961

>  <r_epik_Ionization_Penalty_Charging>  (185) 
0.000887118

>  <r_epik_Ionization_Penalty_Neutral>  (185) 
6.84318e-06

>  <r_epik_State_Penalty>  (185) 
0.000573636

>  <r_epik_Charging_Adjusted_Penalty>  (185) 
0.00146075

>  <i_epik_Tot_Q>  (185) 
1

>  <i_epik_Tot_abs_Q>  (185) 
1

>  <s_epik_Chemistry_Notes>  (185) 
This compound contains an electron-poor aromatic ring that is susceptible to covalent hydrolysis at low pH, typically resulting in measured values for nitrogen ring protonation that are around two units higher than predicted values.

>  <s_lp_Force_Field>  (185) 
OPLS3e

>  <r_lp_Energy>  (185) 
49.5625

>  <b_lp_Chiralities_Consistent>  (185) 
1

>  <s_lp_Variant>  (185) 
59:0-1

>  <s_i_glide_gridfile>  (185) 
pfpi4k_grid

>  <i_i_glide_lignum>  (185) 
2

>  <i_i_glide_rotatable_bonds>  (185) 
1

>  <r_i_docking_score>  (185) 
-4.21064

>  <r_i_glide_ligand_efficiency>  (185) 
-0.263165

>  <r_i_glide_ligand_efficiency_sa>  (185) 
-0.663134

>  <r_i_glide_ligand_efficiency_ln>  (185) 
-1.11611

>  <r_i_glide_gscore>  (185) 
-4.21064

>  <r_i_glide_lipo>  (185) 
-0.0145948

>  <r_i_glide_hbond>  (185) 
-0.343534

>  <r_i_glide_metal>  (185) 
-0

>  <r_i_glide_rewards>  (185) 
-2.09273

>  <r_i_glide_evdw>  (185) 
-15.3192

>  <r_i_glide_ecoul>  (185) 
-8.54379

>  <r_i_glide_erotb>  (185) 
0.358099

>  <r_i_glide_esite>  (185) 
-0.0703517

>  <r_i_glide_emodel>  (185) 
-32.5542

>  <r_i_glide_energy>  (185) 
-23.863

>  <r_i_glide_einternal>  (185) 
0.0821492

>  <r_i_glide_intrahb_reward>  (185) 
-0

>  <i_i_glide_confnum>  (185) 
2

>  <i_i_glide_posenum>  (185) 
32

>  <r_i_glide_eff_state_penalty>  (185) 
0

>  <ligand_id>  (185) 
59

>  <original_smiles>  (185) 
Cc1ncc(C2C3CNCC2C2CC23)cn1

>  <smiles>  (185) 
[H]c1nc(C([H])([H])[H])nc([H])c1C1([H])C2([H])C3([H])C([H])([H])C3([H])C1([H])C([H])([H])[N+]([H])([H])C2([H])[H]

$$$$
59:0:1
     RDKit          3D

 34 37  0  0  1  0  0  0  0  0999 V2000
   -3.3279    3.0304    8.7412 C   0  0  0  0  0  0  0  0  0  0  0  0
   -2.5887    2.5351    7.5110 C   0  0  0  0  0  0  0  0  0  0  0  0
   -1.9867    1.3436    7.5839 N   0  0  0  0  0  0  0  0  0  0  0  0
   -1.3071    0.9364    6.4882 C   0  0  0  0  0  0  0  0  0  0  0  0
   -1.2699    1.6841    5.2966 C   0  0  0  0  0  0  0  0  0  0  0  0
   -0.5633    1.1532    4.0315 C   0  0  2  0  0  0  0  0  0  0  0  0
    0.9009    0.7134    4.2295 C   0  0  1  0  0  0  0  0  0  0  0  0
    1.3051   -0.1893    3.0268 C   0  0  0  0  0  0  0  0  0  0  0  0
    1.0966    0.4559    1.6955 N   0  0  0  0  0  0  0  0  0  0  0  0
   -0.0216    1.4283    1.6095 C   0  0  0  0  0  0  0  0  0  0  0  0
   -0.2986    2.1856    2.9258 C   0  0  2  0  0  0  0  0  0  0  0  0
    0.8891    3.0001    3.4405 C   0  0  2  0  0  0  0  0  0  0  0  0
    2.3561    2.7767    3.1793 C   0  0  0  0  0  0  0  0  0  0  0  0
    1.6851    2.0254    4.3022 C   0  0  2  0  0  0  0  0  0  0  0  0
   -1.9782    2.9062    5.3379 C   0  0  0  0  0  0  0  0  0  0  0  0
   -2.6187    3.3305    6.4460 N   0  0  0  0  0  0  0  0  0  0  0  0
   -3.2441    2.3334    9.5747 H   0  0  0  0  0  0  0  0  0  0  0  0
   -4.3870    3.1705    8.5231 H   0  0  0  0  0  0  0  0  0  0  0  0
   -2.9235    3.9892    9.0663 H   0  0  0  0  0  0  0  0  0  0  0  0
   -0.8284   -0.0292    6.5671 H   0  0  0  0  0  0  0  0  0  0  0  0
   -1.1748    0.3272    3.6645 H   0  0  0  0  0  0  0  0  0  0  0  0
    1.0436    0.1563    5.1558 H   0  0  0  0  0  0  0  0  0  0  0  0
    2.3525   -0.4857    3.1080 H   0  0  0  0  0  0  0  0  0  0  0  0
    0.7171   -1.1058    3.0548 H   0  0  0  0  0  0  0  0  0  0  0  0
    1.9308    0.9813    1.5005 H   0  0  0  0  0  0  0  0  0  0  0  0
    0.2080    2.1344    0.8199 H   0  0  0  0  0  0  0  0  0  0  0  0
   -0.9241    0.8981    1.3097 H   0  0  0  0  0  0  0  0  0  0  0  0
   -1.1453    2.8407    2.7340 H   0  0  0  0  0  0  0  0  0  0  0  0
    0.6190    3.9364    3.9250 H   0  0  0  0  0  0  0  0  0  0  0  0
    2.6669    2.2568    2.2827 H   0  0  0  0  0  0  0  0  0  0  0  0
    3.0249    3.5864    3.4675 H   0  0  0  0  0  0  0  0  0  0  0  0
    1.9021    2.3668    5.3140 H   0  0  0  0  0  0  0  0  0  0  0  0
   -2.0680    3.5643    4.4902 H   0  0  0  0  0  0  0  0  0  0  0  0
    0.9977   -0.2341    0.9573 H   0  0  0  0  0  0  0  0  0  0  0  0
  1  2  1  0
  1 17  1  0
  1 18  1  0
  1 19  1  0
  2 16  2  0
  2  3  1  0
  3  4  2  0
  4  5  1  0
  4 20  1  0
  5  6  1  0
  5 15  2  0
  6 11  1  0
  6  7  1  0
  6 21  1  6
  7 14  1  0
  7  8  1  0
  7 22  1  1
  8  9  1  0
  8 23  1  0
  8 24  1  0
  9 10  1  0
  9 25  1  0
  9 34  1  0
 10 11  1  0
 10 26  1  0
 10 27  1  0
 11 12  1  0
 11 28  1  6
 12 14  1  0
 12 13  1  0
 12 29  1  1
 13 14  1  0
 13 30  1  0
 13 31  1  0
 14 32  1  1
 15 16  1  0
 15 33  1  0
M  CHG  1   9   1
M  END
>  <i_m_ct_stereo_status>  (186) 
1

>  <s_m_source_file>  (186) 
/var/tmp/pbs.5076255.sched01/tmpc36l9o9d/84wsylf1cs.sdf

>  <i_m_source_file_index>  (186) 
2

>  <i_lp_mmshare_version>  (186) 
48012

>  <i_f3d_flags>  (186) 
0

>  <s_epik_input>  (186) 
W0NIM11jMW5bY0hdYyhbY0hdbjEpW0NASF0yW0NASF0oW0NIMl1bTkhdW0NIMl0zKVtDQEhdKFtDSDJdNClbQ0BIXTRbQ0BASF0yMw==

>  <s_epik_cmdline>  (186) 
J2VwaWtfcHl0aG9uJywgJy1waHQnLCAnMi4wJywgJy1waCcsICc3LjAnLCAnLXRuJywgJzgnLCAnLW1hJywgJzIwMCcsICctaW1hZScsICc8aW5maWxlLm1hZT4nLCAnLW9tYWUnLCAnPG91dGZpbGUubWFlPic=

>  <r_lp_tautomer_probability>  (186) 
1

>  <r_epik_Ionization_Penalty>  (186) 
0.000893961

>  <r_epik_Ionization_Penalty_Charging>  (186) 
0.000887118

>  <r_epik_Ionization_Penalty_Neutral>  (186) 
6.84318e-06

>  <r_epik_State_Penalty>  (186) 
0.000573636

>  <r_epik_Charging_Adjusted_Penalty>  (186) 
0.00146075

>  <i_epik_Tot_Q>  (186) 
1

>  <i_epik_Tot_abs_Q>  (186) 
1

>  <s_epik_Chemistry_Notes>  (186) 
This compound contains an electron-poor aromatic ring that is susceptible to covalent hydrolysis at low pH, typically resulting in measured values for nitrogen ring protonation that are around two units higher than predicted values.

>  <s_lp_Force_Field>  (186) 
OPLS3e

>  <r_lp_Energy>  (186) 
49.5625

>  <b_lp_Chiralities_Consistent>  (186) 
1

>  <s_lp_Variant>  (186) 
59:0-1

>  <s_i_glide_gridfile>  (186) 
pfpi4k_grid

>  <i_i_glide_lignum>  (186) 
2

>  <i_i_glide_rotatable_bonds>  (186) 
1

>  <r_i_docking_score>  (186) 
-4.15151

>  <r_i_glide_ligand_efficiency>  (186) 
-0.259469

>  <r_i_glide_ligand_efficiency_sa>  (186) 
-0.653821

>  <r_i_glide_ligand_efficiency_ln>  (186) 
-1.10044

>  <r_i_glide_gscore>  (186) 
-4.15151

>  <r_i_glide_lipo>  (186) 
-0.0140192

>  <r_i_glide_hbond>  (186) 
-0.34065

>  <r_i_glide_metal>  (186) 
-0

>  <r_i_glide_rewards>  (186) 
-2.08228

>  <r_i_glide_evdw>  (186) 
-15.9683

>  <r_i_glide_ecoul>  (186) 
-7.92219

>  <r_i_glide_erotb>  (186) 
0.358099

>  <r_i_glide_esite>  (186) 
-0.0859125

>  <r_i_glide_emodel>  (186) 
-32.4222

>  <r_i_glide_energy>  (186) 
-23.8905

>  <r_i_glide_einternal>  (186) 
0.0802987

>  <r_i_glide_intrahb_reward>  (186) 
-0

>  <i_i_glide_confnum>  (186) 
6

>  <i_i_glide_posenum>  (186) 
33

>  <r_i_glide_eff_state_penalty>  (186) 
0

>  <ligand_id>  (186) 
59

>  <original_smiles>  (186) 
Cc1ncc(C2C3CNCC2C2CC23)cn1

>  <smiles>  (186) 
[H]c1nc(C([H])([H])[H])nc([H])c1C1([H])C2([H])C3([H])C([H])([H])C3([H])C1([H])C([H])([H])[N+]([H])([H])C2([H])[H]

$$$$
59:0:2
     RDKit          3D

 34 37  0  0  1  0  0  0  0  0999 V2000
   -2.1199    2.5887    9.1830 C   0  0  0  0  0  0  0  0  0  0  0  0
   -1.6059    2.1612    7.8238 C   0  0  0  0  0  0  0  0  0  0  0  0
   -2.1732    1.1093    7.2255 N   0  0  0  0  0  0  0  0  0  0  0  0
   -1.6990    0.7771    6.0034 C   0  0  0  0  0  0  0  0  0  0  0  0
   -0.6321    1.4657    5.3840 C   0  0  0  0  0  0  0  0  0  0  0  0
   -0.1041    1.0320    3.9981 C   0  0  2  0  0  0  0  0  0  0  0  0
    1.4042    0.7488    3.9027 C   0  0  1  0  0  0  0  0  0  0  0  0
    1.6627   -0.0885    2.6174 C   0  0  0  0  0  0  0  0  0  0  0  0
    1.1439    0.5551    1.3813 N   0  0  0  0  0  0  0  0  0  0  0  0
   -0.0740    1.3966    1.5371 C   0  0  0  0  0  0  0  0  0  0  0  0
   -0.1748    2.1038    2.9096 C   0  0  2  0  0  0  0  0  0  0  0  0
    1.0072    3.0245    3.1921 C   0  0  2  0  0  0  0  0  0  0  0  0
    2.4069    2.9711    2.6517 C   0  0  0  0  0  0  0  0  0  0  0  0
    2.0575    2.1271    3.8457 C   0  0  2  0  0  0  0  0  0  0  0  0
   -0.1251    2.5554    6.1357 C   0  0  0  0  0  0  0  0  0  0  0  0
   -0.6137    2.8975    7.3370 N   0  0  0  0  0  0  0  0  0  0  0  0
   -2.9438    1.9618    9.5150 H   0  0  0  0  0  0  0  0  0  0  0  0
   -2.4750    3.6197    9.1475 H   0  0  0  0  0  0  0  0  0  0  0  0
   -1.3219    2.5345    9.9259 H   0  0  0  0  0  0  0  0  0  0  0  0
   -2.1707   -0.0696    5.5280 H   0  0  0  0  0  0  0  0  0  0  0  0
   -0.6708    0.1466    3.6968 H   0  0  0  0  0  0  0  0  0  0  0  0
    1.7603    0.2012    4.7758 H   0  0  0  0  0  0  0  0  0  0  0  0
    2.7327   -0.2683    2.4892 H   0  0  0  0  0  0  0  0  0  0  0  0
    1.1906   -1.0659    2.7169 H   0  0  0  0  0  0  0  0  0  0  0  0
    1.8680    1.1761    1.0549 H   0  0  0  0  0  0  0  0  0  0  0  0
   -0.0851    2.1366    0.7355 H   0  0  0  0  0  0  0  0  0  0  0  0
   -0.9500    0.7708    1.3880 H   0  0  0  0  0  0  0  0  0  0  0  0
   -1.1093    2.6625    2.9603 H   0  0  0  0  0  0  0  0  0  0  0  0
    0.7447    3.9409    3.7094 H   0  0  0  0  0  0  0  0  0  0  0  0
    2.5935    2.4941    1.7015 H   0  0  0  0  0  0  0  0  0  0  0  0
    3.0260    3.8465    2.8509 H   0  0  0  0  0  0  0  0  0  0  0  0
    2.4763    2.4652    4.7872 H   0  0  0  0  0  0  0  0  0  0  0  0
    0.6791    3.1938    5.8133 H   0  0  0  0  0  0  0  0  0  0  0  0
    0.9896   -0.1293    0.6326 H   0  0  0  0  0  0  0  0  0  0  0  0
  1  2  1  0
  1 17  1  0
  1 18  1  0
  1 19  1  0
  2 16  2  0
  2  3  1  0
  3  4  2  0
  4  5  1  0
  4 20  1  0
  5  6  1  0
  5 15  2  0
  6 11  1  0
  6  7  1  0
  6 21  1  6
  7 14  1  0
  7  8  1  0
  7 22  1  1
  8  9  1  0
  8 23  1  0
  8 24  1  0
  9 10  1  0
  9 25  1  0
  9 34  1  0
 10 11  1  0
 10 26  1  0
 10 27  1  0
 11 12  1  0
 11 28  1  6
 12 14  1  0
 12 13  1  0
 12 29  1  1
 13 14  1  0
 13 30  1  0
 13 31  1  0
 14 32  1  1
 15 16  1  0
 15 33  1  0
M  CHG  1   9   1
M  END
>  <i_m_ct_stereo_status>  (187) 
1

>  <s_m_source_file>  (187) 
/var/tmp/pbs.5076255.sched01/tmpc36l9o9d/84wsylf1cs.sdf

>  <i_m_source_file_index>  (187) 
2

>  <i_lp_mmshare_version>  (187) 
48012

>  <i_f3d_flags>  (187) 
0

>  <s_epik_input>  (187) 
W0NIM11jMW5bY0hdYyhbY0hdbjEpW0NASF0yW0NASF0oW0NIMl1bTkhdW0NIMl0zKVtDQEhdKFtDSDJdNClbQ0BIXTRbQ0BASF0yMw==

>  <s_epik_cmdline>  (187) 
J2VwaWtfcHl0aG9uJywgJy1waHQnLCAnMi4wJywgJy1waCcsICc3LjAnLCAnLXRuJywgJzgnLCAnLW1hJywgJzIwMCcsICctaW1hZScsICc8aW5maWxlLm1hZT4nLCAnLW9tYWUnLCAnPG91dGZpbGUubWFlPic=

>  <r_lp_tautomer_probability>  (187) 
1

>  <r_epik_Ionization_Penalty>  (187) 
0.000893961

>  <r_epik_Ionization_Penalty_Charging>  (187) 
0.000887118

>  <r_epik_Ionization_Penalty_Neutral>  (187) 
6.84318e-06

>  <r_epik_State_Penalty>  (187) 
0.000573636

>  <r_epik_Charging_Adjusted_Penalty>  (187) 
0.00146075

>  <i_epik_Tot_Q>  (187) 
1

>  <i_epik_Tot_abs_Q>  (187) 
1

>  <s_epik_Chemistry_Notes>  (187) 
This compound contains an electron-poor aromatic ring that is susceptible to covalent hydrolysis at low pH, typically resulting in measured values for nitrogen ring protonation that are around two units higher than predicted values.

>  <s_lp_Force_Field>  (187) 
OPLS3e

>  <r_lp_Energy>  (187) 
49.5625

>  <b_lp_Chiralities_Consistent>  (187) 
1

>  <s_lp_Variant>  (187) 
59:0-1

>  <s_i_glide_gridfile>  (187) 
pfpi4k_grid

>  <i_i_glide_lignum>  (187) 
2

>  <i_i_glide_rotatable_bonds>  (187) 
1

>  <r_i_docking_score>  (187) 
-4.07625

>  <r_i_glide_ligand_efficiency>  (187) 
-0.254766

>  <r_i_glide_ligand_efficiency_sa>  (187) 
-0.641969

>  <r_i_glide_ligand_efficiency_ln>  (187) 
-1.08049

>  <r_i_glide_gscore>  (187) 
-4.07625

>  <r_i_glide_lipo>  (187) 
0

>  <r_i_glide_hbond>  (187) 
-0.36

>  <r_i_glide_metal>  (187) 
-0

>  <r_i_glide_rewards>  (187) 
-1.9343

>  <r_i_glide_evdw>  (187) 
-10.5176

>  <r_i_glide_ecoul>  (187) 
-9.95059

>  <r_i_glide_erotb>  (187) 
0.358099

>  <r_i_glide_esite>  (187) 
-0.121578

>  <r_i_glide_emodel>  (187) 
-28.1171

>  <r_i_glide_energy>  (187) 
-20.4682

>  <r_i_glide_einternal>  (187) 
1.20326

>  <r_i_glide_intrahb_reward>  (187) 
-0

>  <i_i_glide_confnum>  (187) 
6

>  <i_i_glide_posenum>  (187) 
19

>  <r_i_glide_eff_state_penalty>  (187) 
0

>  <ligand_id>  (187) 
59

>  <original_smiles>  (187) 
Cc1ncc(C2C3CNCC2C2CC23)cn1

>  <smiles>  (187) 
[H]c1nc(C([H])([H])[H])nc([H])c1C1([H])C2([H])C3([H])C([H])([H])C3([H])C1([H])C([H])([H])[N+]([H])([H])C2([H])[H]

$$$$
59:1:0
     RDKit          3D

 34 37  0  0  1  0  0  0  0  0999 V2000
    3.2370   -0.0021   -5.3617 C   0  0  0  0  0  0  0  0  0  0  0  0
    3.7608   -0.8111   -4.1969 C   0  0  0  0  0  0  0  0  0  0  0  0
    4.2109   -0.1253   -3.1539 N   0  0  0  0  0  0  0  0  0  0  0  0
    4.6383   -0.8312   -2.0976 C   0  0  0  0  0  0  0  0  0  0  0  0
    4.6159   -2.2394   -2.0672 C   0  0  0  0  0  0  0  0  0  0  0  0
    5.1668   -3.0469   -0.8894 C   0  0  1  0  0  0  0  0  0  0  0  0
    5.3244   -2.3368    0.4677 C   0  0  1  0  0  0  0  0  0  0  0  0
    3.9898   -1.6701    0.9161 C   0  0  0  0  0  0  0  0  0  0  0  0
    2.8337   -2.6016    0.9005 N   0  0  0  0  0  0  0  0  0  0  0  0
    2.8735   -3.7339   -0.0668 C   0  0  0  0  0  0  0  0  0  0  0  0
    4.3107   -4.2181   -0.3909 C   0  0  2  0  0  0  0  0  0  0  0  0
    5.0845   -4.7196    0.8265 C   0  0  2  0  0  0  0  0  0  0  0  0
    4.8976   -4.3417    2.2729 C   0  0  0  0  0  0  0  0  0  0  0  0
    5.7622   -3.4745    1.3929 C   0  0  2  0  0  0  0  0  0  0  0  0
    4.1437   -2.8570   -3.2432 C   0  0  0  0  0  0  0  0  0  0  0  0
    3.7362   -2.1400   -4.3137 N   0  0  0  0  0  0  0  0  0  0  0  0
    3.3060    1.0703   -5.1754 H   0  0  0  0  0  0  0  0  0  0  0  0
    2.1886   -0.2435   -5.5308 H   0  0  0  0  0  0  0  0  0  0  0  0
    3.8037   -0.2337   -6.2598 H   0  0  0  0  0  0  0  0  0  0  0  0
    5.0565   -0.2568   -1.2871 H   0  0  0  0  0  0  0  0  0  0  0  0
    6.1405   -3.4307   -1.2099 H   0  0  0  0  0  0  0  0  0  0  0  0
    6.1202   -1.5936    0.4266 H   0  0  0  0  0  0  0  0  0  0  0  0
    4.0999   -1.2506    1.9177 H   0  0  0  0  0  0  0  0  0  0  0  0
    3.7089   -0.8322    0.2843 H   0  0  0  0  0  0  0  0  0  0  0  0
    2.7960   -3.0086    1.8225 H   0  0  0  0  0  0  0  0  0  0  0  0
    2.2945   -4.5595    0.3497 H   0  0  0  0  0  0  0  0  0  0  0  0
    2.3659   -3.4264   -0.9814 H   0  0  0  0  0  0  0  0  0  0  0  0
    4.2727   -5.0224   -1.1212 H   0  0  0  0  0  0  0  0  0  0  0  0
    5.7471   -5.5600    0.6191 H   0  0  0  0  0  0  0  0  0  0  0  0
    3.9351   -3.9802    2.6178 H   0  0  0  0  0  0  0  0  0  0  0  0
    5.4199   -4.9608    2.9984 H   0  0  0  0  0  0  0  0  0  0  0  0
    6.8400   -3.5552    1.5344 H   0  0  0  0  0  0  0  0  0  0  0  0
    4.1301   -3.9314   -3.3466 H   0  0  0  0  0  0  0  0  0  0  0  0
    1.9953   -2.0555    0.7384 H   0  0  0  0  0  0  0  0  0  0  0  0
  1  2  1  0
  1 17  1  0
  1 18  1  0
  1 19  1  0
  2 16  2  0
  2  3  1  0
  3  4  2  0
  4  5  1  0
  4 20  1  0
  5  6  1  0
  5 15  2  0
  6 11  1  0
  6  7  1  0
  6 21  1  6
  7 14  1  0
  7  8  1  0
  7 22  1  6
  8  9  1  0
  8 23  1  0
  8 24  1  0
  9 10  1  0
  9 25  1  0
  9 34  1  0
 10 11  1  0
 10 26  1  0
 10 27  1  0
 11 12  1  0
 11 28  1  6
 12 14  1  0
 12 13  1  0
 12 29  1  1
 13 14  1  0
 13 30  1  0
 13 31  1  0
 14 32  1  1
 15 16  1  0
 15 33  1  0
M  CHG  1   9   1
M  END
>  <i_m_ct_stereo_status>  (188) 
1

>  <s_m_source_file>  (188) 
/var/tmp/pbs.5076255.sched01/tmpc36l9o9d/84wsylf1cs.sdf

>  <i_m_source_file_index>  (188) 
3

>  <i_lp_mmshare_version>  (188) 
48012

>  <i_f3d_flags>  (188) 
0

>  <s_epik_input>  (188) 
W0NIM11jMW5bY0hdYyhbY0hdbjEpW0NASF0yW0NASF0oW0NIMl1bTkhdW0NIMl0zKVtDQEhdKFtDSDJdNClbQ0BIXTRbQ0BASF0yMw==

>  <s_epik_cmdline>  (188) 
J2VwaWtfcHl0aG9uJywgJy1waHQnLCAnMi4wJywgJy1waCcsICc3LjAnLCAnLXRuJywgJzgnLCAnLW1hJywgJzIwMCcsICctaW1hZScsICc8aW5maWxlLm1hZT4nLCAnLW9tYWUnLCAnPG91dGZpbGUubWFlPic=

>  <r_lp_tautomer_probability>  (188) 
1

>  <r_epik_Ionization_Penalty>  (188) 
0.000893961

>  <r_epik_Ionization_Penalty_Charging>  (188) 
0.000887118

>  <r_epik_Ionization_Penalty_Neutral>  (188) 
6.84318e-06

>  <r_epik_State_Penalty>  (188) 
0.000573636

>  <r_epik_Charging_Adjusted_Penalty>  (188) 
0.00146075

>  <i_epik_Tot_Q>  (188) 
1

>  <i_epik_Tot_abs_Q>  (188) 
1

>  <s_epik_Chemistry_Notes>  (188) 
This compound contains an electron-poor aromatic ring that is susceptible to covalent hydrolysis at low pH, typically resulting in measured values for nitrogen ring protonation that are around two units higher than predicted values.

>  <s_lp_Force_Field>  (188) 
OPLS3e

>  <r_lp_Energy>  (188) 
48.4945

>  <b_lp_Chiralities_Consistent>  (188) 
1

>  <s_lp_Variant>  (188) 
59:0-2

>  <s_i_glide_gridfile>  (188) 
pfpi4k_grid

>  <i_i_glide_lignum>  (188) 
3

>  <i_i_glide_rotatable_bonds>  (188) 
1

>  <r_i_docking_score>  (188) 
-4.67706

>  <r_i_glide_ligand_efficiency>  (188) 
-0.292316

>  <r_i_glide_ligand_efficiency_sa>  (188) 
-0.736591

>  <r_i_glide_ligand_efficiency_ln>  (188) 
-1.23975

>  <r_i_glide_gscore>  (188) 
-4.67706

>  <r_i_glide_lipo>  (188) 
-0.437017

>  <r_i_glide_hbond>  (188) 
-0.403754

>  <r_i_glide_metal>  (188) 
-0

>  <r_i_glide_rewards>  (188) 
-2.13961

>  <r_i_glide_evdw>  (188) 
-20.3648

>  <r_i_glide_ecoul>  (188) 
-6.65802

>  <r_i_glide_erotb>  (188) 
0.358099

>  <r_i_glide_esite>  (188) 
-0.0378375

>  <r_i_glide_emodel>  (188) 
-34.1586

>  <r_i_glide_energy>  (188) 
-27.0228

>  <r_i_glide_einternal>  (188) 
0.696787

>  <r_i_glide_intrahb_reward>  (188) 
-0

>  <i_i_glide_confnum>  (188) 
3

>  <i_i_glide_posenum>  (188) 
1

>  <r_i_glide_eff_state_penalty>  (188) 
0

>  <ligand_id>  (188) 
59

>  <original_smiles>  (188) 
Cc1ncc(C2C3CNCC2C2CC23)cn1

>  <smiles>  (188) 
[H]c1nc(C([H])([H])[H])nc([H])c1C1([H])C2([H])C3([H])C([H])([H])C3([H])C1([H])C([H])([H])[N+]([H])([H])C2([H])[H]

$$$$
59:1:1
     RDKit          3D

 34 37  0  0  1  0  0  0  0  0999 V2000
    2.3999   -7.0155    1.7828 C   0  0  0  0  0  0  0  0  0  0  0  0
    2.6689   -5.7873    0.9444 C   0  0  0  0  0  0  0  0  0  0  0  0
    1.7283   -5.4528    0.0642 N   0  0  0  0  0  0  0  0  0  0  0  0
    1.9828   -4.3683   -0.7068 C   0  0  0  0  0  0  0  0  0  0  0  0
    3.1697   -3.6099   -0.5890 C   0  0  0  0  0  0  0  0  0  0  0  0
    3.4099   -2.3285   -1.3902 C   0  0  1  0  0  0  0  0  0  0  0  0
    4.8131   -2.0999   -1.9645 C   0  0  1  0  0  0  0  0  0  0  0  0
    5.2466   -3.3148   -2.8231 C   0  0  0  0  0  0  0  0  0  0  0  0
    4.2805   -3.6583   -3.9039 N   0  0  0  0  0  0  0  0  0  0  0  0
    2.8467   -3.3413   -3.6701 C   0  0  0  0  0  0  0  0  0  0  0  0
    2.6462   -2.1553   -2.7099 C   0  0  2  0  0  0  0  0  0  0  0  0
    3.1965   -0.8411   -3.2526 C   0  0  2  0  0  0  0  0  0  0  0  0
    4.3147   -0.6442   -4.2354 C   0  0  0  0  0  0  0  0  0  0  0  0
    4.6409   -0.8093   -2.7706 C   0  0  2  0  0  0  0  0  0  0  0  0
    4.0587   -4.0538    0.4086 C   0  0  0  0  0  0  0  0  0  0  0  0
    3.8136   -5.1406    1.1650 N   0  0  0  0  0  0  0  0  0  0  0  0
    1.4427   -7.4708    1.5248 H   0  0  0  0  0  0  0  0  0  0  0  0
    2.3770   -6.7456    2.8398 H   0  0  0  0  0  0  0  0  0  0  0  0
    3.1828   -7.7583    1.6239 H   0  0  0  0  0  0  0  0  0  0  0  0
    1.1942   -4.0963   -1.3936 H   0  0  0  0  0  0  0  0  0  0  0  0
    3.1598   -1.4977   -0.7236 H   0  0  0  0  0  0  0  0  0  0  0  0
    5.5404   -1.9340   -1.1717 H   0  0  0  0  0  0  0  0  0  0  0  0
    6.2108   -3.1090   -3.2934 H   0  0  0  0  0  0  0  0  0  0  0  0
    5.3814   -4.1966   -2.1941 H   0  0  0  0  0  0  0  0  0  0  0  0
    4.5532   -3.1011   -4.6987 H   0  0  0  0  0  0  0  0  0  0  0  0
    2.3573   -3.1311   -4.6234 H   0  0  0  0  0  0  0  0  0  0  0  0
    2.3377   -4.2252   -3.2967 H   0  0  0  0  0  0  0  0  0  0  0  0
    1.5866   -2.0817   -2.5329 H   0  0  0  0  0  0  0  0  0  0  0  0
    2.6110    0.0418   -3.0165 H   0  0  0  0  0  0  0  0  0  0  0  0
    4.5742   -1.4331   -4.9286 H   0  0  0  0  0  0  0  0  0  0  0  0
    4.4162    0.3622   -4.6329 H   0  0  0  0  0  0  0  0  0  0  0  0
    4.9270    0.0940   -2.2428 H   0  0  0  0  0  0  0  0  0  0  0  0
    4.9656   -3.5064    0.6242 H   0  0  0  0  0  0  0  0  0  0  0  0
    4.3610   -4.6418   -4.1168 H   0  0  0  0  0  0  0  0  0  0  0  0
  1  2  1  0
  1 17  1  0
  1 18  1  0
  1 19  1  0
  2 16  2  0
  2  3  1  0
  3  4  2  0
  4  5  1  0
  4 20  1  0
  5  6  1  0
  5 15  2  0
  6 11  1  0
  6  7  1  0
  6 21  1  1
  7 14  1  0
  7  8  1  0
  7 22  1  1
  8  9  1  0
  8 23  1  0
  8 24  1  0
  9 10  1  0
  9 25  1  0
  9 34  1  0
 10 11  1  0
 10 26  1  0
 10 27  1  0
 11 12  1  0
 11 28  1  1
 12 14  1  0
 12 13  1  0
 12 29  1  1
 13 14  1  0
 13 30  1  0
 13 31  1  0
 14 32  1  1
 15 16  1  0
 15 33  1  0
M  CHG  1   9   1
M  END
>  <i_m_ct_stereo_status>  (189) 
1

>  <s_m_source_file>  (189) 
/var/tmp/pbs.5076255.sched01/tmpc36l9o9d/84wsylf1cs.sdf

>  <i_m_source_file_index>  (189) 
3

>  <i_lp_mmshare_version>  (189) 
48012

>  <i_f3d_flags>  (189) 
0

>  <s_epik_input>  (189) 
W0NIM11jMW5bY0hdYyhbY0hdbjEpW0NASF0yW0NASF0oW0NIMl1bTkhdW0NIMl0zKVtDQEhdKFtDSDJdNClbQ0BIXTRbQ0BASF0yMw==

>  <s_epik_cmdline>  (189) 
J2VwaWtfcHl0aG9uJywgJy1waHQnLCAnMi4wJywgJy1waCcsICc3LjAnLCAnLXRuJywgJzgnLCAnLW1hJywgJzIwMCcsICctaW1hZScsICc8aW5maWxlLm1hZT4nLCAnLW9tYWUnLCAnPG91dGZpbGUubWFlPic=

>  <r_lp_tautomer_probability>  (189) 
1

>  <r_epik_Ionization_Penalty>  (189) 
0.000893961

>  <r_epik_Ionization_Penalty_Charging>  (189) 
0.000887118

>  <r_epik_Ionization_Penalty_Neutral>  (189) 
6.84318e-06

>  <r_epik_State_Penalty>  (189) 
0.000573636

>  <r_epik_Charging_Adjusted_Penalty>  (189) 
0.00146075

>  <i_epik_Tot_Q>  (189) 
1

>  <i_epik_Tot_abs_Q>  (189) 
1

>  <s_epik_Chemistry_Notes>  (189) 
This compound contains an electron-poor aromatic ring that is susceptible to covalent hydrolysis at low pH, typically resulting in measured values for nitrogen ring protonation that are around two units higher than predicted values.

>  <s_lp_Force_Field>  (189) 
OPLS3e

>  <r_lp_Energy>  (189) 
48.4945

>  <b_lp_Chiralities_Consistent>  (189) 
1

>  <s_lp_Variant>  (189) 
59:0-2

>  <s_i_glide_gridfile>  (189) 
pfpi4k_grid

>  <i_i_glide_lignum>  (189) 
3

>  <i_i_glide_rotatable_bonds>  (189) 
1

>  <r_i_docking_score>  (189) 
-3.71075

>  <r_i_glide_ligand_efficiency>  (189) 
-0.231922

>  <r_i_glide_ligand_efficiency_sa>  (189) 
-0.584406

>  <r_i_glide_ligand_efficiency_ln>  (189) 
-0.983607

>  <r_i_glide_gscore>  (189) 
-3.71075

>  <r_i_glide_lipo>  (189) 
-0.719123

>  <r_i_glide_hbond>  (189) 
-0.0954218

>  <r_i_glide_metal>  (189) 
-0

>  <r_i_glide_rewards>  (189) 
-1.9343

>  <r_i_glide_evdw>  (189) 
-13.7806

>  <r_i_glide_ecoul>  (189) 
-4.052

>  <r_i_glide_erotb>  (189) 
0.358099

>  <r_i_glide_esite>  (189) 
-0.0231667

>  <r_i_glide_emodel>  (189) 
-23.5897

>  <r_i_glide_energy>  (189) 
-17.8326

>  <r_i_glide_einternal>  (189) 
0.264751

>  <r_i_glide_intrahb_reward>  (189) 
-0

>  <i_i_glide_confnum>  (189) 
5

>  <i_i_glide_posenum>  (189) 
2

>  <r_i_glide_eff_state_penalty>  (189) 
0

>  <ligand_id>  (189) 
59

>  <original_smiles>  (189) 
Cc1ncc(C2C3CNCC2C2CC23)cn1

>  <smiles>  (189) 
[H]c1nc(C([H])([H])[H])nc([H])c1C1([H])C2([H])C3([H])C([H])([H])C3([H])C1([H])C([H])([H])[N+]([H])([H])C2([H])[H]

$$$$
59:1:2
     RDKit          3D

 34 37  0  0  1  0  0  0  0  0999 V2000
    2.3335   -0.1064   -4.8820 C   0  0  0  0  0  0  0  0  0  0  0  0
    3.1252   -0.7458   -3.7676 C   0  0  0  0  0  0  0  0  0  0  0  0
    2.6422   -1.8735   -3.2862 N   0  0  0  0  0  0  0  0  0  0  0  0
    3.2754   -2.4218   -2.2374 C   0  0  0  0  0  0  0  0  0  0  0  0
    4.4699   -1.8478   -1.6937 C   0  0  0  0  0  0  0  0  0  0  0  0
    5.3163   -2.4247   -0.5262 C   0  0  1  0  0  0  0  0  0  0  0  0
    4.6551   -2.6406    0.8426 C   0  0  1  0  0  0  0  0  0  0  0  0
    3.4076   -3.5390    0.7324 C   0  0  0  0  0  0  0  0  0  0  0  0
    3.6963   -4.8160    0.0078 N   0  0  0  0  0  0  0  0  0  0  0  0
    4.8226   -4.8502   -0.9813 C   0  0  0  0  0  0  0  0  0  0  0  0
    5.9222   -3.8239   -0.6885 C   0  0  2  0  0  0  0  0  0  0  0  0
    6.6043   -4.0797    0.6520 C   0  0  2  0  0  0  0  0  0  0  0  0
    6.0469   -4.7695    1.8711 C   0  0  0  0  0  0  0  0  0  0  0  0
    5.7713   -3.3008    1.6608 C   0  0  2  0  0  0  0  0  0  0  0  0
    4.8778   -0.6657   -2.3209 C   0  0  0  0  0  0  0  0  0  0  0  0
    4.2102   -0.1127   -3.3644 N   0  0  0  0  0  0  0  0  0  0  0  0
    1.4280   -0.6738   -5.0927 H   0  0  0  0  0  0  0  0  0  0  0  0
    2.9496   -0.0795   -5.7851 H   0  0  0  0  0  0  0  0  0  0  0  0
    1.9997    0.8978   -4.6036 H   0  0  0  0  0  0  0  0  0  0  0  0
    2.7852   -3.3091   -1.8842 H   0  0  0  0  0  0  0  0  0  0  0  0
    6.1624   -1.7408   -0.3648 H   0  0  0  0  0  0  0  0  0  0  0  0
    4.3934   -1.6875    1.2957 H   0  0  0  0  0  0  0  0  0  0  0  0
    3.0269   -3.7756    1.7308 H   0  0  0  0  0  0  0  0  0  0  0  0
    2.6029   -2.9772    0.2593 H   0  0  0  0  0  0  0  0  0  0  0  0
    3.9380   -5.4919    0.7152 H   0  0  0  0  0  0  0  0  0  0  0  0
    5.2175   -5.8649   -1.0069 H   0  0  0  0  0  0  0  0  0  0  0  0
    4.4963   -4.6588   -1.9972 H   0  0  0  0  0  0  0  0  0  0  0  0
    6.6615   -3.8394   -1.4863 H   0  0  0  0  0  0  0  0  0  0  0  0
    7.6737   -3.8685    0.6553 H   0  0  0  0  0  0  0  0  0  0  0  0
    5.2479   -5.5015    1.7774 H   0  0  0  0  0  0  0  0  0  0  0  0
    6.7737   -5.0134    2.6387 H   0  0  0  0  0  0  0  0  0  0  0  0
    6.3304   -2.6026    2.2811 H   0  0  0  0  0  0  0  0  0  0  0  0
    5.7809   -0.1575   -2.0135 H   0  0  0  0  0  0  0  0  0  0  0  0
    2.8685   -5.1476   -0.4725 H   0  0  0  0  0  0  0  0  0  0  0  0
  1  2  1  0
  1 17  1  0
  1 18  1  0
  1 19  1  0
  2 16  2  0
  2  3  1  0
  3  4  2  0
  4  5  1  0
  4 20  1  0
  5  6  1  0
  5 15  2  0
  6 11  1  0
  6  7  1  0
  6 21  1  1
  7 14  1  0
  7  8  1  0
  7 22  1  1
  8  9  1  0
  8 23  1  0
  8 24  1  0
  9 10  1  0
  9 25  1  0
  9 34  1  0
 10 11  1  0
 10 26  1  0
 10 27  1  0
 11 12  1  0
 11 28  1  6
 12 14  1  0
 12 13  1  0
 12 29  1  6
 13 14  1  0
 13 30  1  0
 13 31  1  0
 14 32  1  1
 15 16  1  0
 15 33  1  0
M  CHG  1   9   1
M  END
>  <i_m_ct_stereo_status>  (190) 
1

>  <s_m_source_file>  (190) 
/var/tmp/pbs.5076255.sched01/tmpc36l9o9d/84wsylf1cs.sdf

>  <i_m_source_file_index>  (190) 
3

>  <i_lp_mmshare_version>  (190) 
48012

>  <i_f3d_flags>  (190) 
0

>  <s_epik_input>  (190) 
W0NIM11jMW5bY0hdYyhbY0hdbjEpW0NASF0yW0NASF0oW0NIMl1bTkhdW0NIMl0zKVtDQEhdKFtDSDJdNClbQ0BIXTRbQ0BASF0yMw==

>  <s_epik_cmdline>  (190) 
J2VwaWtfcHl0aG9uJywgJy1waHQnLCAnMi4wJywgJy1waCcsICc3LjAnLCAnLXRuJywgJzgnLCAnLW1hJywgJzIwMCcsICctaW1hZScsICc8aW5maWxlLm1hZT4nLCAnLW9tYWUnLCAnPG91dGZpbGUubWFlPic=

>  <r_lp_tautomer_probability>  (190) 
1

>  <r_epik_Ionization_Penalty>  (190) 
0.000893961

>  <r_epik_Ionization_Penalty_Charging>  (190) 
0.000887118

>  <r_epik_Ionization_Penalty_Neutral>  (190) 
6.84318e-06

>  <r_epik_State_Penalty>  (190) 
0.000573636

>  <r_epik_Charging_Adjusted_Penalty>  (190) 
0.00146075

>  <i_epik_Tot_Q>  (190) 
1

>  <i_epik_Tot_abs_Q>  (190) 
1

>  <s_epik_Chemistry_Notes>  (190) 
This compound contains an electron-poor aromatic ring that is susceptible to covalent hydrolysis at low pH, typically resulting in measured values for nitrogen ring protonation that are around two units higher than predicted values.

>  <s_lp_Force_Field>  (190) 
OPLS3e

>  <r_lp_Energy>  (190) 
48.4945

>  <b_lp_Chiralities_Consistent>  (190) 
1

>  <s_lp_Variant>  (190) 
59:0-2

>  <s_i_glide_gridfile>  (190) 
pfpi4k_grid

>  <i_i_glide_lignum>  (190) 
3

>  <i_i_glide_rotatable_bonds>  (190) 
1

>  <r_i_docking_score>  (190) 
-3.53072

>  <r_i_glide_ligand_efficiency>  (190) 
-0.22067

>  <r_i_glide_ligand_efficiency_sa>  (190) 
-0.556054

>  <r_i_glide_ligand_efficiency_ln>  (190) 
-0.935888

>  <r_i_glide_gscore>  (190) 
-3.53072

>  <r_i_glide_lipo>  (190) 
-0.286915

>  <r_i_glide_hbond>  (190) 
0

>  <r_i_glide_metal>  (190) 
-0

>  <r_i_glide_rewards>  (190) 
-2.25272

>  <r_i_glide_evdw>  (190) 
-14.7561

>  <r_i_glide_ecoul>  (190) 
-3.93835

>  <r_i_glide_erotb>  (190) 
0.358099

>  <r_i_glide_esite>  (190) 
-0.020631

>  <r_i_glide_emodel>  (190) 
-22.6377

>  <r_i_glide_energy>  (190) 
-18.6945

>  <r_i_glide_einternal>  (190) 
3.10914

>  <r_i_glide_intrahb_reward>  (190) 
-0

>  <i_i_glide_confnum>  (190) 
2

>  <i_i_glide_posenum>  (190) 
7

>  <r_i_glide_eff_state_penalty>  (190) 
0

>  <ligand_id>  (190) 
59

>  <original_smiles>  (190) 
Cc1ncc(C2C3CNCC2C2CC23)cn1

>  <smiles>  (190) 
[H]c1nc(C([H])([H])[H])nc([H])c1C1([H])C2([H])C3([H])C([H])([H])C3([H])C1([H])C([H])([H])[N+]([H])([H])C2([H])[H]

$$$$
60:0:0
     RDKit          3D

 45 49  0  0  1  0  0  0  0  0999 V2000
    3.2384   -2.8662   -1.2829 C   0  0  0  0  0  0  0  0  0  0  0  0
    4.1905   -2.6830   -0.0812 C   0  0  1  0  0  0  0  0  0  0  0  0
    5.2351   -1.6033   -0.3857 C   0  0  0  0  0  0  0  0  0  0  0  0
    5.8244   -1.4709   -1.4574 O   0  0  0  0  0  0  0  0  0  0  0  0
    5.4447   -0.6621    0.7894 C   0  0  0  0  0  0  0  0  0  0  0  0
    4.5918   -1.2712    1.9078 C   0  0  1  0  0  0  0  0  0  0  0  0
    4.0598   -0.2556    2.7350 O   0  0  0  0  0  0  0  0  0  0  0  0
    3.5043   -2.1138    1.1844 C   0  0  2  0  0  0  0  0  0  0  0  0
    2.8113   -3.2235    2.0205 C   0  0  2  0  0  0  0  0  0  0  0  0
    1.9735   -2.6524    3.1746 C   0  0  0  0  0  0  0  0  0  0  0  0
    1.2608   -3.7375    3.9438 C   0  0  2  0  0  0  0  0  0  0  0  0
    2.0244   -4.3697    4.9826 O   0  0  0  0  0  0  0  0  0  0  0  0
    1.7086   -5.1871    3.8520 C   0  0  1  0  0  0  0  0  0  0  0  0
    0.6552   -6.2693    4.0548 C   0  0  0  0  0  0  0  0  0  0  0  0
    0.2040   -6.8453    2.7169 C   0  0  0  0  0  0  0  0  0  0  0  0
   -0.9843   -7.1259    2.5566 O   0  0  0  0  0  0  0  0  0  0  0  0
    1.2078   -6.9912    1.6593 C   0  0  0  0  0  0  0  0  0  0  0  0
    2.4356   -6.4527    1.7992 C   0  0  0  0  0  0  0  0  0  0  0  0
    2.9199   -5.6202    2.9983 C   0  0  2  0  0  0  0  0  0  0  0  0
    3.8227   -6.5486    3.8461 C   0  0  0  0  0  0  0  0  0  0  0  0
    3.7410   -4.3496    2.5377 C   0  0  1  0  0  0  0  0  0  0  0  0
    4.9220   -4.6385    1.5882 C   0  0  0  0  0  0  0  0  0  0  0  0
    5.8770   -5.3207    1.9564 O   0  0  0  0  0  0  0  0  0  0  0  0
    4.9473   -3.9998    0.1855 C   0  0  0  0  0  0  0  0  0  0  0  0
    5.5529   -4.5751   -0.7177 O   0  0  0  0  0  0  0  0  0  0  0  0
    3.7607   -3.2058   -2.1788 H   0  0  0  0  0  0  0  0  0  0  0  0
    2.7430   -1.9336   -1.5441 H   0  0  0  0  0  0  0  0  0  0  0  0
    2.4653   -3.6022   -1.0714 H   0  0  0  0  0  0  0  0  0  0  0  0
    6.4972   -0.5853    1.0635 H   0  0  0  0  0  0  0  0  0  0  0  0
    5.0880    0.3261    0.4993 H   0  0  0  0  0  0  0  0  0  0  0  0
    5.2356   -1.9094    2.5150 H   0  0  0  0  0  0  0  0  0  0  0  0
    3.5312    0.3278    2.2084 H   0  0  0  0  0  0  0  0  0  0  0  0
    2.7216   -1.4364    0.8355 H   0  0  0  0  0  0  0  0  0  0  0  0
    2.1070   -3.7002    1.3391 H   0  0  0  0  0  0  0  0  0  0  0  0
    2.5937   -2.0887    3.8745 H   0  0  0  0  0  0  0  0  0  0  0  0
    1.2324   -1.9568    2.7770 H   0  0  0  0  0  0  0  0  0  0  0  0
    0.2410   -3.5048    4.2362 H   0  0  0  0  0  0  0  0  0  0  0  0
    1.0183   -7.0568    4.7156 H   0  0  0  0  0  0  0  0  0  0  0  0
   -0.2152   -5.8245    4.5356 H   0  0  0  0  0  0  0  0  0  0  0  0
    0.9428   -7.5611    0.7798 H   0  0  0  0  0  0  0  0  0  0  0  0
    3.1505   -6.6036    1.0063 H   0  0  0  0  0  0  0  0  0  0  0  0
    4.3409   -6.0030    4.6367 H   0  0  0  0  0  0  0  0  0  0  0  0
    4.5832   -7.0305    3.2329 H   0  0  0  0  0  0  0  0  0  0  0  0
    3.2638   -7.3599    4.3171 H   0  0  0  0  0  0  0  0  0  0  0  0
    4.2283   -3.9527    3.4302 H   0  0  0  0  0  0  0  0  0  0  0  0
  2  1  1  6
  1 26  1  0
  1 27  1  0
  1 28  1  0
  2  8  1  0
  2 24  1  0
  2  3  1  0
  3  4  2  0
  3  5  1  0
  5  6  1  0
  5 29  1  0
  5 30  1  0
  6  7  1  0
  6  8  1  0
  6 31  1  1
  7 32  1  0
  8  9  1  0
  8 33  1  6
  9 21  1  0
  9 10  1  0
  9 34  1  6
 10 11  1  0
 10 35  1  0
 10 36  1  0
 11 13  1  0
 11 12  1  0
 11 37  1  1
 13 12  1  1
 13 19  1  0
 13 14  1  0
 14 15  1  0
 14 38  1  0
 14 39  1  0
 15 16  2  0
 15 17  1  0
 17 18  2  0
 17 40  1  0
 18 19  1  0
 18 41  1  0
 19 20  1  1
 19 21  1  0
 20 42  1  0
 20 43  1  0
 20 44  1  0
 21 22  1  0
 21 45  1  1
 22 23  2  0
 22 24  1  0
 24 25  2  0
M  END
>  <i_m_ct_stereo_status>  (191) 
1

>  <s_m_source_file>  (191) 
/var/tmp/pbs.5076255.sched01/tmpc36l9o9d/84wsylf1cs.sdf

>  <i_m_source_file_index>  (191) 
4

>  <i_lp_mmshare_version>  (191) 
48012

>  <i_f3d_flags>  (191) 
0

>  <s_epik_input>  (191) 
TzFbQ0BIXShbQ0BAXTEyMylbQ0gyXVtDQEhdNFtDQEBIXTVbQ0BAXShbQ0gzXSkoQyg9TylbQ0gyXVtDQEhdNVtPSF0pQyg9TylDKD1PKVtDQEBIXTRbQ0BdMyhbQ0gzXSlbQ0hdPVtDSF1DKD1PKVtDSDJdMg==

>  <s_epik_cmdline>  (191) 
J2VwaWtfcHl0aG9uJywgJy1waHQnLCAnMi4wJywgJy1waCcsICc3LjAnLCAnLXRuJywgJzgnLCAnLW1hJywgJzIwMCcsICctaW1hZScsICc8aW5maWxlLm1hZT4nLCAnLW9tYWUnLCAnPG91dGZpbGUubWFlPic=

>  <r_lp_tautomer_probability>  (191) 
1

>  <r_epik_Ionization_Penalty>  (191) 
3.78799e-06

>  <r_epik_Ionization_Penalty_Charging>  (191) 
0

>  <r_epik_Ionization_Penalty_Neutral>  (191) 
3.78799e-06

>  <r_epik_State_Penalty>  (191) 
-0

>  <r_epik_Charging_Adjusted_Penalty>  (191) 
0

>  <i_epik_Tot_Q>  (191) 
0

>  <i_epik_Tot_abs_Q>  (191) 
0

>  <s_lp_Force_Field>  (191) 
OPLS3e

>  <r_lp_Energy>  (191) 
28.8611

>  <b_lp_Chiralities_Consistent>  (191) 
1

>  <s_lp_Variant>  (191) 
60:0-1

>  <s_i_glide_gridfile>  (191) 
pfpi4k_grid

>  <i_i_glide_lignum>  (191) 
4

>  <i_i_glide_rotatable_bonds>  (191) 
1

>  <r_i_docking_score>  (191) 
-3.83203

>  <r_i_glide_ligand_efficiency>  (191) 
-0.153281

>  <r_i_glide_ligand_efficiency_sa>  (191) 
-0.448197

>  <r_i_glide_ligand_efficiency_ln>  (191) 
-0.908305

>  <r_i_glide_gscore>  (191) 
-3.83203

>  <r_i_glide_lipo>  (191) 
-0.197978

>  <r_i_glide_hbond>  (191) 
-0.237874

>  <r_i_glide_metal>  (191) 
-0

>  <r_i_glide_rewards>  (191) 
-1.16124

>  <r_i_glide_evdw>  (191) 
-26.1133

>  <r_i_glide_ecoul>  (191) 
-5.57625

>  <r_i_glide_erotb>  (191) 
0

>  <r_i_glide_esite>  (191) 
-0.092837

>  <r_i_glide_emodel>  (191) 
-38.9348

>  <r_i_glide_energy>  (191) 
-31.6895

>  <r_i_glide_einternal>  (191) 
0.00218709

>  <r_i_glide_intrahb_reward>  (191) 
-0

>  <i_i_glide_confnum>  (191) 
2

>  <i_i_glide_posenum>  (191) 
19

>  <r_i_glide_eff_state_penalty>  (191) 
0

>  <ligand_id>  (191) 
60

>  <original_smiles>  (191) 
CC12C(=O)CC(O)C1C1CC3OC34CC(=O)C=CC4(C)C1C(=O)C2=O

>  <smiles>  (191) 
[H]OC1([H])C([H])([H])C(=O)C2(C([H])([H])[H])C(=O)C(=O)C3([H])C([H])(C([H])([H])C4([H])OC45C([H])([H])C(=O)C([H])=C([H])C35C([H])([H])[H])C12[H]

$$$$
60:0:1
     RDKit          3D

 45 49  0  0  1  0  0  0  0  0999 V2000
    3.0463   -1.3089    2.3522 C   0  0  0  0  0  0  0  0  0  0  0  0
    3.5075   -2.7367    1.9682 C   0  0  1  0  0  0  0  0  0  0  0  0
    3.3831   -3.6848    3.1674 C   0  0  0  0  0  0  0  0  0  0  0  0
    3.6873   -3.3901    4.3183 O   0  0  0  0  0  0  0  0  0  0  0  0
    2.7631   -5.0223    2.7967 C   0  0  0  0  0  0  0  0  0  0  0  0
    2.6262   -4.9515    1.2732 C   0  0  1  0  0  0  0  0  0  0  0  0
    1.4642   -5.6592    0.8794 O   0  0  0  0  0  0  0  0  0  0  0  0
    2.6047   -3.4321    0.9434 C   0  0  2  0  0  0  0  0  0  0  0  0
    2.8930   -3.0278   -0.5171 C   0  0  2  0  0  0  0  0  0  0  0  0
    1.8522   -3.5390   -1.5309 C   0  0  0  0  0  0  0  0  0  0  0  0
    2.1379   -3.0741   -2.9362 C   0  0  2  0  0  0  0  0  0  0  0  0
    3.0520   -3.8561   -3.7226 O   0  0  0  0  0  0  0  0  0  0  0  0
    3.5009   -2.5934   -3.3035 C   0  0  1  0  0  0  0  0  0  0  0  0
    3.5936   -1.5943   -4.4198 C   0  0  0  0  0  0  0  0  0  0  0  0
    3.7756   -0.2110   -3.9385 C   0  0  0  0  0  0  0  0  0  0  0  0
    3.4448    0.7302   -4.6521 O   0  0  0  0  0  0  0  0  0  0  0  0
    4.5331   -0.0774   -2.7251 C   0  0  0  0  0  0  0  0  0  0  0  0
    4.9820   -1.1097   -1.9809 C   0  0  0  0  0  0  0  0  0  0  0  0
    4.6620   -2.5689   -2.2842 C   0  0  2  0  0  0  0  0  0  0  0  0
    5.9033   -3.2031   -2.9154 C   0  0  0  0  0  0  0  0  0  0  0  0
    4.3061   -3.3754   -0.9889 C   0  0  1  0  0  0  0  0  0  0  0  0
    5.3643   -3.3003    0.1412 C   0  0  0  0  0  0  0  0  0  0  0  0
    6.4902   -3.7616   -0.0268 O   0  0  0  0  0  0  0  0  0  0  0  0
    4.9764   -2.7062    1.5194 C   0  0  0  0  0  0  0  0  0  0  0  0
    5.8211   -2.1624    2.2241 O   0  0  0  0  0  0  0  0  0  0  0  0
    3.6823   -0.8665    3.1243 H   0  0  0  0  0  0  0  0  0  0  0  0
    2.0290   -1.3027    2.7452 H   0  0  0  0  0  0  0  0  0  0  0  0
    3.0707   -0.6360    1.4931 H   0  0  0  0  0  0  0  0  0  0  0  0
    3.3838   -5.8571    3.1174 H   0  0  0  0  0  0  0  0  0  0  0  0
    1.7961   -5.0965    3.2980 H   0  0  0  0  0  0  0  0  0  0  0  0
    3.4928   -5.4219    0.8093 H   0  0  0  0  0  0  0  0  0  0  0  0
    1.6378   -6.5856    0.9734 H   0  0  0  0  0  0  0  0  0  0  0  0
    1.6411   -3.0131    1.1915 H   0  0  0  0  0  0  0  0  0  0  0  0
    2.8111   -1.9391   -0.5379 H   0  0  0  0  0  0  0  0  0  0  0  0
    1.7905   -4.6270   -1.5265 H   0  0  0  0  0  0  0  0  0  0  0  0
    0.8652   -3.1716   -1.2744 H   0  0  0  0  0  0  0  0  0  0  0  0
    1.2754   -2.7535   -3.5183 H   0  0  0  0  0  0  0  0  0  0  0  0
    4.4395   -1.8018   -5.0663 H   0  0  0  0  0  0  0  0  0  0  0  0
    2.6618   -1.5370   -4.9666 H   0  0  0  0  0  0  0  0  0  0  0  0
    4.7783    0.9507   -2.6276 H   0  0  0  0  0  0  0  0  0  0  0  0
    5.6360   -0.9287   -1.1458 H   0  0  0  0  0  0  0  0  0  0  0  0
    5.7871   -4.2748   -3.0399 H   0  0  0  0  0  0  0  0  0  0  0  0
    6.8163   -3.0074   -2.3518 H   0  0  0  0  0  0  0  0  0  0  0  0
    6.0713   -2.8220   -3.9067 H   0  0  0  0  0  0  0  0  0  0  0  0
    4.2850   -4.4276   -1.2733 H   0  0  0  0  0  0  0  0  0  0  0  0
  2  1  1  1
  1 26  1  0
  1 27  1  0
  1 28  1  0
  2  8  1  0
  2 24  1  0
  2  3  1  0
  3  4  2  0
  3  5  1  0
  5  6  1  0
  5 29  1  0
  5 30  1  0
  6  7  1  0
  6  8  1  0
  6 31  1  6
  7 32  1  0
  8  9  1  0
  8 33  1  1
  9 21  1  0
  9 10  1  0
  9 34  1  1
 10 11  1  0
 10 35  1  0
 10 36  1  0
 11 13  1  0
 11 12  1  0
 11 37  1  6
 13 12  1  6
 13 19  1  0
 13 14  1  0
 14 15  1  0
 14 38  1  0
 14 39  1  0
 15 16  2  0
 15 17  1  0
 17 18  2  0
 17 40  1  0
 18 19  1  0
 18 41  1  0
 19 20  1  6
 19 21  1  0
 20 42  1  0
 20 43  1  0
 20 44  1  0
 21 22  1  0
 21 45  1  6
 22 23  2  0
 22 24  1  0
 24 25  2  0
M  END
>  <i_m_ct_stereo_status>  (192) 
1

>  <s_m_source_file>  (192) 
/var/tmp/pbs.5076255.sched01/tmpc36l9o9d/84wsylf1cs.sdf

>  <i_m_source_file_index>  (192) 
4

>  <i_lp_mmshare_version>  (192) 
48012

>  <i_f3d_flags>  (192) 
0

>  <s_epik_input>  (192) 
TzFbQ0BIXShbQ0BAXTEyMylbQ0gyXVtDQEhdNFtDQEBIXTVbQ0BAXShbQ0gzXSkoQyg9TylbQ0gyXVtDQEhdNVtPSF0pQyg9TylDKD1PKVtDQEBIXTRbQ0BdMyhbQ0gzXSlbQ0hdPVtDSF1DKD1PKVtDSDJdMg==

>  <s_epik_cmdline>  (192) 
J2VwaWtfcHl0aG9uJywgJy1waHQnLCAnMi4wJywgJy1waCcsICc3LjAnLCAnLXRuJywgJzgnLCAnLW1hJywgJzIwMCcsICctaW1hZScsICc8aW5maWxlLm1hZT4nLCAnLW9tYWUnLCAnPG91dGZpbGUubWFlPic=

>  <r_lp_tautomer_probability>  (192) 
1

>  <r_epik_Ionization_Penalty>  (192) 
3.78799e-06

>  <r_epik_Ionization_Penalty_Charging>  (192) 
0

>  <r_epik_Ionization_Penalty_Neutral>  (192) 
3.78799e-06

>  <r_epik_State_Penalty>  (192) 
-0

>  <r_epik_Charging_Adjusted_Penalty>  (192) 
0

>  <i_epik_Tot_Q>  (192) 
0

>  <i_epik_Tot_abs_Q>  (192) 
0

>  <s_lp_Force_Field>  (192) 
OPLS3e

>  <r_lp_Energy>  (192) 
28.8611

>  <b_lp_Chiralities_Consistent>  (192) 
1

>  <s_lp_Variant>  (192) 
60:0-1

>  <s_i_glide_gridfile>  (192) 
pfpi4k_grid

>  <i_i_glide_lignum>  (192) 
4

>  <i_i_glide_rotatable_bonds>  (192) 
1

>  <r_i_docking_score>  (192) 
-3.38291

>  <r_i_glide_ligand_efficiency>  (192) 
-0.135317

>  <r_i_glide_ligand_efficiency_sa>  (192) 
-0.395668

>  <r_i_glide_ligand_efficiency_ln>  (192) 
-0.801852

>  <r_i_glide_gscore>  (192) 
-3.38291

>  <r_i_glide_lipo>  (192) 
-0.640036

>  <r_i_glide_hbond>  (192) 
-0.137058

>  <r_i_glide_metal>  (192) 
-0

>  <r_i_glide_rewards>  (192) 
-1.48187

>  <r_i_glide_evdw>  (192) 
-10.1464

>  <r_i_glide_ecoul>  (192) 
-4.11088

>  <r_i_glide_erotb>  (192) 
0

>  <r_i_glide_esite>  (192) 
0

>  <r_i_glide_emodel>  (192) 
-19.2991

>  <r_i_glide_energy>  (192) 
-14.2573

>  <r_i_glide_einternal>  (192) 
0.376594

>  <r_i_glide_intrahb_reward>  (192) 
-0

>  <i_i_glide_confnum>  (192) 
2

>  <i_i_glide_posenum>  (192) 
10

>  <r_i_glide_eff_state_penalty>  (192) 
0

>  <ligand_id>  (192) 
60

>  <original_smiles>  (192) 
CC12C(=O)CC(O)C1C1CC3OC34CC(=O)C=CC4(C)C1C(=O)C2=O

>  <smiles>  (192) 
[H]OC1([H])C([H])([H])C(=O)C2(C([H])([H])[H])C(=O)C(=O)C3([H])C([H])(C([H])([H])C4([H])OC45C([H])([H])C(=O)C([H])=C([H])C35C([H])([H])[H])C12[H]

$$$$
60:0:2
     RDKit          3D

 45 49  0  0  1  0  0  0  0  0999 V2000
    2.6944   -3.4958   -0.8420 C   0  0  0  0  0  0  0  0  0  0  0  0
    3.9317   -3.0380   -0.0446 C   0  0  1  0  0  0  0  0  0  0  0  0
    4.7217   -1.9815   -0.8297 C   0  0  0  0  0  0  0  0  0  0  0  0
    4.9629   -2.0226   -2.0376 O   0  0  0  0  0  0  0  0  0  0  0  0
    5.1688   -0.8330    0.0566 C   0  0  0  0  0  0  0  0  0  0  0  0
    4.7466   -1.2657    1.4654 C   0  0  1  0  0  0  0  0  0  0  0  0
    4.3694   -0.1510    2.2416 O   0  0  0  0  0  0  0  0  0  0  0  0
    3.5843   -2.2741    1.2555 C   0  0  2  0  0  0  0  0  0  0  0  0
    3.2703   -3.2299    2.4381 C   0  0  2  0  0  0  0  0  0  0  0  0
    2.7570   -2.4825    3.6755 C   0  0  0  0  0  0  0  0  0  0  0  0
    2.4094   -3.4298    4.7962 C   0  0  2  0  0  0  0  0  0  0  0  0
    3.5056   -3.8168    5.6463 O   0  0  0  0  0  0  0  0  0  0  0  0
    2.9515   -4.8485    4.8220 C   0  0  1  0  0  0  0  0  0  0  0  0
    2.1098   -5.9099    5.5151 C   0  0  0  0  0  0  0  0  0  0  0  0
    1.3380   -6.7458    4.4980 C   0  0  0  0  0  0  0  0  0  0  0  0
    0.2094   -7.1450    4.7778 O   0  0  0  0  0  0  0  0  0  0  0  0
    2.0033   -7.0466    3.2225 C   0  0  0  0  0  0  0  0  0  0  0  0
    3.1652   -6.4480    2.8934 C   0  0  0  0  0  0  0  0  0  0  0  0
    3.8981   -5.3858    3.7299 C   0  0  2  0  0  0  0  0  0  0  0  0
    5.0954   -6.0952    4.4089 C   0  0  0  0  0  0  0  0  0  0  0  0
    4.4203   -4.1949    2.8307 C   0  0  1  0  0  0  0  0  0  0  0  0
    5.3007   -4.6064    1.6326 C   0  0  0  0  0  0  0  0  0  0  0  0
    6.3827   -5.1628    1.8083 O   0  0  0  0  0  0  0  0  0  0  0  0
    4.8545   -4.2489    0.2028 C   0  0  0  0  0  0  0  0  0  0  0  0
    5.2152   -4.9696   -0.7213 O   0  0  0  0  0  0  0  0  0  0  0  0
    2.9690   -3.9527   -1.7913 H   0  0  0  0  0  0  0  0  0  0  0  0
    2.0507   -2.6649   -1.1013 H   0  0  0  0  0  0  0  0  0  0  0  0
    2.1023   -4.2230   -0.2894 H   0  0  0  0  0  0  0  0  0  0  0  0
    6.2405   -0.6554   -0.0200 H   0  0  0  0  0  0  0  0  0  0  0  0
    4.6421    0.0649   -0.2707 H   0  0  0  0  0  0  0  0  0  0  0  0
    5.6017   -1.7471    1.9408 H   0  0  0  0  0  0  0  0  0  0  0  0
    3.6515    0.2925    1.8120 H   0  0  0  0  0  0  0  0  0  0  0  0
    2.6737   -1.7075    1.0459 H   0  0  0  0  0  0  0  0  0  0  0  0
    2.4440   -3.8567    2.0982 H   0  0  0  0  0  0  0  0  0  0  0  0
    3.4968   -1.7743    4.0504 H   0  0  0  0  0  0  0  0  0  0  0  0
    1.8699   -1.9064    3.4142 H   0  0  0  0  0  0  0  0  0  0  0  0
    1.5034   -3.1890    5.3458 H   0  0  0  0  0  0  0  0  0  0  0  0
    2.7226   -6.5478    6.1517 H   0  0  0  0  0  0  0  0  0  0  0  0
    1.3821   -5.4178    6.1597 H   0  0  0  0  0  0  0  0  0  0  0  0
    1.5515   -7.7843    2.5735 H   0  0  0  0  0  0  0  0  0  0  0  0
    3.6384   -6.7255    1.9659 H   0  0  0  0  0  0  0  0  0  0  0  0
    5.7655   -5.3859    4.8982 H   0  0  0  0  0  0  0  0  0  0  0  0
    5.6876   -6.6521    3.6835 H   0  0  0  0  0  0  0  0  0  0  0  0
    4.7810   -6.8239    5.1578 H   0  0  0  0  0  0  0  0  0  0  0  0
    5.1031   -3.6125    3.4537 H   0  0  0  0  0  0  0  0  0  0  0  0
  2  1  1  6
  1 26  1  0
  1 27  1  0
  1 28  1  0
  2  8  1  0
  2 24  1  0
  2  3  1  0
  3  4  2  0
  3  5  1  0
  5  6  1  0
  5 29  1  0
  5 30  1  0
  6  7  1  0
  6  8  1  0
  6 31  1  1
  7 32  1  0
  8  9  1  0
  8 33  1  6
  9 21  1  0
  9 10  1  0
  9 34  1  6
 10 11  1  0
 10 35  1  0
 10 36  1  0
 11 13  1  0
 11 12  1  0
 11 37  1  1
 13 12  1  1
 13 19  1  0
 13 14  1  0
 14 15  1  0
 14 38  1  0
 14 39  1  0
 15 16  2  0
 15 17  1  0
 17 18  2  0
 17 40  1  0
 18 19  1  0
 18 41  1  0
 19 20  1  1
 19 21  1  0
 20 42  1  0
 20 43  1  0
 20 44  1  0
 21 22  1  0
 21 45  1  1
 22 23  2  0
 22 24  1  0
 24 25  2  0
M  END
>  <i_m_ct_stereo_status>  (193) 
1

>  <s_m_source_file>  (193) 
/var/tmp/pbs.5076255.sched01/tmpc36l9o9d/84wsylf1cs.sdf

>  <i_m_source_file_index>  (193) 
4

>  <i_lp_mmshare_version>  (193) 
48012

>  <i_f3d_flags>  (193) 
0

>  <s_epik_input>  (193) 
TzFbQ0BIXShbQ0BAXTEyMylbQ0gyXVtDQEhdNFtDQEBIXTVbQ0BAXShbQ0gzXSkoQyg9TylbQ0gyXVtDQEhdNVtPSF0pQyg9TylDKD1PKVtDQEBIXTRbQ0BdMyhbQ0gzXSlbQ0hdPVtDSF1DKD1PKVtDSDJdMg==

>  <s_epik_cmdline>  (193) 
J2VwaWtfcHl0aG9uJywgJy1waHQnLCAnMi4wJywgJy1waCcsICc3LjAnLCAnLXRuJywgJzgnLCAnLW1hJywgJzIwMCcsICctaW1hZScsICc8aW5maWxlLm1hZT4nLCAnLW9tYWUnLCAnPG91dGZpbGUubWFlPic=

>  <r_lp_tautomer_probability>  (193) 
1

>  <r_epik_Ionization_Penalty>  (193) 
3.78799e-06

>  <r_epik_Ionization_Penalty_Charging>  (193) 
0

>  <r_epik_Ionization_Penalty_Neutral>  (193) 
3.78799e-06

>  <r_epik_State_Penalty>  (193) 
-0

>  <r_epik_Charging_Adjusted_Penalty>  (193) 
0

>  <i_epik_Tot_Q>  (193) 
0

>  <i_epik_Tot_abs_Q>  (193) 
0

>  <s_lp_Force_Field>  (193) 
OPLS3e

>  <r_lp_Energy>  (193) 
28.8611

>  <b_lp_Chiralities_Consistent>  (193) 
1

>  <s_lp_Variant>  (193) 
60:0-1

>  <s_i_glide_gridfile>  (193) 
pfpi4k_grid

>  <i_i_glide_lignum>  (193) 
4

>  <i_i_glide_rotatable_bonds>  (193) 
1

>  <r_i_docking_score>  (193) 
-2.70734

>  <r_i_glide_ligand_efficiency>  (193) 
-0.108294

>  <r_i_glide_ligand_efficiency_sa>  (193) 
-0.316653

>  <r_i_glide_ligand_efficiency_ln>  (193) 
-0.641721

>  <r_i_glide_gscore>  (193) 
-2.70734

>  <r_i_glide_lipo>  (193) 
-0.108572

>  <r_i_glide_hbond>  (193) 
0

>  <r_i_glide_metal>  (193) 
-0

>  <r_i_glide_rewards>  (193) 
-1.17127

>  <r_i_glide_evdw>  (193) 
-20.8573

>  <r_i_glide_ecoul>  (193) 
-2.3548

>  <r_i_glide_erotb>  (193) 
0

>  <r_i_glide_esite>  (193) 
-0.0314139

>  <r_i_glide_emodel>  (193) 
-28.2638

>  <r_i_glide_energy>  (193) 
-23.2121

>  <r_i_glide_einternal>  (193) 
0.00134698

>  <r_i_glide_intrahb_reward>  (193) 
-0

>  <i_i_glide_confnum>  (193) 
2

>  <i_i_glide_posenum>  (193) 
40

>  <r_i_glide_eff_state_penalty>  (193) 
0

>  <ligand_id>  (193) 
60

>  <original_smiles>  (193) 
CC12C(=O)CC(O)C1C1CC3OC34CC(=O)C=CC4(C)C1C(=O)C2=O

>  <smiles>  (193) 
[H]OC1([H])C([H])([H])C(=O)C2(C([H])([H])[H])C(=O)C(=O)C3([H])C([H])(C([H])([H])C4([H])OC45C([H])([H])C(=O)C([H])=C([H])C35C([H])([H])[H])C12[H]

$$$$
61:0:0
     RDKit          3D

 36 37  0  0  1  0  0  0  0  0999 V2000
    2.2102   -2.0114    3.7981 C   0  0  0  0  0  0  0  0  0  0  0  0
    2.5419   -0.7831    3.0930 N   0  0  0  0  0  0  0  0  0  0  0  0
    2.0599   -0.7854    1.7240 C   0  0  0  0  0  0  0  0  0  0  0  0
    2.1480    0.6910    1.3291 C   0  0  0  0  0  0  0  0  0  0  0  0
    2.0364    1.4858    2.6325 C   0  0  1  0  0  0  0  0  0  0  0  0
    0.8828    2.4174    2.6141 N   0  0  0  0  0  0  0  0  0  0  0  0
    0.6178    3.0824    3.9151 C   0  0  0  0  0  0  0  0  0  0  0  0
   -0.8285    3.5958    4.0077 C   0  0  2  0  0  0  0  0  0  0  0  0
   -0.9352    4.8040    3.2798 O   0  0  0  0  0  0  0  0  0  0  0  0
   -1.2664    3.7835    5.4587 C   0  0  0  0  0  0  0  0  0  0  0  0
   -2.4011    3.1069    5.9547 C   0  0  0  0  0  0  0  0  0  0  0  0
   -2.7782    3.2814    7.2968 C   0  0  0  0  0  0  0  0  0  0  0  0
   -2.0077    4.1388    8.1075 C   0  0  0  0  0  0  0  0  0  0  0  0
   -0.9207    4.7919    7.6482 N   0  0  0  0  0  0  0  0  0  0  0  0
   -0.5555    4.6099    6.3625 C   0  0  0  0  0  0  0  0  0  0  0  0
    1.9044    0.3761    3.6912 C   0  0  0  0  0  0  0  0  0  0  0  0
    2.6868   -2.8645    3.3157 H   0  0  0  0  0  0  0  0  0  0  0  0
    1.1337   -2.1860    3.8219 H   0  0  0  0  0  0  0  0  0  0  0  0
    2.5710   -1.9627    4.8250 H   0  0  0  0  0  0  0  0  0  0  0  0
    2.6578   -1.4303    1.0763 H   0  0  0  0  0  0  0  0  0  0  0  0
    1.0214   -1.1237    1.6804 H   0  0  0  0  0  0  0  0  0  0  0  0
    3.1219    0.8901    0.8831 H   0  0  0  0  0  0  0  0  0  0  0  0
    1.3664    0.9356    0.6093 H   0  0  0  0  0  0  0  0  0  0  0  0
    2.9623    2.0404    2.7926 H   0  0  0  0  0  0  0  0  0  0  0  0
    0.9883    3.1309    1.8905 H   0  0  0  0  0  0  0  0  0  0  0  0
    0.7520    2.3807    4.7348 H   0  0  0  0  0  0  0  0  0  0  0  0
    1.3508    3.8725    4.0840 H   0  0  0  0  0  0  0  0  0  0  0  0
   -1.4986    2.8578    3.5569 H   0  0  0  0  0  0  0  0  0  0  0  0
   -0.6183    4.6669    2.3810 H   0  0  0  0  0  0  0  0  0  0  0  0
   -2.9857    2.4798    5.3008 H   0  0  0  0  0  0  0  0  0  0  0  0
   -3.6544    2.7951    7.7021 H   0  0  0  0  0  0  0  0  0  0  0  0
   -2.2787    4.3100    9.1387 H   0  0  0  0  0  0  0  0  0  0  0  0
    0.3228    5.1530    6.0447 H   0  0  0  0  0  0  0  0  0  0  0  0
    0.8518    0.1404    3.8686 H   0  0  0  0  0  0  0  0  0  0  0  0
    2.3646    0.6393    4.6442 H   0  0  0  0  0  0  0  0  0  0  0  0
    0.0689    1.8791    2.3549 H   0  0  0  0  0  0  0  0  0  0  0  0
  1  2  1  0
  1 17  1  0
  1 18  1  0
  1 19  1  0
  2 16  1  0
  2  3  1  0
  3  4  1  0
  3 20  1  0
  3 21  1  0
  4  5  1  0
  4 22  1  0
  4 23  1  0
  5  6  1  0
  5 16  1  0
  5 24  1  1
  6  7  1  0
  6 25  1  0
  6 36  1  0
  7  8  1  0
  7 26  1  0
  7 27  1  0
  8  9  1  0
  8 10  1  0
  8 28  1  6
  9 29  1  0
 10 15  1  0
 10 11  2  0
 11 12  1  0
 11 30  1  0
 12 13  2  0
 12 31  1  0
 13 14  1  0
 13 32  1  0
 14 15  2  0
 15 33  1  0
 16 34  1  0
 16 35  1  0
M  CHG  1   6   1
M  END
>  <i_m_ct_stereo_status>  (194) 
1

>  <s_m_source_file>  (194) 
/var/tmp/pbs.5076255.sched01/tmpc36l9o9d/84wsylf1cs.sdf

>  <i_m_source_file_index>  (194) 
5

>  <i_lp_mmshare_version>  (194) 
48012

>  <i_f3d_flags>  (194) 
0

>  <s_epik_input>  (194) 
W0NIM11OMVtDSDJdW0NIMl1bQ0BIXShbQ0gyXTEpW05IXVtDSDJdW0NASF0oW09IXSljMltjSF1bY0hdW2NIXW5bY0hdMg==

>  <s_epik_cmdline>  (194) 
J2VwaWtfcHl0aG9uJywgJy1waHQnLCAnMi4wJywgJy1waCcsICc3LjAnLCAnLXRuJywgJzgnLCAnLW1hJywgJzIwMCcsICctaW1hZScsICc8aW5maWxlLm1hZT4nLCAnLW9tYWUnLCAnPG91dGZpbGUubWFlPic=

>  <r_epik_Ionization_Penalty>  (194) 
0.0241507

>  <r_epik_Ionization_Penalty_Charging>  (194) 
0.00518354

>  <r_epik_Ionization_Penalty_Neutral>  (194) 
0.0189671

>  <r_epik_State_Penalty>  (194) 
0.041745

>  <r_epik_Charging_Adjusted_Penalty>  (194) 
0.0469286

>  <i_epik_Tot_Q>  (194) 
1

>  <i_epik_Tot_abs_Q>  (194) 
1

>  <s_lp_Force_Field>  (194) 
OPLS3e

>  <r_lp_Energy>  (194) 
20.6674

>  <b_lp_Chiralities_Consistent>  (194) 
1

>  <s_lp_Variant>  (194) 
61:0-1

>  <s_i_glide_gridfile>  (194) 
pfpi4k_grid

>  <i_i_glide_lignum>  (194) 
5

>  <i_i_glide_rotatable_bonds>  (194) 
5

>  <r_i_docking_score>  (194) 
-3.97845

>  <r_i_glide_ligand_efficiency>  (194) 
-0.248653

>  <r_i_glide_ligand_efficiency_sa>  (194) 
-0.626567

>  <r_i_glide_ligand_efficiency_ln>  (194) 
-1.05457

>  <r_i_glide_gscore>  (194) 
-3.97845

>  <r_i_glide_lipo>  (194) 
-0.246954

>  <r_i_glide_hbond>  (194) 
-0.426237

>  <r_i_glide_metal>  (194) 
-0

>  <r_i_glide_rewards>  (194) 
-1.89336

>  <r_i_glide_evdw>  (194) 
-12.4642

>  <r_i_glide_ecoul>  (194) 
-11.4445

>  <r_i_glide_erotb>  (194) 
1.02581

>  <r_i_glide_esite>  (194) 
-0.0978216

>  <r_i_glide_emodel>  (194) 
-32.044

>  <r_i_glide_energy>  (194) 
-23.9087

>  <r_i_glide_einternal>  (194) 
2.49247

>  <r_i_glide_intrahb_reward>  (194) 
-0

>  <i_i_glide_confnum>  (194) 
1

>  <i_i_glide_posenum>  (194) 
1

>  <r_i_glide_eff_state_penalty>  (194) 
0

>  <ligand_id>  (194) 
61

>  <original_smiles>  (194) 
CN1CCC(NCC(O)c2cccnc2)C1

>  <smiles>  (194) 
[H]OC([H])(c1c([H])nc([H])c([H])c1[H])C([H])([H])[N+]([H])([H])C1([H])C([H])([H])N(C([H])([H])[H])C([H])([H])C1([H])[H]

$$$$
61:0:1
     RDKit          3D

 36 37  0  0  1  0  0  0  0  0999 V2000
    3.3612   -1.8924    3.8530 C   0  0  0  0  0  0  0  0  0  0  0  0
    3.4356   -0.7086    3.0223 N   0  0  0  0  0  0  0  0  0  0  0  0
    2.8686   -0.9254    1.7011 C   0  0  0  0  0  0  0  0  0  0  0  0
    2.6681    0.4974    1.1758 C   0  0  0  0  0  0  0  0  0  0  0  0
    2.5018    1.3893    2.4156 C   0  0  1  0  0  0  0  0  0  0  0  0
    1.1940    2.1236    2.4257 N   0  0  0  0  0  0  0  0  0  0  0  0
    0.8035    2.6844    3.7075 C   0  0  0  0  0  0  0  0  0  0  0  0
   -0.7167    2.9671    3.7881 C   0  0  2  0  0  0  0  0  0  0  0  0
   -0.9307    4.2728    3.2818 O   0  0  0  0  0  0  0  0  0  0  0  0
   -1.2394    2.8355    5.2073 C   0  0  0  0  0  0  0  0  0  0  0  0
   -1.1943    3.9062    6.1265 C   0  0  0  0  0  0  0  0  0  0  0  0
   -1.7252    3.7249    7.4173 C   0  0  0  0  0  0  0  0  0  0  0  0
   -2.2457    2.4569    7.7620 C   0  0  0  0  0  0  0  0  0  0  0  0
   -2.2512    1.4103    6.9141 N   0  0  0  0  0  0  0  0  0  0  0  0
   -1.7725    1.6015    5.6691 C   0  0  0  0  0  0  0  0  0  0  0  0
    2.6459    0.3725    3.5583 C   0  0  0  0  0  0  0  0  0  0  0  0
    3.9440   -2.7067    3.4212 H   0  0  0  0  0  0  0  0  0  0  0  0
    2.3321   -2.2409    3.9787 H   0  0  0  0  0  0  0  0  0  0  0  0
    3.7644   -1.6843    4.8453 H   0  0  0  0  0  0  0  0  0  0  0  0
    3.5269   -1.5221    1.0660 H   0  0  0  0  0  0  0  0  0  0  0  0
    1.9028   -1.4348    1.7713 H   0  0  0  0  0  0  0  0  0  0  0  0
    3.5687    0.7974    0.6323 H   0  0  0  0  0  0  0  0  0  0  0  0
    1.8149    0.5373    0.4943 H   0  0  0  0  0  0  0  0  0  0  0  0
    3.3167    2.1065    2.4688 H   0  0  0  0  0  0  0  0  0  0  0  0
    1.2032    2.8548    1.7113 H   0  0  0  0  0  0  0  0  0  0  0  0
    1.0119    1.9997    4.5361 H   0  0  0  0  0  0  0  0  0  0  0  0
    1.4019    3.5764    3.9376 H   0  0  0  0  0  0  0  0  0  0  0  0
   -1.2563    2.2427    3.1699 H   0  0  0  0  0  0  0  0  0  0  0  0
   -0.6085    4.3093    2.3737 H   0  0  0  0  0  0  0  0  0  0  0  0
   -0.7901    4.8619    5.8388 H   0  0  0  0  0  0  0  0  0  0  0  0
   -1.7366    4.5270    8.1332 H   0  0  0  0  0  0  0  0  0  0  0  0
   -2.6626    2.2872    8.7399 H   0  0  0  0  0  0  0  0  0  0  0  0
   -1.8183    0.7458    5.0130 H   0  0  0  0  0  0  0  0  0  0  0  0
    1.6640   -0.0354    3.8368 H   0  0  0  0  0  0  0  0  0  0  0  0
    3.1022    0.8069    4.4555 H   0  0  0  0  0  0  0  0  0  0  0  0
    0.4945    1.4527    2.1199 H   0  0  0  0  0  0  0  0  0  0  0  0
  1  2  1  0
  1 17  1  0
  1 18  1  0
  1 19  1  0
  2 16  1  0
  2  3  1  0
  3  4  1  0
  3 20  1  0
  3 21  1  0
  4  5  1  0
  4 22  1  0
  4 23  1  0
  5  6  1  0
  5 16  1  0
  5 24  1  1
  6  7  1  0
  6 25  1  0
  6 36  1  0
  7  8  1  0
  7 26  1  0
  7 27  1  0
  8  9  1  0
  8 10  1  0
  8 28  1  6
  9 29  1  0
 10 15  1  0
 10 11  2  0
 11 12  1  0
 11 30  1  0
 12 13  2  0
 12 31  1  0
 13 14  1  0
 13 32  1  0
 14 15  2  0
 15 33  1  0
 16 34  1  0
 16 35  1  0
M  CHG  1   6   1
M  END
>  <i_m_ct_stereo_status>  (195) 
1

>  <s_m_source_file>  (195) 
/var/tmp/pbs.5076255.sched01/tmpc36l9o9d/84wsylf1cs.sdf

>  <i_m_source_file_index>  (195) 
5

>  <i_lp_mmshare_version>  (195) 
48012

>  <i_f3d_flags>  (195) 
0

>  <s_epik_input>  (195) 
W0NIM11OMVtDSDJdW0NIMl1bQ0BIXShbQ0gyXTEpW05IXVtDSDJdW0NASF0oW09IXSljMltjSF1bY0hdW2NIXW5bY0hdMg==

>  <s_epik_cmdline>  (195) 
J2VwaWtfcHl0aG9uJywgJy1waHQnLCAnMi4wJywgJy1waCcsICc3LjAnLCAnLXRuJywgJzgnLCAnLW1hJywgJzIwMCcsICctaW1hZScsICc8aW5maWxlLm1hZT4nLCAnLW9tYWUnLCAnPG91dGZpbGUubWFlPic=

>  <r_epik_Ionization_Penalty>  (195) 
0.0241507

>  <r_epik_Ionization_Penalty_Charging>  (195) 
0.00518354

>  <r_epik_Ionization_Penalty_Neutral>  (195) 
0.0189671

>  <r_epik_State_Penalty>  (195) 
0.041745

>  <r_epik_Charging_Adjusted_Penalty>  (195) 
0.0469286

>  <i_epik_Tot_Q>  (195) 
1

>  <i_epik_Tot_abs_Q>  (195) 
1

>  <s_lp_Force_Field>  (195) 
OPLS3e

>  <r_lp_Energy>  (195) 
20.6674

>  <b_lp_Chiralities_Consistent>  (195) 
1

>  <s_lp_Variant>  (195) 
61:0-1

>  <s_i_glide_gridfile>  (195) 
pfpi4k_grid

>  <i_i_glide_lignum>  (195) 
5

>  <i_i_glide_rotatable_bonds>  (195) 
5

>  <r_i_docking_score>  (195) 
-3.93269

>  <r_i_glide_ligand_efficiency>  (195) 
-0.245793

>  <r_i_glide_ligand_efficiency_sa>  (195) 
-0.61936

>  <r_i_glide_ligand_efficiency_ln>  (195) 
-1.04244

>  <r_i_glide_gscore>  (195) 
-3.93269

>  <r_i_glide_lipo>  (195) 
-0.0813846

>  <r_i_glide_hbond>  (195) 
-0.405338

>  <r_i_glide_metal>  (195) 
-0

>  <r_i_glide_rewards>  (195) 
-1.89336

>  <r_i_glide_evdw>  (195) 
-12.7453

>  <r_i_glide_ecoul>  (195) 
-12.4409

>  <r_i_glide_erotb>  (195) 
1.02581

>  <r_i_glide_esite>  (195) 
-0.075007

>  <r_i_glide_emodel>  (195) 
-32.0637

>  <r_i_glide_energy>  (195) 
-25.1862

>  <r_i_glide_einternal>  (195) 
4.62439

>  <r_i_glide_intrahb_reward>  (195) 
-0

>  <i_i_glide_confnum>  (195) 
1

>  <i_i_glide_posenum>  (195) 
40

>  <r_i_glide_eff_state_penalty>  (195) 
0

>  <ligand_id>  (195) 
61

>  <original_smiles>  (195) 
CN1CCC(NCC(O)c2cccnc2)C1

>  <smiles>  (195) 
[H]OC([H])(c1c([H])nc([H])c([H])c1[H])C([H])([H])[N+]([H])([H])C1([H])C([H])([H])N(C([H])([H])[H])C([H])([H])C1([H])[H]

$$$$
61:0:2
     RDKit          3D

 36 37  0  0  1  0  0  0  0  0999 V2000
   -2.1349    1.3520    7.0600 C   0  0  0  0  0  0  0  0  0  0  0  0
   -1.3635    0.3007    6.4113 N   0  0  0  0  0  0  0  0  0  0  0  0
   -1.8946   -0.0332    5.0984 C   0  0  0  0  0  0  0  0  0  0  0  0
   -0.7516   -0.8097    4.4464 C   0  0  0  0  0  0  0  0  0  0  0  0
    0.5261   -0.2978    5.1222 C   0  0  1  0  0  0  0  0  0  0  0  0
    1.4711    0.2934    4.1425 N   0  0  0  0  0  0  0  0  0  0  0  0
    2.1959   -0.6986    3.3161 C   0  0  0  0  0  0  0  0  0  0  0  0
    2.8336   -0.0381    2.0764 C   0  0  2  0  0  0  0  0  0  0  0  0
    1.8081    0.5411    1.2893 O   0  0  0  0  0  0  0  0  0  0  0  0
    3.6771   -1.0172    1.2730 C   0  0  0  0  0  0  0  0  0  0  0  0
    3.1250   -2.2137    0.7692 C   0  0  0  0  0  0  0  0  0  0  0  0
    3.9438   -3.0872    0.0292 C   0  0  0  0  0  0  0  0  0  0  0  0
    5.2860   -2.7261   -0.1858 C   0  0  0  0  0  0  0  0  0  0  0  0
    5.8286   -1.5816    0.2804 N   0  0  0  0  0  0  0  0  0  0  0  0
    5.0395   -0.7557    0.9995 C   0  0  0  0  0  0  0  0  0  0  0  0
    0.0039    0.7322    6.1368 C   0  0  0  0  0  0  0  0  0  0  0  0
   -3.1603    1.0244    7.2203 H   0  0  0  0  0  0  0  0  0  0  0  0
   -2.1649    2.2648    6.4633 H   0  0  0  0  0  0  0  0  0  0  0  0
   -1.7041    1.5946    8.0320 H   0  0  0  0  0  0  0  0  0  0  0  0
   -2.8143   -0.6158    5.1591 H   0  0  0  0  0  0  0  0  0  0  0  0
   -2.1031    0.8749    4.5266 H   0  0  0  0  0  0  0  0  0  0  0  0
   -0.8682   -1.8807    4.6205 H   0  0  0  0  0  0  0  0  0  0  0  0
   -0.7525   -0.6503    3.3676 H   0  0  0  0  0  0  0  0  0  0  0  0
    1.0048   -1.1109    5.6688 H   0  0  0  0  0  0  0  0  0  0  0  0
    0.9672    0.9118    3.5168 H   0  0  0  0  0  0  0  0  0  0  0  0
    2.9582   -1.1709    3.9378 H   0  0  0  0  0  0  0  0  0  0  0  0
    1.5146   -1.4875    3.0028 H   0  0  0  0  0  0  0  0  0  0  0  0
    3.4796    0.7762    2.4122 H   0  0  0  0  0  0  0  0  0  0  0  0
    1.4451   -0.0985    0.6742 H   0  0  0  0  0  0  0  0  0  0  0  0
    2.0858   -2.4565    0.9331 H   0  0  0  0  0  0  0  0  0  0  0  0
    3.5521   -4.0081   -0.3779 H   0  0  0  0  0  0  0  0  0  0  0  0
    5.9442   -3.3722   -0.7471 H   0  0  0  0  0  0  0  0  0  0  0  0
    5.5152    0.1442    1.3598 H   0  0  0  0  0  0  0  0  0  0  0  0
   -0.0134    1.7277    5.6869 H   0  0  0  0  0  0  0  0  0  0  0  0
    0.6096    0.7808    7.0437 H   0  0  0  0  0  0  0  0  0  0  0  0
    2.1581    0.8442    4.6388 H   0  0  0  0  0  0  0  0  0  0  0  0
  1  2  1  0
  1 17  1  0
  1 18  1  0
  1 19  1  0
  2 16  1  0
  2  3  1  0
  3  4  1  0
  3 20  1  0
  3 21  1  0
  4  5  1  0
  4 22  1  0
  4 23  1  0
  5  6  1  0
  5 16  1  0
  5 24  1  1
  6  7  1  0
  6 25  1  0
  6 36  1  0
  7  8  1  0
  7 26  1  0
  7 27  1  0
  8  9  1  0
  8 10  1  0
  8 28  1  1
  9 29  1  0
 10 15  1  0
 10 11  2  0
 11 12  1  0
 11 30  1  0
 12 13  2  0
 12 31  1  0
 13 14  1  0
 13 32  1  0
 14 15  2  0
 15 33  1  0
 16 34  1  0
 16 35  1  0
M  CHG  1   6   1
M  END
>  <i_m_ct_stereo_status>  (196) 
1

>  <s_m_source_file>  (196) 
/var/tmp/pbs.5076255.sched01/tmpc36l9o9d/84wsylf1cs.sdf

>  <i_m_source_file_index>  (196) 
5

>  <i_lp_mmshare_version>  (196) 
48012

>  <i_f3d_flags>  (196) 
0

>  <s_epik_input>  (196) 
W0NIM11OMVtDSDJdW0NIMl1bQ0BIXShbQ0gyXTEpW05IXVtDSDJdW0NASF0oW09IXSljMltjSF1bY0hdW2NIXW5bY0hdMg==

>  <s_epik_cmdline>  (196) 
J2VwaWtfcHl0aG9uJywgJy1waHQnLCAnMi4wJywgJy1waCcsICc3LjAnLCAnLXRuJywgJzgnLCAnLW1hJywgJzIwMCcsICctaW1hZScsICc8aW5maWxlLm1hZT4nLCAnLW9tYWUnLCAnPG91dGZpbGUubWFlPic=

>  <r_epik_Ionization_Penalty>  (196) 
0.0241507

>  <r_epik_Ionization_Penalty_Charging>  (196) 
0.00518354

>  <r_epik_Ionization_Penalty_Neutral>  (196) 
0.0189671

>  <r_epik_State_Penalty>  (196) 
0.041745

>  <r_epik_Charging_Adjusted_Penalty>  (196) 
0.0469286

>  <i_epik_Tot_Q>  (196) 
1

>  <i_epik_Tot_abs_Q>  (196) 
1

>  <s_lp_Force_Field>  (196) 
OPLS3e

>  <r_lp_Energy>  (196) 
20.6674

>  <b_lp_Chiralities_Consistent>  (196) 
1

>  <s_lp_Variant>  (196) 
61:0-1

>  <s_i_glide_gridfile>  (196) 
pfpi4k_grid

>  <i_i_glide_lignum>  (196) 
5

>  <i_i_glide_rotatable_bonds>  (196) 
5

>  <r_i_docking_score>  (196) 
-3.44451

>  <r_i_glide_ligand_efficiency>  (196) 
-0.215282

>  <r_i_glide_ligand_efficiency_sa>  (196) 
-0.542476

>  <r_i_glide_ligand_efficiency_ln>  (196) 
-0.913036

>  <r_i_glide_gscore>  (196) 
-3.44451

>  <r_i_glide_lipo>  (196) 
-0.147441

>  <r_i_glide_hbond>  (196) 
-0.301578

>  <r_i_glide_metal>  (196) 
-0

>  <r_i_glide_rewards>  (196) 
-1.89336

>  <r_i_glide_evdw>  (196) 
-15.1665

>  <r_i_glide_ecoul>  (196) 
-9.10831

>  <r_i_glide_erotb>  (196) 
1.02581

>  <r_i_glide_esite>  (196) 
-0.00336065

>  <r_i_glide_emodel>  (196) 
-31.5696

>  <r_i_glide_energy>  (196) 
-24.2748

>  <r_i_glide_einternal>  (196) 
1.76149

>  <r_i_glide_intrahb_reward>  (196) 
-0

>  <i_i_glide_confnum>  (196) 
2

>  <i_i_glide_posenum>  (196) 
19

>  <r_i_glide_eff_state_penalty>  (196) 
0

>  <ligand_id>  (196) 
61

>  <original_smiles>  (196) 
CN1CCC(NCC(O)c2cccnc2)C1

>  <smiles>  (196) 
[H]OC([H])(c1c([H])nc([H])c([H])c1[H])C([H])([H])[N+]([H])([H])C1([H])C([H])([H])N(C([H])([H])[H])C([H])([H])C1([H])[H]

$$$$
61:1:0
     RDKit          3D

 36 37  0  0  1  0  0  0  0  0999 V2000
    4.3112   -0.1369    1.3039 C   0  0  0  0  0  0  0  0  0  0  0  0
    2.8820   -0.5036    1.4331 N   0  0  1  0  0  0  0  0  0  0  0  0
    2.5980   -1.4715    2.5083 C   0  0  0  0  0  0  0  0  0  0  0  0
    1.0828   -1.3903    2.7069 C   0  0  0  0  0  0  0  0  0  0  0  0
    0.6829   -0.0099    2.1603 C   0  0  1  0  0  0  0  0  0  0  0  0
   -0.0168    0.7847    3.1456 N   0  0  0  0  0  0  0  0  0  0  0  0
   -0.3069    2.1575    2.7198 C   0  0  0  0  0  0  0  0  0  0  0  0
   -1.5848    2.6997    3.3759 C   0  0  2  0  0  0  0  0  0  0  0  0
   -1.7537    4.0376    2.9404 O   0  0  0  0  0  0  0  0  0  0  0  0
   -1.5700    2.5448    4.8946 C   0  0  0  0  0  0  0  0  0  0  0  0
   -1.3096    3.6322    5.7542 C   0  0  0  0  0  0  0  0  0  0  0  0
   -1.3075    3.4166    7.1443 C   0  0  0  0  0  0  0  0  0  0  0  0
   -1.5515    2.1198    7.6295 C   0  0  0  0  0  0  0  0  0  0  0  0
   -1.7922    1.0631    6.8258 N   0  0  0  0  0  0  0  0  0  0  0  0
   -1.7846    1.2828    5.4933 C   0  0  0  0  0  0  0  0  0  0  0  0
    1.9961    0.6332    1.7188 C   0  0  0  0  0  0  0  0  0  0  0  0
    4.6793    0.3440    2.2106 H   0  0  0  0  0  0  0  0  0  0  0  0
    4.4602    0.5559    0.4801 H   0  0  0  0  0  0  0  0  0  0  0  0
    4.9360   -1.0098    1.1196 H   0  0  0  0  0  0  0  0  0  0  0  0
    2.9404   -2.4822    2.2715 H   0  0  0  0  0  0  0  0  0  0  0  0
    3.0915   -1.1511    3.4315 H   0  0  0  0  0  0  0  0  0  0  0  0
    0.6136   -2.1682    2.1123 H   0  0  0  0  0  0  0  0  0  0  0  0
    0.7941   -1.5626    3.7454 H   0  0  0  0  0  0  0  0  0  0  0  0
    0.0445   -0.1500    1.2869 H   0  0  0  0  0  0  0  0  0  0  0  0
    0.5286    0.8242    4.0022 H   0  0  0  0  0  0  0  0  0  0  0  0
    0.5423    2.8072    2.9470 H   0  0  0  0  0  0  0  0  0  0  0  0
   -0.4430    2.1923    1.6400 H   0  0  0  0  0  0  0  0  0  0  0  0
   -2.4341    2.1343    2.9884 H   0  0  0  0  0  0  0  0  0  0  0  0
   -1.2073    4.1531    2.1654 H   0  0  0  0  0  0  0  0  0  0  0  0
   -1.1068    4.6135    5.3626 H   0  0  0  0  0  0  0  0  0  0  0  0
   -1.1073    4.2269    7.8278 H   0  0  0  0  0  0  0  0  0  0  0  0
   -1.5521    1.9134    8.6908 H   0  0  0  0  0  0  0  0  0  0  0  0
   -2.0060    0.4142    4.8887 H   0  0  0  0  0  0  0  0  0  0  0  0
    2.4304    1.2217    2.5284 H   0  0  0  0  0  0  0  0  0  0  0  0
    1.8596    1.3098    0.8845 H   0  0  0  0  0  0  0  0  0  0  0  0
    2.5183   -0.9088    0.5722 H   0  0  0  0  0  0  0  0  0  0  0  0
  1  2  1  0
  1 17  1  0
  1 18  1  0
  1 19  1  0
  2 16  1  0
  2  3  1  0
  2 36  1  6
  3  4  1  0
  3 20  1  0
  3 21  1  0
  4  5  1  0
  4 22  1  0
  4 23  1  0
  5  6  1  0
  5 16  1  0
  5 24  1  6
  6  7  1  0
  6 25  1  0
  7  8  1  0
  7 26  1  0
  7 27  1  0
  8  9  1  0
  8 10  1  0
  8 28  1  6
  9 29  1  0
 10 15  1  0
 10 11  2  0
 11 12  1  0
 11 30  1  0
 12 13  2  0
 12 31  1  0
 13 14  1  0
 13 32  1  0
 14 15  2  0
 15 33  1  0
 16 34  1  0
 16 35  1  0
M  CHG  1   2   1
M  END
>  <i_m_ct_stereo_status>  (197) 
1

>  <s_m_source_file>  (197) 
/var/tmp/pbs.5076255.sched01/tmpc36l9o9d/84wsylf1cs.sdf

>  <i_m_source_file_index>  (197) 
6

>  <i_lp_mmshare_version>  (197) 
48012

>  <i_f3d_flags>  (197) 
0

>  <s_epik_input>  (197) 
W0NIM11OMVtDSDJdW0NIMl1bQ0BIXShbQ0gyXTEpW05IXVtDSDJdW0NASF0oW09IXSljMltjSF1bY0hdW2NIXW5bY0hdMg==

>  <s_epik_cmdline>  (197) 
J2VwaWtfcHl0aG9uJywgJy1waHQnLCAnMi4wJywgJy1waCcsICc3LjAnLCAnLXRuJywgJzgnLCAnLW1hJywgJzIwMCcsICctaW1hZScsICc8aW5maWxlLm1hZT4nLCAnLW9tYWUnLCAnPG91dGZpbGUubWFlPic=

>  <r_epik_Ionization_Penalty>  (197) 
0.259872

>  <r_epik_Ionization_Penalty_Charging>  (197) 
0.000423792

>  <r_epik_Ionization_Penalty_Neutral>  (197) 
0.259448

>  <r_epik_State_Penalty>  (197) 
1.8412

>  <r_epik_Charging_Adjusted_Penalty>  (197) 
1.84162

>  <i_epik_Tot_Q>  (197) 
1

>  <i_epik_Tot_abs_Q>  (197) 
1

>  <s_lp_Force_Field>  (197) 
OPLS3e

>  <r_lp_Energy>  (197) 
32.9757

>  <b_lp_Chiralities_Consistent>  (197) 
1

>  <s_lp_Variant>  (197) 
61:0-2

>  <s_i_glide_gridfile>  (197) 
pfpi4k_grid

>  <i_i_glide_lignum>  (197) 
6

>  <i_i_glide_rotatable_bonds>  (197) 
5

>  <r_i_docking_score>  (197) 
-3.87889

>  <r_i_glide_ligand_efficiency>  (197) 
-0.24243

>  <r_i_glide_ligand_efficiency_sa>  (197) 
-0.610886

>  <r_i_glide_ligand_efficiency_ln>  (197) 
-1.02818

>  <r_i_glide_gscore>  (197) 
-3.87889

>  <r_i_glide_lipo>  (197) 
-0.113518

>  <r_i_glide_hbond>  (197) 
-0.367264

>  <r_i_glide_metal>  (197) 
-0

>  <r_i_glide_rewards>  (197) 
-1.89336

>  <r_i_glide_evdw>  (197) 
-16.0826

>  <r_i_glide_ecoul>  (197) 
-11.1738

>  <r_i_glide_erotb>  (197) 
1.02581

>  <r_i_glide_esite>  (197) 
-0.0503483

>  <r_i_glide_emodel>  (197) 
-32.8449

>  <r_i_glide_energy>  (197) 
-27.2564

>  <r_i_glide_einternal>  (197) 
5.34107

>  <r_i_glide_intrahb_reward>  (197) 
-0

>  <i_i_glide_confnum>  (197) 
3

>  <i_i_glide_posenum>  (197) 
31

>  <r_i_glide_eff_state_penalty>  (197) 
0

>  <ligand_id>  (197) 
61

>  <original_smiles>  (197) 
CN1CCC(NCC(O)c2cccnc2)C1

>  <smiles>  (197) 
[H]OC([H])(c1c([H])nc([H])c([H])c1[H])C([H])([H])N([H])C1([H])C([H])([H])C([H])([H])[N+]([H])(C([H])([H])[H])C1([H])[H]

$$$$
61:1:1
     RDKit          3D

 36 37  0  0  1  0  0  0  0  0999 V2000
    3.6748    0.0693    1.8245 C   0  0  0  0  0  0  0  0  0  0  0  0
    2.2408    0.3394    1.6150 N   0  0  1  0  0  0  0  0  0  0  0  0
    1.3434   -0.5387    2.3768 C   0  0  0  0  0  0  0  0  0  0  0  0
   -0.0123    0.1531    2.2907 C   0  0  0  0  0  0  0  0  0  0  0  0
    0.2986    1.6278    2.0146 C   0  0  1  0  0  0  0  0  0  0  0  0
   -0.2529    2.5166    3.0139 N   0  0  0  0  0  0  0  0  0  0  0  0
   -1.7162    2.4859    3.0790 C   0  0  0  0  0  0  0  0  0  0  0  0
   -2.2703    3.6838    3.8373 C   0  0  2  0  0  0  0  0  0  0  0  0
   -2.0063    4.8624    3.0936 O   0  0  0  0  0  0  0  0  0  0  0  0
   -1.7749    3.7417    5.2773 C   0  0  0  0  0  0  0  0  0  0  0  0
   -2.5906    3.3100    6.3403 C   0  0  0  0  0  0  0  0  0  0  0  0
   -2.0997    3.3726    7.6582 C   0  0  0  0  0  0  0  0  0  0  0  0
   -0.7943    3.8641    7.8598 C   0  0  0  0  0  0  0  0  0  0  0  0
   -0.0014    4.2824    6.8541 N   0  0  0  0  0  0  0  0  0  0  0  0
   -0.4837    4.2204    5.5961 C   0  0  0  0  0  0  0  0  0  0  0  0
    1.8258    1.7070    1.9625 C   0  0  0  0  0  0  0  0  0  0  0  0
    3.9662    0.2371    2.8650 H   0  0  0  0  0  0  0  0  0  0  0  0
    4.2787    0.7209    1.1931 H   0  0  0  0  0  0  0  0  0  0  0  0
    3.9196   -0.9625    1.5705 H   0  0  0  0  0  0  0  0  0  0  0  0
    1.3170   -1.5566    1.9858 H   0  0  0  0  0  0  0  0  0  0  0  0
    1.6637   -0.5691    3.4222 H   0  0  0  0  0  0  0  0  0  0  0  0
   -0.5628   -0.1989    1.4217 H   0  0  0  0  0  0  0  0  0  0  0  0
   -0.5952   -0.0399    3.1924 H   0  0  0  0  0  0  0  0  0  0  0  0
   -0.1001    1.8955    1.0324 H   0  0  0  0  0  0  0  0  0  0  0  0
    0.0626    3.4550    2.7687 H   0  0  0  0  0  0  0  0  0  0  0  0
   -2.1478    2.4685    2.0804 H   0  0  0  0  0  0  0  0  0  0  0  0
   -2.0570    1.5774    3.5725 H   0  0  0  0  0  0  0  0  0  0  0  0
   -3.3526    3.5575    3.8604 H   0  0  0  0  0  0  0  0  0  0  0  0
   -1.2710    4.6999    2.5127 H   0  0  0  0  0  0  0  0  0  0  0  0
   -3.5878    2.9453    6.1563 H   0  0  0  0  0  0  0  0  0  0  0  0
   -2.7007    3.0618    8.4997 H   0  0  0  0  0  0  0  0  0  0  0  0
   -0.3731    3.9265    8.8532 H   0  0  0  0  0  0  0  0  0  0  0  0
    0.1857    4.5606    4.8218 H   0  0  0  0  0  0  0  0  0  0  0  0
    2.2197    1.9602    2.9528 H   0  0  0  0  0  0  0  0  0  0  0  0
    2.1700    2.4712    1.2781 H   0  0  0  0  0  0  0  0  0  0  0  0
    1.9840    0.1831    0.6449 H   0  0  0  0  0  0  0  0  0  0  0  0
  1  2  1  0
  1 17  1  0
  1 18  1  0
  1 19  1  0
  2 16  1  0
  2  3  1  0
  2 36  1  6
  3  4  1  0
  3 20  1  0
  3 21  1  0
  4  5  1  0
  4 22  1  0
  4 23  1  0
  5  6  1  0
  5 16  1  0
  5 24  1  6
  6  7  1  0
  6 25  1  0
  7  8  1  0
  7 26  1  0
  7 27  1  0
  8  9  1  0
  8 10  1  0
  8 28  1  1
  9 29  1  0
 10 15  1  0
 10 11  2  0
 11 12  1  0
 11 30  1  0
 12 13  2  0
 12 31  1  0
 13 14  1  0
 13 32  1  0
 14 15  2  0
 15 33  1  0
 16 34  1  0
 16 35  1  0
M  CHG  1   2   1
M  END
>  <i_m_ct_stereo_status>  (198) 
1

>  <s_m_source_file>  (198) 
/var/tmp/pbs.5076255.sched01/tmpc36l9o9d/84wsylf1cs.sdf

>  <i_m_source_file_index>  (198) 
6

>  <i_lp_mmshare_version>  (198) 
48012

>  <i_f3d_flags>  (198) 
0

>  <s_epik_input>  (198) 
W0NIM11OMVtDSDJdW0NIMl1bQ0BIXShbQ0gyXTEpW05IXVtDSDJdW0NASF0oW09IXSljMltjSF1bY0hdW2NIXW5bY0hdMg==

>  <s_epik_cmdline>  (198) 
J2VwaWtfcHl0aG9uJywgJy1waHQnLCAnMi4wJywgJy1waCcsICc3LjAnLCAnLXRuJywgJzgnLCAnLW1hJywgJzIwMCcsICctaW1hZScsICc8aW5maWxlLm1hZT4nLCAnLW9tYWUnLCAnPG91dGZpbGUubWFlPic=

>  <r_epik_Ionization_Penalty>  (198) 
0.259872

>  <r_epik_Ionization_Penalty_Charging>  (198) 
0.000423792

>  <r_epik_Ionization_Penalty_Neutral>  (198) 
0.259448

>  <r_epik_State_Penalty>  (198) 
1.8412

>  <r_epik_Charging_Adjusted_Penalty>  (198) 
1.84162

>  <i_epik_Tot_Q>  (198) 
1

>  <i_epik_Tot_abs_Q>  (198) 
1

>  <s_lp_Force_Field>  (198) 
OPLS3e

>  <r_lp_Energy>  (198) 
32.9757

>  <b_lp_Chiralities_Consistent>  (198) 
1

>  <s_lp_Variant>  (198) 
61:0-2

>  <s_i_glide_gridfile>  (198) 
pfpi4k_grid

>  <i_i_glide_lignum>  (198) 
6

>  <i_i_glide_rotatable_bonds>  (198) 
5

>  <r_i_docking_score>  (198) 
-3.84384

>  <r_i_glide_ligand_efficiency>  (198) 
-0.24024

>  <r_i_glide_ligand_efficiency_sa>  (198) 
-0.605368

>  <r_i_glide_ligand_efficiency_ln>  (198) 
-1.01889

>  <r_i_glide_gscore>  (198) 
-3.84384

>  <r_i_glide_lipo>  (198) 
-0.196487

>  <r_i_glide_hbond>  (198) 
-0.389647

>  <r_i_glide_metal>  (198) 
-0

>  <r_i_glide_rewards>  (198) 
-1.89336

>  <r_i_glide_evdw>  (198) 
-12.985

>  <r_i_glide_ecoul>  (198) 
-11.2988

>  <r_i_glide_erotb>  (198) 
1.02581

>  <r_i_glide_esite>  (198) 
-0.0460871

>  <r_i_glide_emodel>  (198) 
-27.8567

>  <r_i_glide_energy>  (198) 
-24.2838

>  <r_i_glide_einternal>  (198) 
9.06601

>  <r_i_glide_intrahb_reward>  (198) 
-0

>  <i_i_glide_confnum>  (198) 
5

>  <i_i_glide_posenum>  (198) 
9

>  <r_i_glide_eff_state_penalty>  (198) 
0

>  <ligand_id>  (198) 
61

>  <original_smiles>  (198) 
CN1CCC(NCC(O)c2cccnc2)C1

>  <smiles>  (198) 
[H]OC([H])(c1c([H])nc([H])c([H])c1[H])C([H])([H])N([H])C1([H])C([H])([H])C([H])([H])[N+]([H])(C([H])([H])[H])C1([H])[H]

$$$$
61:1:2
     RDKit          3D

 36 37  0  0  1  0  0  0  0  0999 V2000
    3.7125    0.1110    1.6766 C   0  0  0  0  0  0  0  0  0  0  0  0
    2.2673    0.3724    1.5261 N   0  0  1  0  0  0  0  0  0  0  0  0
    1.3962   -0.5429    2.2773 C   0  0  0  0  0  0  0  0  0  0  0  0
    0.0340    0.1438    2.2589 C   0  0  0  0  0  0  0  0  0  0  0  0
    0.3289    1.6324    2.0338 C   0  0  1  0  0  0  0  0  0  0  0  0
   -0.2035    2.4670    3.0902 N   0  0  0  0  0  0  0  0  0  0  0  0
   -1.6652    2.5327    3.0954 C   0  0  0  0  0  0  0  0  0  0  0  0
   -2.1636    3.7241    3.9125 C   0  0  2  0  0  0  0  0  0  0  0  0
   -1.7853    4.9228    3.2566 O   0  0  0  0  0  0  0  0  0  0  0  0
   -1.7135    3.6827    5.3656 C   0  0  0  0  0  0  0  0  0  0  0  0
   -0.4093    4.0650    5.7381 C   0  0  0  0  0  0  0  0  0  0  0  0
   -0.0333    3.9890    7.0902 C   0  0  0  0  0  0  0  0  0  0  0  0
   -0.9824    3.5330    8.0247 C   0  0  0  0  0  0  0  0  0  0  0  0
   -2.2320    3.1584    7.6821 N   0  0  0  0  0  0  0  0  0  0  0  0
   -2.5839    3.2346    6.3825 C   0  0  0  0  0  0  0  0  0  0  0  0
    1.8512    1.7211    1.9444 C   0  0  0  0  0  0  0  0  0  0  0  0
    4.0376    0.2376    2.7121 H   0  0  0  0  0  0  0  0  0  0  0  0
    4.2874    0.7965    1.0546 H   0  0  0  0  0  0  0  0  0  0  0  0
    3.9617   -0.9048    1.3709 H   0  0  0  0  0  0  0  0  0  0  0  0
    1.3700   -1.5414    1.8400 H   0  0  0  0  0  0  0  0  0  0  0  0
    1.7535   -0.6186    3.3100 H   0  0  0  0  0  0  0  0  0  0  0  0
   -0.5364   -0.1815    1.3944 H   0  0  0  0  0  0  0  0  0  0  0  0
   -0.5274   -0.0796    3.1660 H   0  0  0  0  0  0  0  0  0  0  0  0
   -0.0929    1.9333    1.0724 H   0  0  0  0  0  0  0  0  0  0  0  0
    0.1828    3.4010    2.9746 H   0  0  0  0  0  0  0  0  0  0  0  0
   -2.0509    2.6158    2.0806 H   0  0  0  0  0  0  0  0  0  0  0  0
   -2.0799    1.6111    3.5059 H   0  0  0  0  0  0  0  0  0  0  0  0
   -3.2514    3.6766    3.8909 H   0  0  0  0  0  0  0  0  0  0  0  0
   -1.1371    4.7112    2.5943 H   0  0  0  0  0  0  0  0  0  0  0  0
    0.2979    4.4027    4.9985 H   0  0  0  0  0  0  0  0  0  0  0  0
    0.9638    4.2624    7.4007 H   0  0  0  0  0  0  0  0  0  0  0  0
   -0.7321    3.4670    9.0738 H   0  0  0  0  0  0  0  0  0  0  0  0
   -3.5951    2.9446    6.1548 H   0  0  0  0  0  0  0  0  0  0  0  0
    2.2729    1.9355    2.9319 H   0  0  0  0  0  0  0  0  0  0  0  0
    2.1639    2.5189    1.2833 H   0  0  0  0  0  0  0  0  0  0  0  0
    1.9778    0.2504    0.5599 H   0  0  0  0  0  0  0  0  0  0  0  0
  1  2  1  0
  1 17  1  0
  1 18  1  0
  1 19  1  0
  2 16  1  0
  2  3  1  0
  2 36  1  6
  3  4  1  0
  3 20  1  0
  3 21  1  0
  4  5  1  0
  4 22  1  0
  4 23  1  0
  5  6  1  0
  5 16  1  0
  5 24  1  6
  6  7  1  0
  6 25  1  0
  7  8  1  0
  7 26  1  0
  7 27  1  0
  8  9  1  0
  8 10  1  0
  8 28  1  1
  9 29  1  0
 10 15  1  0
 10 11  2  0
 11 12  1  0
 11 30  1  0
 12 13  2  0
 12 31  1  0
 13 14  1  0
 13 32  1  0
 14 15  2  0
 15 33  1  0
 16 34  1  0
 16 35  1  0
M  CHG  1   2   1
M  END
>  <i_m_ct_stereo_status>  (199) 
1

>  <s_m_source_file>  (199) 
/var/tmp/pbs.5076255.sched01/tmpc36l9o9d/84wsylf1cs.sdf

>  <i_m_source_file_index>  (199) 
6

>  <i_lp_mmshare_version>  (199) 
48012

>  <i_f3d_flags>  (199) 
0

>  <s_epik_input>  (199) 
W0NIM11OMVtDSDJdW0NIMl1bQ0BIXShbQ0gyXTEpW05IXVtDSDJdW0NASF0oW09IXSljMltjSF1bY0hdW2NIXW5bY0hdMg==

>  <s_epik_cmdline>  (199) 
J2VwaWtfcHl0aG9uJywgJy1waHQnLCAnMi4wJywgJy1waCcsICc3LjAnLCAnLXRuJywgJzgnLCAnLW1hJywgJzIwMCcsICctaW1hZScsICc8aW5maWxlLm1hZT4nLCAnLW9tYWUnLCAnPG91dGZpbGUubWFlPic=

>  <r_epik_Ionization_Penalty>  (199) 
0.259872

>  <r_epik_Ionization_Penalty_Charging>  (199) 
0.000423792

>  <r_epik_Ionization_Penalty_Neutral>  (199) 
0.259448

>  <r_epik_State_Penalty>  (199) 
1.8412

>  <r_epik_Charging_Adjusted_Penalty>  (199) 
1.84162

>  <i_epik_Tot_Q>  (199) 
1

>  <i_epik_Tot_abs_Q>  (199) 
1

>  <s_lp_Force_Field>  (199) 
OPLS3e

>  <r_lp_Energy>  (199) 
32.9757

>  <b_lp_Chiralities_Consistent>  (199) 
1

>  <s_lp_Variant>  (199) 
61:0-2

>  <s_i_glide_gridfile>  (199) 
pfpi4k_grid

>  <i_i_glide_lignum>  (199) 
6

>  <i_i_glide_rotatable_bonds>  (199) 
5

>  <r_i_docking_score>  (199) 
-3.83725

>  <r_i_glide_ligand_efficiency>  (199) 
-0.239828

>  <r_i_glide_ligand_efficiency_sa>  (199) 
-0.604329

>  <r_i_glide_ligand_efficiency_ln>  (199) 
-1.01714

>  <r_i_glide_gscore>  (199) 
-3.83725

>  <r_i_glide_lipo>  (199) 
-0.157391

>  <r_i_glide_hbond>  (199) 
-0.350115

>  <r_i_glide_metal>  (199) 
-0

>  <r_i_glide_rewards>  (199) 
-1.89336

>  <r_i_glide_evdw>  (199) 
-13.3847

>  <r_i_glide_ecoul>  (199) 
-11.6486

>  <r_i_glide_erotb>  (199) 
1.02581

>  <r_i_glide_esite>  (199) 
-0.0456674

>  <r_i_glide_emodel>  (199) 
-28.4776

>  <r_i_glide_energy>  (199) 
-25.0333

>  <r_i_glide_einternal>  (199) 
9.06642

>  <r_i_glide_intrahb_reward>  (199) 
-0

>  <i_i_glide_confnum>  (199) 
5

>  <i_i_glide_posenum>  (199) 
35

>  <r_i_glide_eff_state_penalty>  (199) 
0

>  <ligand_id>  (199) 
61

>  <original_smiles>  (199) 
CN1CCC(NCC(O)c2cccnc2)C1

>  <smiles>  (199) 
[H]OC([H])(c1c([H])nc([H])c([H])c1[H])C([H])([H])N([H])C1([H])C([H])([H])C([H])([H])[N+]([H])(C([H])([H])[H])C1([H])[H]

$$$$
61:2:0
     RDKit          3D

 37 38  0  0  1  0  0  0  0  0999 V2000
   -1.4947    1.9517    2.8540 C   0  0  0  0  0  0  0  0  0  0  0  0
   -0.0489    2.1441    2.5754 N   0  0  1  0  0  0  0  0  0  0  0  0
    0.7830    2.3447    3.7774 C   0  0  0  0  0  0  0  0  0  0  0  0
    2.2260    2.0815    3.3205 C   0  0  0  0  0  0  0  0  0  0  0  0
    2.0891    1.1875    2.0741 C   0  0  1  0  0  0  0  0  0  0  0  0
    2.8298   -0.0910    2.1891 N   0  0  0  0  0  0  0  0  0  0  0  0
    2.9394   -0.8575    0.9251 C   0  0  0  0  0  0  0  0  0  0  0  0
    4.3820   -1.3387    0.7136 C   0  0  2  0  0  0  0  0  0  0  0  0
    5.2638   -0.2458    0.8787 O   0  0  0  0  0  0  0  0  0  0  0  0
    4.5663   -2.0129   -0.6361 C   0  0  0  0  0  0  0  0  0  0  0  0
    4.8473   -3.3923   -0.7140 C   0  0  0  0  0  0  0  0  0  0  0  0
    5.0097   -3.9711   -1.9851 C   0  0  0  0  0  0  0  0  0  0  0  0
    4.8801   -3.1684   -3.1236 C   0  0  0  0  0  0  0  0  0  0  0  0
    4.6093   -1.8479   -3.0692 N   0  0  0  0  0  0  0  0  0  0  0  0
    4.4491   -1.2970   -1.8480 C   0  0  0  0  0  0  0  0  0  0  0  0
    0.5750    0.9980    1.8936 C   0  0  0  0  0  0  0  0  0  0  0  0
   -1.6817    1.0682    3.4660 H   0  0  0  0  0  0  0  0  0  0  0  0
   -2.0656    1.8145    1.9364 H   0  0  0  0  0  0  0  0  0  0  0  0
   -1.9134    2.8080    3.3829 H   0  0  0  0  0  0  0  0  0  0  0  0
    0.6435    3.3277    4.2354 H   0  0  0  0  0  0  0  0  0  0  0  0
    0.5178    1.5876    4.5208 H   0  0  0  0  0  0  0  0  0  0  0  0
    2.6933    3.0274    3.0359 H   0  0  0  0  0  0  0  0  0  0  0  0
    2.8347    1.6480    4.1170 H   0  0  0  0  0  0  0  0  0  0  0  0
    2.4889    1.7429    1.2400 H   0  0  0  0  0  0  0  0  0  0  0  0
    3.7802    0.1307    2.4623 H   0  0  0  0  0  0  0  0  0  0  0  0
    2.2497   -1.7029    0.9544 H   0  0  0  0  0  0  0  0  0  0  0  0
    2.6313   -0.2441    0.0838 H   0  0  0  0  0  0  0  0  0  0  0  0
    4.6333   -2.0598    1.4955 H   0  0  0  0  0  0  0  0  0  0  0  0
    5.1248    0.3872    0.1851 H   0  0  0  0  0  0  0  0  0  0  0  0
    4.9378   -3.9985    0.1732 H   0  0  0  0  0  0  0  0  0  0  0  0
    5.1900   -5.0325   -2.0831 H   0  0  0  0  0  0  0  0  0  0  0  0
    4.9912   -3.5930   -4.1112 H   0  0  0  0  0  0  0  0  0  0  0  0
    4.2399   -0.2376   -1.8518 H   0  0  0  0  0  0  0  0  0  0  0  0
    0.2595    0.0743    2.3864 H   0  0  0  0  0  0  0  0  0  0  0  0
    0.2592    0.9389    0.8601 H   0  0  0  0  0  0  0  0  0  0  0  0
    0.0875    2.9618    1.9750 H   0  0  0  0  0  0  0  0  0  0  0  0
    2.4238   -0.6764    2.9041 H   0  0  0  0  0  0  0  0  0  0  0  0
  1  2  1  0
  1 17  1  0
  1 18  1  0
  1 19  1  0
  2 16  1  0
  2  3  1  0
  2 36  1  6
  3  4  1  0
  3 20  1  0
  3 21  1  0
  4  5  1  0
  4 22  1  0
  4 23  1  0
  5  6  1  0
  5 16  1  0
  5 24  1  6
  6  7  1  0
  6 25  1  0
  6 37  1  0
  7  8  1  0
  7 26  1  0
  7 27  1  0
  8  9  1  0
  8 10  1  0
  8 28  1  1
  9 29  1  0
 10 15  1  0
 10 11  2  0
 11 12  1  0
 11 30  1  0
 12 13  2  0
 12 31  1  0
 13 14  1  0
 13 32  1  0
 14 15  2  0
 15 33  1  0
 16 34  1  0
 16 35  1  0
M  CHG  2   2   1   6   1
M  END
>  <i_m_ct_stereo_status>  (200) 
1

>  <s_m_source_file>  (200) 
/var/tmp/pbs.5076255.sched01/tmpc36l9o9d/84wsylf1cs.sdf

>  <i_m_source_file_index>  (200) 
7

>  <i_lp_mmshare_version>  (200) 
48012

>  <i_f3d_flags>  (200) 
0

>  <s_epik_input>  (200) 
W0NIM11OMVtDSDJdW0NIMl1bQ0BIXShbQ0gyXTEpW05IXVtDSDJdW0NASF0oW09IXSljMltjSF1bY0hdW2NIXW5bY0hdMg==

>  <s_epik_cmdline>  (200) 
J2VwaWtfcHl0aG9uJywgJy1waHQnLCAnMi4wJywgJy1waCcsICc3LjAnLCAnLXRuJywgJzgnLCAnLW1hJywgJzIwMCcsICctaW1hZScsICc8aW5maWxlLm1hZT4nLCAnLW9tYWUnLCAnPG91dGZpbGUubWFlPic=

>  <r_epik_Ionization_Penalty>  (200) 
2.68496

>  <r_epik_Ionization_Penalty_Charging>  (200) 
2.68449

>  <r_epik_Ionization_Penalty_Neutral>  (200) 
0.000478535

>  <r_epik_State_Penalty>  (200) 
2.22673

>  <r_epik_Charging_Adjusted_Penalty>  (200) 
4.91122

>  <i_epik_Tot_Q>  (200) 
2

>  <i_epik_Tot_abs_Q>  (200) 
2

>  <s_lp_Force_Field>  (200) 
OPLS3e

>  <r_lp_Energy>  (200) 
39.388

>  <b_lp_Chiralities_Consistent>  (200) 
1

>  <s_lp_Variant>  (200) 
61:0-3

>  <s_i_glide_gridfile>  (200) 
pfpi4k_grid

>  <i_i_glide_lignum>  (200) 
7

>  <i_i_glide_rotatable_bonds>  (200) 
5

>  <r_i_docking_score>  (200) 
-4.37961

>  <r_i_glide_ligand_efficiency>  (200) 
-0.273726

>  <r_i_glide_ligand_efficiency_sa>  (200) 
-0.689746

>  <r_i_glide_ligand_efficiency_ln>  (200) 
-1.1609

>  <r_i_glide_gscore>  (200) 
-4.37961

>  <r_i_glide_lipo>  (200) 
-0.232571

>  <r_i_glide_hbond>  (200) 
-0.517562

>  <r_i_glide_metal>  (200) 
-0

>  <r_i_glide_rewards>  (200) 
-1.88649

>  <r_i_glide_evdw>  (200) 
-19.0477

>  <r_i_glide_ecoul>  (200) 
-11.3284

>  <r_i_glide_erotb>  (200) 
1.01799

>  <r_i_glide_esite>  (200) 
-0.109337

>  <r_i_glide_emodel>  (200) 
-40.1362

>  <r_i_glide_energy>  (200) 
-30.3761

>  <r_i_glide_einternal>  (200) 
3.67428

>  <r_i_glide_intrahb_reward>  (200) 
-0

>  <i_i_glide_confnum>  (200) 
1

>  <i_i_glide_posenum>  (200) 
12

>  <r_i_glide_eff_state_penalty>  (200) 
0

>  <ligand_id>  (200) 
61

>  <original_smiles>  (200) 
CN1CCC(NCC(O)c2cccnc2)C1

>  <smiles>  (200) 
[H]OC([H])(c1c([H])nc([H])c([H])c1[H])C([H])([H])[N+]([H])([H])C1([H])C([H])([H])C([H])([H])[N+]([H])(C([H])([H])[H])C1([H])[H]

$$$$
61:2:1
     RDKit          3D

 37 38  0  0  1  0  0  0  0  0999 V2000
   -1.8109    1.7448    2.6634 C   0  0  0  0  0  0  0  0  0  0  0  0
   -0.4446    2.2656    2.4910 N   0  0  1  0  0  0  0  0  0  0  0  0
    0.1933    2.7081    3.7404 C   0  0  0  0  0  0  0  0  0  0  0  0
    1.6801    2.8260    3.3878 C   0  0  0  0  0  0  0  0  0  0  0  0
    1.8762    1.9044    2.1683 C   0  0  1  0  0  0  0  0  0  0  0  0
    2.8934    0.8673    2.4170 N   0  0  0  0  0  0  0  0  0  0  0  0
    3.4034    0.1853    1.2028 C   0  0  0  0  0  0  0  0  0  0  0  0
    4.3042   -1.0080    1.5665 C   0  0  2  0  0  0  0  0  0  0  0  0
    5.3422   -0.5266    2.4097 O   0  0  0  0  0  0  0  0  0  0  0  0
    4.8387   -1.7091    0.3194 C   0  0  0  0  0  0  0  0  0  0  0  0
    3.9789   -2.4532   -0.5239 C   0  0  0  0  0  0  0  0  0  0  0  0
    4.5191   -3.0964   -1.6558 C   0  0  0  0  0  0  0  0  0  0  0  0
    5.8921   -2.9701   -1.9121 C   0  0  0  0  0  0  0  0  0  0  0  0
    6.7257   -2.2554   -1.1285 N   0  0  0  0  0  0  0  0  0  0  0  0
    6.2048   -1.6518   -0.0392 C   0  0  0  0  0  0  0  0  0  0  0  0
    0.4924    1.3016    1.9035 C   0  0  0  0  0  0  0  0  0  0  0  0
   -1.8143    0.8593    3.3032 H   0  0  0  0  0  0  0  0  0  0  0  0
   -2.2335    1.4610    1.6995 H   0  0  0  0  0  0  0  0  0  0  0  0
   -2.4666    2.4858    3.1189 H   0  0  0  0  0  0  0  0  0  0  0  0
   -0.2317    3.6370    4.1272 H   0  0  0  0  0  0  0  0  0  0  0  0
    0.0670    1.9364    4.5045 H   0  0  0  0  0  0  0  0  0  0  0  0
    1.9068    3.8576    3.1043 H   0  0  0  0  0  0  0  0  0  0  0  0
    2.3124    2.5797    4.2442 H   0  0  0  0  0  0  0  0  0  0  0  0
    2.1625    2.5252    1.3239 H   0  0  0  0  0  0  0  0  0  0  0  0
    3.6838    1.3187    2.8591 H   0  0  0  0  0  0  0  0  0  0  0  0
    2.5624   -0.1578    0.6004 H   0  0  0  0  0  0  0  0  0  0  0  0
    3.9616    0.9120    0.6136 H   0  0  0  0  0  0  0  0  0  0  0  0
    3.7190   -1.7495    2.1183 H   0  0  0  0  0  0  0  0  0  0  0  0
    4.9884   -0.2776    3.2498 H   0  0  0  0  0  0  0  0  0  0  0  0
    2.9259   -2.5416   -0.3043 H   0  0  0  0  0  0  0  0  0  0  0  0
    3.8928   -3.6874   -2.3123 H   0  0  0  0  0  0  0  0  0  0  0  0
    6.3445   -3.4449   -2.7704 H   0  0  0  0  0  0  0  0  0  0  0  0
    6.9227   -1.1007    0.5498 H   0  0  0  0  0  0  0  0  0  0  0  0
    0.3880    0.3483    2.4265 H   0  0  0  0  0  0  0  0  0  0  0  0
    0.2891    1.1190    0.8511 H   0  0  0  0  0  0  0  0  0  0  0  0
   -0.4356    3.0743    1.8648 H   0  0  0  0  0  0  0  0  0  0  0  0
    2.5137    0.1798    3.0533 H   0  0  0  0  0  0  0  0  0  0  0  0
  1  2  1  0
  1 17  1  0
  1 18  1  0
  1 19  1  0
  2 16  1  0
  2  3  1  0
  2 36  1  6
  3  4  1  0
  3 20  1  0
  3 21  1  0
  4  5  1  0
  4 22  1  0
  4 23  1  0
  5  6  1  0
  5 16  1  0
  5 24  1  6
  6  7  1  0
  6 25  1  0
  6 37  1  0
  7  8  1  0
  7 26  1  0
  7 27  1  0
  8  9  1  0
  8 10  1  0
  8 28  1  1
  9 29  1  0
 10 15  1  0
 10 11  2  0
 11 12  1  0
 11 30  1  0
 12 13  2  0
 12 31  1  0
 13 14  1  0
 13 32  1  0
 14 15  2  0
 15 33  1  0
 16 34  1  0
 16 35  1  0
M  CHG  2   2   1   6   1
M  END
>  <i_m_ct_stereo_status>  (201) 
1

>  <s_m_source_file>  (201) 
/var/tmp/pbs.5076255.sched01/tmpc36l9o9d/84wsylf1cs.sdf

>  <i_m_source_file_index>  (201) 
7

>  <i_lp_mmshare_version>  (201) 
48012

>  <i_f3d_flags>  (201) 
0

>  <s_epik_input>  (201) 
W0NIM11OMVtDSDJdW0NIMl1bQ0BIXShbQ0gyXTEpW05IXVtDSDJdW0NASF0oW09IXSljMltjSF1bY0hdW2NIXW5bY0hdMg==

>  <s_epik_cmdline>  (201) 
J2VwaWtfcHl0aG9uJywgJy1waHQnLCAnMi4wJywgJy1waCcsICc3LjAnLCAnLXRuJywgJzgnLCAnLW1hJywgJzIwMCcsICctaW1hZScsICc8aW5maWxlLm1hZT4nLCAnLW9tYWUnLCAnPG91dGZpbGUubWFlPic=

>  <r_epik_Ionization_Penalty>  (201) 
2.68496

>  <r_epik_Ionization_Penalty_Charging>  (201) 
2.68449

>  <r_epik_Ionization_Penalty_Neutral>  (201) 
0.000478535

>  <r_epik_State_Penalty>  (201) 
2.22673

>  <r_epik_Charging_Adjusted_Penalty>  (201) 
4.91122

>  <i_epik_Tot_Q>  (201) 
2

>  <i_epik_Tot_abs_Q>  (201) 
2

>  <s_lp_Force_Field>  (201) 
OPLS3e

>  <r_lp_Energy>  (201) 
39.388

>  <b_lp_Chiralities_Consistent>  (201) 
1

>  <s_lp_Variant>  (201) 
61:0-3

>  <s_i_glide_gridfile>  (201) 
pfpi4k_grid

>  <i_i_glide_lignum>  (201) 
7

>  <i_i_glide_rotatable_bonds>  (201) 
5

>  <r_i_docking_score>  (201) 
-4.18568

>  <r_i_glide_ligand_efficiency>  (201) 
-0.261605

>  <r_i_glide_ligand_efficiency_sa>  (201) 
-0.659204

>  <r_i_glide_ligand_efficiency_ln>  (201) 
-1.1095

>  <r_i_glide_gscore>  (201) 
-4.18568

>  <r_i_glide_lipo>  (201) 
-0.176148

>  <r_i_glide_hbond>  (201) 
-0.362748

>  <r_i_glide_metal>  (201) 
-0

>  <r_i_glide_rewards>  (201) 
-1.88649

>  <r_i_glide_evdw>  (201) 
-18.2146

>  <r_i_glide_ecoul>  (201) 
-11.7837

>  <r_i_glide_erotb>  (201) 
1.01799

>  <r_i_glide_esite>  (201) 
-0.1

>  <r_i_glide_emodel>  (201) 
-40.5102

>  <r_i_glide_energy>  (201) 
-29.9983

>  <r_i_glide_einternal>  (201) 
1.20203

>  <r_i_glide_intrahb_reward>  (201) 
-0

>  <i_i_glide_confnum>  (201) 
1

>  <i_i_glide_posenum>  (201) 
11

>  <r_i_glide_eff_state_penalty>  (201) 
0

>  <ligand_id>  (201) 
61

>  <original_smiles>  (201) 
CN1CCC(NCC(O)c2cccnc2)C1

>  <smiles>  (201) 
[H]OC([H])(c1c([H])nc([H])c([H])c1[H])C([H])([H])[N+]([H])([H])C1([H])C([H])([H])C([H])([H])[N+]([H])(C([H])([H])[H])C1([H])[H]

$$$$
61:2:2
     RDKit          3D

 37 38  0  0  1  0  0  0  0  0999 V2000
   -1.7869    1.5454    2.5486 C   0  0  0  0  0  0  0  0  0  0  0  0
   -0.4436    2.1474    2.4813 N   0  0  1  0  0  0  0  0  0  0  0  0
    0.1012    2.5152    3.7955 C   0  0  0  0  0  0  0  0  0  0  0  0
    1.5970    2.7189    3.5414 C   0  0  0  0  0  0  0  0  0  0  0  0
    1.9072    1.8972    2.2748 C   0  0  1  0  0  0  0  0  0  0  0  0
    2.9591    0.8841    2.5026 N   0  0  0  0  0  0  0  0  0  0  0  0
    3.4329    0.1952    1.2817 C   0  0  0  0  0  0  0  0  0  0  0  0
    4.3341   -1.0026    1.6295 C   0  0  2  0  0  0  0  0  0  0  0  0
    5.3673   -0.5315    2.4730 O   0  0  0  0  0  0  0  0  0  0  0  0
    4.8455   -1.7144    0.3827 C   0  0  0  0  0  0  0  0  0  0  0  0
    3.9701   -2.4923   -0.4086 C   0  0  0  0  0  0  0  0  0  0  0  0
    4.4708   -3.1507   -1.5460 C   0  0  0  0  0  0  0  0  0  0  0  0
    5.8351   -3.0026   -1.8632 C   0  0  0  0  0  0  0  0  0  0  0  0
    6.6797   -2.2519   -1.1303 N   0  0  0  0  0  0  0  0  0  0  0  0
    6.1952   -1.6334   -0.0338 C   0  0  0  0  0  0  0  0  0  0  0  0
    0.5650    1.2653    1.8835 C   0  0  0  0  0  0  0  0  0  0  0  0
   -1.7884    0.6179    3.1202 H   0  0  0  0  0  0  0  0  0  0  0  0
   -2.1690    1.3197    1.5565 H   0  0  0  0  0  0  0  0  0  0  0  0
   -2.5023    2.2143    3.0227 H   0  0  0  0  0  0  0  0  0  0  0  0
   -0.3896    3.3875    4.2325 H   0  0  0  0  0  0  0  0  0  0  0  0
   -0.0295    1.6799    4.4878 H   0  0  0  0  0  0  0  0  0  0  0  0
    1.7872    3.7764    3.3422 H   0  0  0  0  0  0  0  0  0  0  0  0
    2.1940    2.4368    4.4105 H   0  0  0  0  0  0  0  0  0  0  0  0
    2.2113    2.5919    1.4944 H   0  0  0  0  0  0  0  0  0  0  0  0
    3.7682    1.3363    2.9102 H   0  0  0  0  0  0  0  0  0  0  0  0
    2.5820   -0.1676    0.7043 H   0  0  0  0  0  0  0  0  0  0  0  0
    3.9708    0.9168    0.6643 H   0  0  0  0  0  0  0  0  0  0  0  0
    3.7623   -1.7330    2.2065 H   0  0  0  0  0  0  0  0  0  0  0  0
    5.9022   -1.2690    2.7317 H   0  0  0  0  0  0  0  0  0  0  0  0
    2.9270   -2.5938   -0.1435 H   0  0  0  0  0  0  0  0  0  0  0  0
    3.8327   -3.7650   -2.1635 H   0  0  0  0  0  0  0  0  0  0  0  0
    6.2578   -3.4893   -2.7297 H   0  0  0  0  0  0  0  0  0  0  0  0
    6.9217   -1.0537    0.5131 H   0  0  0  0  0  0  0  0  0  0  0  0
    0.4689    0.2759    2.3348 H   0  0  0  0  0  0  0  0  0  0  0  0
    0.4245    1.1464    0.8113 H   0  0  0  0  0  0  0  0  0  0  0  0
   -0.4575    2.9963    1.9131 H   0  0  0  0  0  0  0  0  0  0  0  0
    2.6256    0.1941    3.1607 H   0  0  0  0  0  0  0  0  0  0  0  0
  1  2  1  0
  1 17  1  0
  1 18  1  0
  1 19  1  0
  2 16  1  0
  2  3  1  0
  2 36  1  6
  3  4  1  0
  3 20  1  0
  3 21  1  0
  4  5  1  0
  4 22  1  0
  4 23  1  0
  5  6  1  0
  5 16  1  0
  5 24  1  6
  6  7  1  0
  6 25  1  0
  6 37  1  0
  7  8  1  0
  7 26  1  0
  7 27  1  0
  8  9  1  0
  8 10  1  0
  8 28  1  1
  9 29  1  0
 10 15  1  0
 10 11  2  0
 11 12  1  0
 11 30  1  0
 12 13  2  0
 12 31  1  0
 13 14  1  0
 13 32  1  0
 14 15  2  0
 15 33  1  0
 16 34  1  0
 16 35  1  0
M  CHG  2   2   1   6   1
M  END
>  <i_m_ct_stereo_status>  (202) 
1

>  <s_m_source_file>  (202) 
/var/tmp/pbs.5076255.sched01/tmpc36l9o9d/84wsylf1cs.sdf

>  <i_m_source_file_index>  (202) 
7

>  <i_lp_mmshare_version>  (202) 
48012

>  <i_f3d_flags>  (202) 
0

>  <s_epik_input>  (202) 
W0NIM11OMVtDSDJdW0NIMl1bQ0BIXShbQ0gyXTEpW05IXVtDSDJdW0NASF0oW09IXSljMltjSF1bY0hdW2NIXW5bY0hdMg==

>  <s_epik_cmdline>  (202) 
J2VwaWtfcHl0aG9uJywgJy1waHQnLCAnMi4wJywgJy1waCcsICc3LjAnLCAnLXRuJywgJzgnLCAnLW1hJywgJzIwMCcsICctaW1hZScsICc8aW5maWxlLm1hZT4nLCAnLW9tYWUnLCAnPG91dGZpbGUubWFlPic=

>  <r_epik_Ionization_Penalty>  (202) 
2.68496

>  <r_epik_Ionization_Penalty_Charging>  (202) 
2.68449

>  <r_epik_Ionization_Penalty_Neutral>  (202) 
0.000478535

>  <r_epik_State_Penalty>  (202) 
2.22673

>  <r_epik_Charging_Adjusted_Penalty>  (202) 
4.91122

>  <i_epik_Tot_Q>  (202) 
2

>  <i_epik_Tot_abs_Q>  (202) 
2

>  <s_lp_Force_Field>  (202) 
OPLS3e

>  <r_lp_Energy>  (202) 
39.388

>  <b_lp_Chiralities_Consistent>  (202) 
1

>  <s_lp_Variant>  (202) 
61:0-3

>  <s_i_glide_gridfile>  (202) 
pfpi4k_grid

>  <i_i_glide_lignum>  (202) 
7

>  <i_i_glide_rotatable_bonds>  (202) 
5

>  <r_i_docking_score>  (202) 
-4.1744

>  <r_i_glide_ligand_efficiency>  (202) 
-0.2609

>  <r_i_glide_ligand_efficiency_sa>  (202) 
-0.657427

>  <r_i_glide_ligand_efficiency_ln>  (202) 
-1.10651

>  <r_i_glide_gscore>  (202) 
-4.1744

>  <r_i_glide_lipo>  (202) 
-0.21891

>  <r_i_glide_hbond>  (202) 
-0.356672

>  <r_i_glide_metal>  (202) 
-0

>  <r_i_glide_rewards>  (202) 
-1.88649

>  <r_i_glide_evdw>  (202) 
-18.303

>  <r_i_glide_ecoul>  (202) 
-11.4597

>  <r_i_glide_erotb>  (202) 
1.01799

>  <r_i_glide_esite>  (202) 
-0.0962132

>  <r_i_glide_emodel>  (202) 
-39.9627

>  <r_i_glide_energy>  (202) 
-29.7627

>  <r_i_glide_einternal>  (202) 
1.64119

>  <r_i_glide_intrahb_reward>  (202) 
-0

>  <i_i_glide_confnum>  (202) 
1

>  <i_i_glide_posenum>  (202) 
37

>  <r_i_glide_eff_state_penalty>  (202) 
0

>  <ligand_id>  (202) 
61

>  <original_smiles>  (202) 
CN1CCC(NCC(O)c2cccnc2)C1

>  <smiles>  (202) 
[H]OC([H])(c1c([H])nc([H])c([H])c1[H])C([H])([H])[N+]([H])([H])C1([H])C([H])([H])C([H])([H])[N+]([H])(C([H])([H])[H])C1([H])[H]

$$$$
62:0:0
     RDKit          3D

 52 57  0  0  1  0  0  0  0  0999 V2000
    6.5112   -5.7624    3.3525 C   0  0  0  0  0  0  0  0  0  0  0  0
    5.8193   -4.6742    2.6101 N   0  0  2  0  0  0  0  0  0  0  0  0
    4.3550   -4.5708    3.0234 C   0  0  0  0  0  0  0  0  0  0  0  0
    3.5915   -3.1938    2.8154 C   0  0  0  0  0  0  0  0  0  0  0  0
    3.3941   -2.6250    1.3658 C   0  0  1  0  0  0  0  0  0  0  0  0
    2.3694   -3.3571    0.7187 O   0  0  0  0  0  0  0  0  0  0  0  0
    3.0310   -1.1036    1.3001 C   0  0  1  0  0  0  0  0  0  0  0  0
    2.2653   -0.6537    2.3954 O   0  0  0  0  0  0  0  0  0  0  0  0
    4.1853   -0.1429    1.0335 C   0  0  1  0  0  0  0  0  0  0  0  0
    5.4431   -0.4198    1.6617 O   0  0  0  0  0  0  0  0  0  0  0  0
    5.3845   -0.5765    0.2357 C   0  0  1  0  0  0  0  0  0  0  0  0
    5.4622   -1.9952   -0.3151 C   0  0  2  0  0  0  0  0  0  0  0  0
    6.9646   -2.5327   -0.2755 C   0  0  0  0  0  0  0  0  0  0  0  0
    7.3217   -3.6943    0.7494 C   0  0  0  0  0  0  0  0  0  0  0  0
    6.1594   -4.7166    1.1245 C   0  0  2  0  0  0  0  0  0  0  0  0
    4.9090   -4.4010    0.2944 C   0  0  2  0  0  0  0  0  0  0  0  0
    5.0567   -4.6467   -1.2179 C   0  0  0  0  0  0  0  0  0  0  0  0
    4.6101   -3.5174   -2.1351 C   0  0  0  0  0  0  0  0  0  0  0  0
    4.1025   -3.8076   -3.4244 C   0  0  0  0  0  0  0  0  0  0  0  0
    3.5924   -2.7840   -4.2202 C   0  0  0  0  0  0  0  0  0  0  0  0
    3.7991   -1.4654   -3.8444 C   0  0  0  0  0  0  0  0  0  0  0  0
    3.3944   -0.4830   -4.7078 O   0  0  0  0  0  0  0  0  0  0  0  0
    4.4348   -1.1736   -2.6337 C   0  0  0  0  0  0  0  0  0  0  0  0
    4.6159    0.1523   -2.3967 O   0  0  0  0  0  0  0  0  0  0  0  0
    4.8277   -2.1883   -1.7181 C   0  0  0  0  0  0  0  0  0  0  0  0
    4.6986   -2.9196    0.6468 C   0  0  2  0  0  0  0  0  0  0  0  0
    6.0824   -6.7384    3.1008 H   0  0  0  0  0  0  0  0  0  0  0  0
    6.4215   -5.6191    4.4353 H   0  0  0  0  0  0  0  0  0  0  0  0
    7.5792   -5.7839    3.1109 H   0  0  0  0  0  0  0  0  0  0  0  0
    3.7782   -5.4216    2.6506 H   0  0  0  0  0  0  0  0  0  0  0  0
    4.3451   -4.7094    4.1063 H   0  0  0  0  0  0  0  0  0  0  0  0
    2.6070   -3.2958    3.2629 H   0  0  0  0  0  0  0  0  0  0  0  0
    4.0988   -2.4355    3.4141 H   0  0  0  0  0  0  0  0  0  0  0  0
    2.2621   -3.0163   -0.1582 H   0  0  0  0  0  0  0  0  0  0  0  0
    2.3835   -0.9570    0.4556 H   0  0  0  0  0  0  0  0  0  0  0  0
    1.7966    0.1160    2.1067 H   0  0  0  0  0  0  0  0  0  0  0  0
    3.9208    0.9085    0.9527 H   0  0  0  0  0  0  0  0  0  0  0  0
    6.0240    0.1443   -0.2496 H   0  0  0  0  0  0  0  0  0  0  0  0
    7.2493   -2.8749   -1.2721 H   0  0  0  0  0  0  0  0  0  0  0  0
    7.6599   -1.7107   -0.1147 H   0  0  0  0  0  0  0  0  0  0  0  0
    8.1833   -4.2503    0.3678 H   0  0  0  0  0  0  0  0  0  0  0  0
    7.6751   -3.2306    1.6668 H   0  0  0  0  0  0  0  0  0  0  0  0
    6.4973   -5.7279    0.8741 H   0  0  0  0  0  0  0  0  0  0  0  0
    4.0933   -5.0651    0.6069 H   0  0  0  0  0  0  0  0  0  0  0  0
    6.1120   -4.6200   -1.4112 H   0  0  0  0  0  0  0  0  0  0  0  0
    4.6562   -5.6183   -1.4974 H   0  0  0  0  0  0  0  0  0  0  0  0
    4.0332   -4.7832   -3.8585 H   0  0  0  0  0  0  0  0  0  0  0  0
    3.0815   -3.0467   -5.1301 H   0  0  0  0  0  0  0  0  0  0  0  0
    2.7331   -0.7882   -5.3077 H   0  0  0  0  0  0  0  0  0  0  0  0
    4.9585    0.3843   -1.5566 H   0  0  0  0  0  0  0  0  0  0  0  0
    5.3169   -2.6484    1.4945 H   0  0  0  0  0  0  0  0  0  0  0  0
    6.2385   -3.8127    2.9521 H   0  0  0  0  0  0  0  0  0  0  0  0
  1  2  1  0
  1 27  1  0
  1 28  1  0
  1 29  1  0
  2 15  1  0
  2  3  1  0
  2 52  1  1
  3  4  1  0
  3 30  1  0
  3 31  1  0
  4  5  1  0
  4 32  1  0
  4 33  1  0
  5 26  1  0
  5  6  1  6
  5  7  1  0
  6 34  1  0
  7  8  1  0
  7  9  1  0
  7 35  1  6
  8 36  1  0
  9 11  1  0
  9 10  1  0
  9 37  1  6
 10 11  1  0
 11 12  1  0
 11 38  1  6
 12 25  1  0
 12 26  1  0
 12 13  1  6
 13 14  1  0
 13 39  1  0
 13 40  1  0
 14 15  1  0
 14 41  1  0
 14 42  1  0
 15 16  1  0
 15 43  1  6
 16 17  1  0
 16 26  1  0
 16 44  1  1
 17 18  1  0
 17 45  1  0
 17 46  1  0
 18 25  2  0
 18 19  1  0
 19 20  2  0
 19 47  1  0
 20 21  1  0
 20 48  1  0
 21 22  1  0
 21 23  2  0
 22 49  1  0
 23 24  1  0
 23 25  1  0
 24 50  1  0
 26 51  1  1
M  CHG  1   2   1
M  END
>  <i_m_ct_stereo_status>  (203) 
1

>  <s_m_source_file>  (203) 
/var/tmp/pbs.5076255.sched01/tmpc36l9o9d/84wsylf1cs.sdf

>  <i_m_source_file_index>  (203) 
8

>  <i_lp_mmshare_version>  (203) 
48012

>  <i_f3d_flags>  (203) 
0

>  <s_epik_input>  (203) 
W0NAQF0xMjNbQ0BIXTRbQ0BIXShPNClbQ0BIXShbT0hdKVtDQEBdNShbT0hdKVtDQEhdM1tDQEhdKFtDQEBIXShbQ0gyXVtDSDJdMSlOKFtDSDNdKVtDSDJdW0NIMl01KVtDSDJdYzZjMmMoW09IXSljKFtPSF0pW2NIXVtjSF02

>  <s_epik_cmdline>  (203) 
J2VwaWtfcHl0aG9uJywgJy1waHQnLCAnMi4wJywgJy1waCcsICc3LjAnLCAnLXRuJywgJzgnLCAnLW1hJywgJzIwMCcsICctaW1hZScsICc8aW5maWxlLm1hZT4nLCAnLW9tYWUnLCAnPG91dGZpbGUubWFlPic=

>  <r_lp_tautomer_probability>  (203) 
1

>  <r_epik_Ionization_Penalty>  (203) 
0.00214742

>  <r_epik_Ionization_Penalty_Charging>  (203) 
0.00127552

>  <r_epik_Ionization_Penalty_Neutral>  (203) 
0.000871901

>  <r_epik_State_Penalty>  (203) 
-0

>  <r_epik_Charging_Adjusted_Penalty>  (203) 
0.00127552

>  <i_epik_Tot_Q>  (203) 
1

>  <i_epik_Tot_abs_Q>  (203) 
1

>  <s_lp_Force_Field>  (203) 
OPLS3e

>  <r_lp_Energy>  (203) 
115.458

>  <b_lp_Chiralities_Consistent>  (203) 
1

>  <s_lp_Variant>  (203) 
62:0-1

>  <s_i_glide_gridfile>  (203) 
pfpi4k_grid

>  <i_i_glide_lignum>  (203) 
8

>  <i_i_glide_rotatable_bonds>  (203) 
4

>  <r_i_docking_score>  (203) 
-3.09079

>  <r_i_glide_ligand_efficiency>  (203) 
-0.118877

>  <r_i_glide_ligand_efficiency_sa>  (203) 
-0.352172

>  <r_i_glide_ligand_efficiency_ln>  (203) 
-0.725862

>  <r_i_glide_gscore>  (203) 
-3.09079

>  <r_i_glide_lipo>  (203) 
-0.604374

>  <r_i_glide_hbond>  (203) 
-0.113818

>  <r_i_glide_metal>  (203) 
-0

>  <r_i_glide_rewards>  (203) 
-0.951654

>  <r_i_glide_evdw>  (203) 
-7.52906

>  <r_i_glide_ecoul>  (203) 
-6.96329

>  <r_i_glide_erotb>  (203) 
0

>  <r_i_glide_esite>  (203) 
0

>  <r_i_glide_emodel>  (203) 
-14.4465

>  <r_i_glide_energy>  (203) 
-14.4923

>  <r_i_glide_einternal>  (203) 
1.091

>  <r_i_glide_intrahb_reward>  (203) 
-0

>  <i_i_glide_confnum>  (203) 
1

>  <i_i_glide_posenum>  (203) 
17

>  <r_i_glide_eff_state_penalty>  (203) 
0

>  <ligand_id>  (203) 
62

>  <original_smiles>  (203) 
CN1CCC2(O)C(O)C3OC3C34CCC1C(Cc1ccc(O)c(O)c13)C24

>  <smiles>  (203) 
[H]Oc1c([H])c([H])c2c(c1O[H])C13C([H])([H])C([H])([H])C4([H])C([H])(C2([H])[H])C1([H])C(O[H])(C([H])([H])C([H])([H])[N+]4([H])C([H])([H])[H])C([H])(O[H])C1([H])OC13[H]

$$$$
62:0:1
     RDKit          3D

 52 57  0  0  1  0  0  0  0  0999 V2000
    7.2538   -5.7899    2.6408 C   0  0  0  0  0  0  0  0  0  0  0  0
    6.4687   -4.6634    2.0859 N   0  0  2  0  0  0  0  0  0  0  0  0
    5.1546   -4.4709    2.8397 C   0  0  0  0  0  0  0  0  0  0  0  0
    4.4512   -3.0512    2.8292 C   0  0  0  0  0  0  0  0  0  0  0  0
    3.9057   -2.4724    1.4736 C   0  0  1  0  0  0  0  0  0  0  0  0
    2.6970   -3.1165    1.1196 O   0  0  0  0  0  0  0  0  0  0  0  0
    3.5878   -0.9389    1.4649 C   0  0  1  0  0  0  0  0  0  0  0  0
    3.2066   -0.4447    2.7393 O   0  0  0  0  0  0  0  0  0  0  0  0
    4.6939   -0.0839    0.9192 C   0  0  1  0  0  0  0  0  0  0  0  0
    6.0492   -0.4627    1.2472 O   0  0  0  0  0  0  0  0  0  0  0  0
    5.6458   -0.5907   -0.1242 C   0  0  1  0  0  0  0  0  0  0  0  0
    5.5446   -1.9757   -0.6666 C   0  0  2  0  0  0  0  0  0  0  0  0
    6.9828   -2.5864   -0.9862 C   0  0  0  0  0  0  0  0  0  0  0  0
    7.5279   -3.7462   -0.0633 C   0  0  0  0  0  0  0  0  0  0  0  0
    6.4448   -4.6981    0.5754 C   0  0  2  0  0  0  0  0  0  0  0  0
    5.0731   -4.3012    0.0628 C   0  0  2  0  0  0  0  0  0  0  0  0
    4.8388   -4.5544   -1.4299 C   0  0  0  0  0  0  0  0  0  0  0  0
    4.2169   -3.4063   -2.2233 C   0  0  0  0  0  0  0  0  0  0  0  0
    3.3271   -3.5827   -3.3138 C   0  0  0  0  0  0  0  0  0  0  0  0
    2.6805   -2.5388   -3.9300 C   0  0  0  0  0  0  0  0  0  0  0  0
    3.1090   -1.2503   -3.6674 C   0  0  0  0  0  0  0  0  0  0  0  0
    2.6385   -0.2256   -4.4452 O   0  0  0  0  0  0  0  0  0  0  0  0
    4.0826   -1.0718   -2.6696 C   0  0  0  0  0  0  0  0  0  0  0  0
    4.5401    0.1482   -2.5774 O   0  0  0  0  0  0  0  0  0  0  0  0
    4.5921   -2.1207   -1.8725 C   0  0  0  0  0  0  0  0  0  0  0  0
    4.9938   -2.8376    0.4565 C   0  0  2  0  0  0  0  0  0  0  0  0
    6.7220   -6.7411    2.5092 H   0  0  0  0  0  0  0  0  0  0  0  0
    7.4402   -5.6564    3.7092 H   0  0  0  0  0  0  0  0  0  0  0  0
    8.2278   -5.8762    2.1474 H   0  0  0  0  0  0  0  0  0  0  0  0
    4.4485   -5.2812    2.6296 H   0  0  0  0  0  0  0  0  0  0  0  0
    5.4029   -4.6220    3.8871 H   0  0  0  0  0  0  0  0  0  0  0  0
    3.6099   -3.1073    3.5076 H   0  0  0  0  0  0  0  0  0  0  0  0
    5.1396   -2.3295    3.2790 H   0  0  0  0  0  0  0  0  0  0  0  0
    2.3664   -2.6907    0.3450 H   0  0  0  0  0  0  0  0  0  0  0  0
    2.7627   -0.7402    0.7792 H   0  0  0  0  0  0  0  0  0  0  0  0
    3.9526   -0.4833    3.3110 H   0  0  0  0  0  0  0  0  0  0  0  0
    4.4923    0.9648    0.8275 H   0  0  0  0  0  0  0  0  0  0  0  0
    6.1889    0.1233   -0.7452 H   0  0  0  0  0  0  0  0  0  0  0  0
    6.9879   -2.9342   -2.0194 H   0  0  0  0  0  0  0  0  0  0  0  0
    7.7597   -1.8429   -0.9887 H   0  0  0  0  0  0  0  0  0  0  0  0
    8.2421   -4.3303   -0.6432 H   0  0  0  0  0  0  0  0  0  0  0  0
    8.1249   -3.2885    0.7336 H   0  0  0  0  0  0  0  0  0  0  0  0
    6.6333   -5.7196    0.2437 H   0  0  0  0  0  0  0  0  0  0  0  0
    4.3061   -4.8990    0.5579 H   0  0  0  0  0  0  0  0  0  0  0  0
    5.7777   -4.7046   -1.9394 H   0  0  0  0  0  0  0  0  0  0  0  0
    4.2538   -5.4525   -1.4414 H   0  0  0  0  0  0  0  0  0  0  0  0
    2.9939   -4.4908   -3.7638 H   0  0  0  0  0  0  0  0  0  0  0  0
    1.9317   -2.8028   -4.6775 H   0  0  0  0  0  0  0  0  0  0  0  0
    2.5777    0.6047   -4.0084 H   0  0  0  0  0  0  0  0  0  0  0  0
    3.8098    0.7223   -2.7053 H   0  0  0  0  0  0  0  0  0  0  0  0
    5.8153   -2.6150    1.1321 H   0  0  0  0  0  0  0  0  0  0  0  0
    7.0151   -3.8243    2.3118 H   0  0  0  0  0  0  0  0  0  0  0  0
  1  2  1  0
  1 27  1  0
  1 28  1  0
  1 29  1  0
  2 15  1  0
  2  3  1  0
  2 52  1  6
  3  4  1  0
  3 30  1  0
  3 31  1  0
  4  5  1  0
  4 32  1  0
  4 33  1  0
  5 26  1  0
  5  6  1  6
  5  7  1  0
  6 34  1  0
  7  8  1  0
  7  9  1  0
  7 35  1  6
  8 36  1  0
  9 11  1  0
  9 10  1  0
  9 37  1  6
 10 11  1  0
 11 12  1  0
 11 38  1  6
 12 25  1  0
 12 26  1  0
 12 13  1  6
 13 14  1  0
 13 39  1  0
 13 40  1  0
 14 15  1  0
 14 41  1  0
 14 42  1  0
 15 16  1  0
 15 43  1  1
 16 17  1  0
 16 26  1  0
 16 44  1  1
 17 18  1  0
 17 45  1  0
 17 46  1  0
 18 25  2  0
 18 19  1  0
 19 20  2  0
 19 47  1  0
 20 21  1  0
 20 48  1  0
 21 22  1  0
 21 23  2  0
 22 49  1  0
 23 24  1  0
 23 25  1  0
 24 50  1  0
 26 51  1  1
M  CHG  1   2   1
M  END
>  <i_m_ct_stereo_status>  (204) 
1

>  <s_m_source_file>  (204) 
/var/tmp/pbs.5076255.sched01/tmpc36l9o9d/84wsylf1cs.sdf

>  <i_m_source_file_index>  (204) 
8

>  <i_lp_mmshare_version>  (204) 
48012

>  <i_f3d_flags>  (204) 
0

>  <s_epik_input>  (204) 
W0NAQF0xMjNbQ0BIXTRbQ0BIXShPNClbQ0BIXShbT0hdKVtDQEBdNShbT0hdKVtDQEhdM1tDQEhdKFtDQEBIXShbQ0gyXVtDSDJdMSlOKFtDSDNdKVtDSDJdW0NIMl01KVtDSDJdYzZjMmMoW09IXSljKFtPSF0pW2NIXVtjSF02

>  <s_epik_cmdline>  (204) 
J2VwaWtfcHl0aG9uJywgJy1waHQnLCAnMi4wJywgJy1waCcsICc3LjAnLCAnLXRuJywgJzgnLCAnLW1hJywgJzIwMCcsICctaW1hZScsICc8aW5maWxlLm1hZT4nLCAnLW9tYWUnLCAnPG91dGZpbGUubWFlPic=

>  <r_lp_tautomer_probability>  (204) 
1

>  <r_epik_Ionization_Penalty>  (204) 
0.00214742

>  <r_epik_Ionization_Penalty_Charging>  (204) 
0.00127552

>  <r_epik_Ionization_Penalty_Neutral>  (204) 
0.000871901

>  <r_epik_State_Penalty>  (204) 
-0

>  <r_epik_Charging_Adjusted_Penalty>  (204) 
0.00127552

>  <i_epik_Tot_Q>  (204) 
1

>  <i_epik_Tot_abs_Q>  (204) 
1

>  <s_lp_Force_Field>  (204) 
OPLS3e

>  <r_lp_Energy>  (204) 
115.458

>  <b_lp_Chiralities_Consistent>  (204) 
1

>  <s_lp_Variant>  (204) 
62:0-1

>  <s_i_glide_gridfile>  (204) 
pfpi4k_grid

>  <i_i_glide_lignum>  (204) 
8

>  <i_i_glide_rotatable_bonds>  (204) 
4

>  <r_i_docking_score>  (204) 
-2.89943

>  <r_i_glide_ligand_efficiency>  (204) 
-0.111516

>  <r_i_glide_ligand_efficiency_sa>  (204) 
-0.330367

>  <r_i_glide_ligand_efficiency_ln>  (204) 
-0.680921

>  <r_i_glide_gscore>  (204) 
-2.89943

>  <r_i_glide_lipo>  (204) 
-0.948561

>  <r_i_glide_hbond>  (204) 
-0.0828704

>  <r_i_glide_metal>  (204) 
-0

>  <r_i_glide_rewards>  (204) 
-0.951654

>  <r_i_glide_evdw>  (204) 
-2.74892

>  <r_i_glide_ecoul>  (204) 
-5.19264

>  <r_i_glide_erotb>  (204) 
0

>  <r_i_glide_esite>  (204) 
0

>  <r_i_glide_emodel>  (204) 
-6.03558

>  <r_i_glide_energy>  (204) 
-7.94156

>  <r_i_glide_einternal>  (204) 
1.00255

>  <r_i_glide_intrahb_reward>  (204) 
-0

>  <i_i_glide_confnum>  (204) 
1

>  <i_i_glide_posenum>  (204) 
1

>  <r_i_glide_eff_state_penalty>  (204) 
0

>  <ligand_id>  (204) 
62

>  <original_smiles>  (204) 
CN1CCC2(O)C(O)C3OC3C34CCC1C(Cc1ccc(O)c(O)c13)C24

>  <smiles>  (204) 
[H]Oc1c([H])c([H])c2c(c1O[H])C13C([H])([H])C([H])([H])C4([H])C([H])(C2([H])[H])C1([H])C(O[H])(C([H])([H])C([H])([H])[N+]4([H])C([H])([H])[H])C([H])(O[H])C1([H])OC13[H]

$$$$
62:0:2
     RDKit          3D

 52 57  0  0  1  0  0  0  0  0999 V2000
    3.2571   -3.4336   -3.5414 C   0  0  0  0  0  0  0  0  0  0  0  0
    3.9884   -3.1278   -2.2830 N   0  0  2  0  0  0  0  0  0  0  0  0
    4.8392   -4.2991   -1.7971 C   0  0  0  0  0  0  0  0  0  0  0  0
    6.0690   -4.0347   -0.8629 C   0  0  0  0  0  0  0  0  0  0  0  0
    5.7982   -3.5212    0.5697 C   0  0  1  0  0  0  0  0  0  0  0  0
    5.3084   -4.5654    1.3998 O   0  0  0  0  0  0  0  0  0  0  0  0
    7.0547   -2.9821    1.2761 C   0  0  1  0  0  0  0  0  0  0  0  0
    8.2642   -3.6115    0.8427 O   0  0  0  0  0  0  0  0  0  0  0  0
    7.2339   -1.4785    1.2044 C   0  0  1  0  0  0  0  0  0  0  0  0
    6.8393   -0.8907   -0.0251 O   0  0  0  0  0  0  0  0  0  0  0  0
    6.0412   -0.5764    1.1201 C   0  0  1  0  0  0  0  0  0  0  0  0
    4.6542   -1.1357    1.0942 C   0  0  2  0  0  0  0  0  0  0  0  0
    3.7418   -0.2891    0.1125 C   0  0  0  0  0  0  0  0  0  0  0  0
    3.3743   -0.9483   -1.3253 C   0  0  0  0  0  0  0  0  0  0  0  0
    3.0786   -2.4719   -1.2698 C   0  0  2  0  0  0  0  0  0  0  0  0
    3.3151   -3.0113    0.1582 C   0  0  2  0  0  0  0  0  0  0  0  0
    2.2800   -2.6018    1.2500 C   0  0  0  0  0  0  0  0  0  0  0  0
    2.8703   -2.0399    2.5450 C   0  0  0  0  0  0  0  0  0  0  0  0
    2.2189   -2.3179    3.7447 C   0  0  0  0  0  0  0  0  0  0  0  0
    2.7449   -1.7972    4.9414 C   0  0  0  0  0  0  0  0  0  0  0  0
    3.9005   -0.9896    4.9146 C   0  0  0  0  0  0  0  0  0  0  0  0
    4.4019   -0.5003    6.0809 O   0  0  0  0  0  0  0  0  0  0  0  0
    4.5514   -0.7216    3.6980 C   0  0  0  0  0  0  0  0  0  0  0  0
    5.6919    0.0553    3.7770 O   0  0  0  0  0  0  0  0  0  0  0  0
    4.0384   -1.2594    2.4939 C   0  0  0  0  0  0  0  0  0  0  0  0
    4.6964   -2.4829    0.4593 C   0  0  2  0  0  0  0  0  0  0  0  0
    2.4931   -4.1976   -3.4235 H   0  0  0  0  0  0  0  0  0  0  0  0
    3.9502   -3.7573   -4.3176 H   0  0  0  0  0  0  0  0  0  0  0  0
    2.7477   -2.5401   -3.9011 H   0  0  0  0  0  0  0  0  0  0  0  0
    4.2161   -5.0592   -1.3179 H   0  0  0  0  0  0  0  0  0  0  0  0
    5.2604   -4.7199   -2.7068 H   0  0  0  0  0  0  0  0  0  0  0  0
    6.4870   -5.0110   -0.6305 H   0  0  0  0  0  0  0  0  0  0  0  0
    6.8099   -3.4151   -1.3748 H   0  0  0  0  0  0  0  0  0  0  0  0
    5.9934   -5.2123    1.4766 H   0  0  0  0  0  0  0  0  0  0  0  0
    6.8534   -3.2061    2.3125 H   0  0  0  0  0  0  0  0  0  0  0  0
    8.9525   -3.4043    1.4490 H   0  0  0  0  0  0  0  0  0  0  0  0
    8.1461   -1.0397    1.5691 H   0  0  0  0  0  0  0  0  0  0  0  0
    6.0924    0.4763    1.3306 H   0  0  0  0  0  0  0  0  0  0  0  0
    2.8327   -0.0045    0.6399 H   0  0  0  0  0  0  0  0  0  0  0  0
    4.2013    0.6673   -0.0148 H   0  0  0  0  0  0  0  0  0  0  0  0
    2.5500   -0.5074   -1.8864 H   0  0  0  0  0  0  0  0  0  0  0  0
    4.1693   -0.6980   -2.0348 H   0  0  0  0  0  0  0  0  0  0  0  0
    2.0483   -2.6856   -1.5278 H   0  0  0  0  0  0  0  0  0  0  0  0
    3.2578   -4.0842    0.1640 H   0  0  0  0  0  0  0  0  0  0  0  0
    1.5918   -1.8397    0.8704 H   0  0  0  0  0  0  0  0  0  0  0  0
    1.7443   -3.4921    1.5573 H   0  0  0  0  0  0  0  0  0  0  0  0
    1.3255   -2.9258    3.7514 H   0  0  0  0  0  0  0  0  0  0  0  0
    2.2539   -2.0306    5.8737 H   0  0  0  0  0  0  0  0  0  0  0  0
    3.8554   -0.7229    6.8259 H   0  0  0  0  0  0  0  0  0  0  0  0
    6.1885    0.1092    2.9754 H   0  0  0  0  0  0  0  0  0  0  0  0
    5.1204   -2.1121   -0.4569 H   0  0  0  0  0  0  0  0  0  0  0  0
    4.6525   -2.4255   -2.5180 H   0  0  0  0  0  0  0  0  0  0  0  0
  1  2  1  0
  1 27  1  0
  1 28  1  0
  1 29  1  0
  2 15  1  0
  2  3  1  0
  2 52  1  6
  3  4  1  0
  3 30  1  0
  3 31  1  0
  4  5  1  0
  4 32  1  0
  4 33  1  0
  5 26  1  0
  5  6  1  1
  5  7  1  0
  6 34  1  0
  7  8  1  0
  7  9  1  0
  7 35  1  1
  8 36  1  0
  9 11  1  0
  9 10  1  0
  9 37  1  1
 10 11  1  0
 11 12  1  0
 11 38  1  1
 12 25  1  0
 12 26  1  0
 12 13  1  6
 13 14  1  0
 13 39  1  0
 13 40  1  0
 14 15  1  0
 14 41  1  0
 14 42  1  0
 15 16  1  0
 15 43  1  6
 16 17  1  0
 16 26  1  0
 16 44  1  6
 17 18  1  0
 17 45  1  0
 17 46  1  0
 18 25  2  0
 18 19  1  0
 19 20  2  0
 19 47  1  0
 20 21  1  0
 20 48  1  0
 21 22  1  0
 21 23  2  0
 22 49  1  0
 23 24  1  0
 23 25  1  0
 24 50  1  0
 26 51  1  6
M  CHG  1   2   1
M  END
>  <i_m_ct_stereo_status>  (205) 
1

>  <s_m_source_file>  (205) 
/var/tmp/pbs.5076255.sched01/tmpc36l9o9d/84wsylf1cs.sdf

>  <i_m_source_file_index>  (205) 
8

>  <i_lp_mmshare_version>  (205) 
48012

>  <i_f3d_flags>  (205) 
0

>  <s_epik_input>  (205) 
W0NAQF0xMjNbQ0BIXTRbQ0BIXShPNClbQ0BIXShbT0hdKVtDQEBdNShbT0hdKVtDQEhdM1tDQEhdKFtDQEBIXShbQ0gyXVtDSDJdMSlOKFtDSDNdKVtDSDJdW0NIMl01KVtDSDJdYzZjMmMoW09IXSljKFtPSF0pW2NIXVtjSF02

>  <s_epik_cmdline>  (205) 
J2VwaWtfcHl0aG9uJywgJy1waHQnLCAnMi4wJywgJy1waCcsICc3LjAnLCAnLXRuJywgJzgnLCAnLW1hJywgJzIwMCcsICctaW1hZScsICc8aW5maWxlLm1hZT4nLCAnLW9tYWUnLCAnPG91dGZpbGUubWFlPic=

>  <r_lp_tautomer_probability>  (205) 
1

>  <r_epik_Ionization_Penalty>  (205) 
0.00214742

>  <r_epik_Ionization_Penalty_Charging>  (205) 
0.00127552

>  <r_epik_Ionization_Penalty_Neutral>  (205) 
0.000871901

>  <r_epik_State_Penalty>  (205) 
-0

>  <r_epik_Charging_Adjusted_Penalty>  (205) 
0.00127552

>  <i_epik_Tot_Q>  (205) 
1

>  <i_epik_Tot_abs_Q>  (205) 
1

>  <s_lp_Force_Field>  (205) 
OPLS3e

>  <r_lp_Energy>  (205) 
115.458

>  <b_lp_Chiralities_Consistent>  (205) 
1

>  <s_lp_Variant>  (205) 
62:0-1

>  <s_i_glide_gridfile>  (205) 
pfpi4k_grid

>  <i_i_glide_lignum>  (205) 
8

>  <i_i_glide_rotatable_bonds>  (205) 
4

>  <r_i_docking_score>  (205) 
-2.28278

>  <r_i_glide_ligand_efficiency>  (205) 
-0.0877992

>  <r_i_glide_ligand_efficiency_sa>  (205) 
-0.260105

>  <r_i_glide_ligand_efficiency_ln>  (205) 
-0.536103

>  <r_i_glide_gscore>  (205) 
-2.28278

>  <r_i_glide_lipo>  (205) 
-0.493533

>  <r_i_glide_hbond>  (205) 
-0.0581082

>  <r_i_glide_metal>  (205) 
-0

>  <r_i_glide_rewards>  (205) 
-0.951654

>  <r_i_glide_evdw>  (205) 
2.71892

>  <r_i_glide_ecoul>  (205) 
-5.94917

>  <r_i_glide_erotb>  (205) 
0

>  <r_i_glide_esite>  (205) 
-0.0230549

>  <r_i_glide_emodel>  (205) 
-3.07582

>  <r_i_glide_energy>  (205) 
-3.23025

>  <r_i_glide_einternal>  (205) 
0.57029

>  <r_i_glide_intrahb_reward>  (205) 
-0

>  <i_i_glide_confnum>  (205) 
2

>  <i_i_glide_posenum>  (205) 
5

>  <r_i_glide_eff_state_penalty>  (205) 
0

>  <ligand_id>  (205) 
62

>  <original_smiles>  (205) 
CN1CCC2(O)C(O)C3OC3C34CCC1C(Cc1ccc(O)c(O)c13)C24

>  <smiles>  (205) 
[H]Oc1c([H])c([H])c2c(c1O[H])C13C([H])([H])C([H])([H])C4([H])C([H])(C2([H])[H])C1([H])C(O[H])(C([H])([H])C([H])([H])[N+]4([H])C([H])([H])[H])C([H])(O[H])C1([H])OC13[H]

$$$$
63:0:0
     RDKit          3D

 79 87  0  0  1  0  0  0  0  0999 V2000
    3.6981   -3.7098   -0.8870 C   0  0  0  0  0  0  0  0  0  0  0  0
    3.4800   -4.1341    0.5541 C   0  0  0  0  0  0  0  0  0  0  0  0
    3.8063   -3.4799    1.6727 C   0  0  0  0  0  0  0  0  0  0  0  0
    4.4904   -2.1400    1.8390 C   0  0  0  0  0  0  0  0  0  0  0  0
    3.7342   -1.2897    2.8681 C   0  0  0  0  0  0  0  0  0  0  0  0
    3.5651   -2.0446    4.2212 C   0  0  2  0  0  0  0  0  0  0  0  0
    2.7757   -3.3560    3.9950 C   0  0  1  0  0  0  0  0  0  0  0  0
    3.4271   -4.2466    2.9169 C   0  0  1  0  0  0  0  0  0  0  0  0
    2.4941   -5.3489    2.3664 C   0  0  0  0  0  0  0  0  0  0  0  0
    2.8495   -5.4701    0.8717 C   0  0  1  0  0  0  0  0  0  0  0  0
    1.7103   -5.7238    0.0791 O   0  0  0  0  0  0  0  0  0  0  0  0
    2.4846   -4.1500    5.2666 C   0  0  2  0  0  0  0  0  0  0  0  0
    2.5512   -3.4949    6.6211 C   0  0  2  0  0  0  0  0  0  0  0  0
    2.9084   -2.0117    6.7258 C   0  0  1  0  0  0  0  0  0  0  0  0
    4.0957   -1.7010    7.4181 O   0  0  0  0  0  0  0  0  0  0  0  0
    4.6360   -0.5535    7.0296 C   0  0  0  0  0  0  0  0  0  0  0  0
    5.5951    0.0070    7.5553 O   0  0  0  0  0  0  0  0  0  0  0  0
    3.9492   -0.0524    5.7577 C   0  0  1  0  0  0  0  0  0  0  0  0
    2.9800   -1.1932    5.4000 C   0  0  1  0  0  0  0  0  0  0  0  0
    1.6355   -0.4841    5.0957 C   0  0  1  0  0  0  0  0  0  0  0  0
    0.5120   -1.2938    5.3951 O   0  0  0  0  0  0  0  0  0  0  0  0
    1.6392    0.9208    5.7760 C   0  0  2  0  0  0  0  0  0  0  0  0
    1.0987    0.8305    7.2372 C   0  0  0  0  0  0  0  0  0  0  0  0
    0.7911    2.0008    5.0008 C   0  0  2  0  0  0  0  0  0  0  0  0
   -0.7363    1.8158    5.0248 C   0  0  0  0  0  0  0  0  0  0  0  0
   -1.4228    2.3332    5.9057 O   0  0  0  0  0  0  0  0  0  0  0  0
   -1.3999    0.9936    3.9310 C   0  0  0  0  0  0  0  0  0  0  0  0
   -0.8279    1.2577    2.5662 C   0  0  2  0  0  0  0  0  0  0  0  0
    0.3010    0.4262    2.2866 O   0  0  0  0  0  0  0  0  0  0  0  0
    0.5523    1.8297    2.3800 C   0  0  2  0  0  0  0  0  0  0  0  0
    1.3451    2.3630    3.5702 C   0  0  1  0  0  0  0  0  0  0  0  0
    1.3391    3.7754    3.4455 O   0  0  0  0  0  0  0  0  0  0  0  0
    2.6282    1.8407    3.4064 O   0  0  0  0  0  0  0  0  0  0  0  0
    3.5162    2.1024    4.4817 C   0  0  0  0  0  0  0  0  0  0  0  0
    3.1640    1.3102    5.7761 C   0  0  2  0  0  0  0  0  0  0  0  0
    3.5769    2.2576    6.9363 C   0  0  0  0  0  0  0  0  0  0  0  0
    3.4778   -4.6650    6.3034 C   0  0  0  0  0  0  0  0  0  0  0  0
    3.1650   -6.0170    6.9293 C   0  0  0  0  0  0  0  0  0  0  0  0
    4.9886   -4.5093    6.2114 C   0  0  0  0  0  0  0  0  0  0  0  0
    4.2333   -4.4905   -1.4284 H   0  0  0  0  0  0  0  0  0  0  0  0
    4.2687   -2.7863   -0.9726 H   0  0  0  0  0  0  0  0  0  0  0  0
    2.7365   -3.5598   -1.3796 H   0  0  0  0  0  0  0  0  0  0  0  0
    5.5058   -2.3179    2.1906 H   0  0  0  0  0  0  0  0  0  0  0  0
    4.5639   -1.6081    0.8927 H   0  0  0  0  0  0  0  0  0  0  0  0
    4.2616   -0.3457    3.0047 H   0  0  0  0  0  0  0  0  0  0  0  0
    2.7632   -1.0421    2.4338 H   0  0  0  0  0  0  0  0  0  0  0  0
    4.5833   -2.3050    4.4956 H   0  0  0  0  0  0  0  0  0  0  0  0
    1.8020   -3.0490    3.6063 H   0  0  0  0  0  0  0  0  0  0  0  0
    4.3446   -4.6949    3.2981 H   0  0  0  0  0  0  0  0  0  0  0  0
    2.5696   -6.2933    2.9062 H   0  0  0  0  0  0  0  0  0  0  0  0
    1.4563   -5.0185    2.4521 H   0  0  0  0  0  0  0  0  0  0  0  0
    3.5985   -6.2501    0.7141 H   0  0  0  0  0  0  0  0  0  0  0  0
    2.0295   -5.8388   -0.8118 H   0  0  0  0  0  0  0  0  0  0  0  0
    1.6326   -4.8063    5.1161 H   0  0  0  0  0  0  0  0  0  0  0  0
    1.7545   -3.7541    7.3124 H   0  0  0  0  0  0  0  0  0  0  0  0
    2.1288   -1.5956    7.3564 H   0  0  0  0  0  0  0  0  0  0  0  0
    4.7683   -0.0009    5.0437 H   0  0  0  0  0  0  0  0  0  0  0  0
    1.5884   -0.3295    4.0313 H   0  0  0  0  0  0  0  0  0  0  0  0
    0.5609   -2.0657    4.8497 H   0  0  0  0  0  0  0  0  0  0  0  0
    0.9484    1.8243    7.6556 H   0  0  0  0  0  0  0  0  0  0  0  0
    1.7716    0.3181    7.9207 H   0  0  0  0  0  0  0  0  0  0  0  0
    0.1341    0.3281    7.2998 H   0  0  0  0  0  0  0  0  0  0  0  0
    0.9478    2.9046    5.5884 H   0  0  0  0  0  0  0  0  0  0  0  0
   -1.3211   -0.0730    4.1483 H   0  0  0  0  0  0  0  0  0  0  0  0
   -2.4605    1.2532    3.9215 H   0  0  0  0  0  0  0  0  0  0  0  0
   -1.5342    1.3429    1.7414 H   0  0  0  0  0  0  0  0  0  0  0  0
    0.7900    2.2805    1.4233 H   0  0  0  0  0  0  0  0  0  0  0  0
    1.1356    4.0014    2.5446 H   0  0  0  0  0  0  0  0  0  0  0  0
    4.5197    1.8545    4.1402 H   0  0  0  0  0  0  0  0  0  0  0  0
    3.5355    3.1797    4.6636 H   0  0  0  0  0  0  0  0  0  0  0  0
    2.9712    3.1643    6.9280 H   0  0  0  0  0  0  0  0  0  0  0  0
    4.6162    2.5688    6.8282 H   0  0  0  0  0  0  0  0  0  0  0  0
    3.4793    1.8158    7.9272 H   0  0  0  0  0  0  0  0  0  0  0  0
    3.6160   -6.0996    7.9180 H   0  0  0  0  0  0  0  0  0  0  0  0
    3.5444   -6.8229    6.3020 H   0  0  0  0  0  0  0  0  0  0  0  0
    2.0892   -6.1521    7.0389 H   0  0  0  0  0  0  0  0  0  0  0  0
    5.4470   -4.7703    7.1671 H   0  0  0  0  0  0  0  0  0  0  0  0
    5.2906   -3.4922    5.9906 H   0  0  0  0  0  0  0  0  0  0  0  0
    5.3885   -5.1766    5.4472 H   0  0  0  0  0  0  0  0  0  0  0  0
  1  2  1  0
  1 40  1  0
  1 41  1  0
  1 42  1  0
  2 10  1  0
  2  3  2  0
  3  8  1  0
  3  4  1  0
  4  5  1  0
  4 43  1  0
  4 44  1  0
  5  6  1  0
  5 45  1  0
  5 46  1  0
  6 19  1  0
  6  7  1  0
  6 47  1  1
  7  8  1  0
  7 12  1  0
  7 48  1  6
  8  9  1  0
  8 49  1  1
  9 10  1  0
  9 50  1  0
  9 51  1  0
 10 11  1  0
 10 52  1  1
 11 53  1  0
 12 37  1  0
 12 13  1  0
 12 54  1  6
 13 14  1  0
 13 37  1  0
 13 55  1  1
 14 19  1  0
 14 15  1  0
 14 56  1  1
 15 16  1  0
 16 17  2  0
 16 18  1  0
 18 35  1  0
 18 19  1  0
 18 57  1  6
 19 20  1  6
 20 21  1  0
 20 22  1  0
 20 58  1  6
 21 59  1  0
 22 35  1  0
 22 23  1  1
 22 24  1  0
 23 60  1  0
 23 61  1  0
 23 62  1  0
 24 31  1  0
 24 25  1  0
 24 63  1  1
 25 26  2  0
 25 27  1  0
 27 28  1  0
 27 64  1  0
 27 65  1  0
 28 30  1  0
 28 29  1  0
 28 66  1  6
 29 30  1  0
 30 31  1  0
 30 67  1  6
 31 32  1  6
 31 33  1  0
 32 68  1  0
 33 34  1  0
 34 35  1  0
 34 69  1  0
 34 70  1  0
 35 36  1  1
 36 71  1  0
 36 72  1  0
 36 73  1  0
 37 38  1  0
 37 39  1  0
 38 74  1  0
 38 75  1  0
 38 76  1  0
 39 77  1  0
 39 78  1  0
 39 79  1  0
M  END
>  <i_m_ct_stereo_status>  (206) 
1

>  <s_m_source_file>  (206) 
/var/tmp/pbs.5076255.sched01/tmpc36l9o9d/84wsylf1cs.sdf

>  <i_m_source_file_index>  (206) 
9

>  <i_lp_mmshare_version>  (206) 
48012

>  <i_f3d_flags>  (206) 
0

>  <s_epik_input>  (206) 
W0NIMl0xW0NAQEhdKFtPSF0pQyhbQ0gzXSk9QyhbQ0gyXVtDSDJdMilbQ0BIXTFbQ0BIXShbQ0BASF0yW0NAQF0zNDUpW0NAQEhdNltDQEBIXShDNihbQ0gzXSlbQ0gzXSlbQ0BIXTNPQyg9TylbQ0BASF00W0NAXTcoW0NIM10pW0NAXShbQ0gzXSkoW0NAQEhdNVtPSF0pW0NASF04W0NAQF0oW09IXSkoT1tDSDJdNylbQ0BASF05W0NAQEhdKE85KVtDSDJdQzg9Tw==

>  <s_epik_cmdline>  (206) 
J2VwaWtfcHl0aG9uJywgJy1waHQnLCAnMi4wJywgJy1waCcsICc3LjAnLCAnLXRuJywgJzgnLCAnLW1hJywgJzIwMCcsICctaW1hZScsICc8aW5maWxlLm1hZT4nLCAnLW9tYWUnLCAnPG91dGZpbGUubWFlPic=

>  <r_lp_tautomer_probability>  (206) 
1

>  <r_epik_Ionization_Penalty>  (206) 
2.04467e-06

>  <r_epik_Ionization_Penalty_Charging>  (206) 
0

>  <r_epik_Ionization_Penalty_Neutral>  (206) 
2.04467e-06

>  <r_epik_State_Penalty>  (206) 
-0

>  <r_epik_Charging_Adjusted_Penalty>  (206) 
0

>  <i_epik_Tot_Q>  (206) 
0

>  <i_epik_Tot_abs_Q>  (206) 
0

>  <s_epik_Chemistry_Notes>  (206) 
This compound has an ester and may undergo hydrolysis at high or low pH.

>  <s_lp_Force_Field>  (206) 
OPLS3e

>  <r_lp_Energy>  (206) 
60.505

>  <b_lp_Chiralities_Consistent>  (206) 
1

>  <s_lp_Variant>  (206) 
63:0-1

>  <s_i_glide_gridfile>  (206) 
pfpi4k_grid

>  <i_i_glide_lignum>  (206) 
9

>  <i_i_glide_rotatable_bonds>  (206) 
3

>  <r_i_docking_score>  (206) 
-3.04244

>  <r_i_glide_ligand_efficiency>  (206) 
-0.0780112

>  <r_i_glide_ligand_efficiency_sa>  (206) 
-0.264553

>  <r_i_glide_ligand_efficiency_ln>  (206) 
-0.652385

>  <r_i_glide_gscore>  (206) 
-3.04244

>  <r_i_glide_lipo>  (206) 
-0.0278087

>  <r_i_glide_hbond>  (206) 
-0.385163

>  <r_i_glide_metal>  (206) 
-0

>  <r_i_glide_rewards>  (206) 
0

>  <r_i_glide_evdw>  (206) 
-26.0474

>  <r_i_glide_ecoul>  (206) 
-8.55153

>  <r_i_glide_erotb>  (206) 
0

>  <r_i_glide_esite>  (206) 
-0.0443648

>  <r_i_glide_emodel>  (206) 
-41.5393

>  <r_i_glide_energy>  (206) 
-34.599

>  <r_i_glide_einternal>  (206) 
1.31927

>  <r_i_glide_intrahb_reward>  (206) 
-0

>  <i_i_glide_confnum>  (206) 
1

>  <i_i_glide_posenum>  (206) 
8

>  <r_i_glide_eff_state_penalty>  (206) 
0

>  <ligand_id>  (206) 
63

>  <original_smiles>  (206) 
CC1=C2CCC3C(C2CC1O)C1C(C2OC(=O)C4C32C(O)C2(C)C3C(=O)CC5OC5C3(O)OCC42C)C1(C)C

>  <smiles>  (206) 
[H]OC1([H])C(C([H])([H])[H])=C2C([H])([H])C([H])([H])C3([H])C([H])(C2([H])C1([H])[H])C1([H])C([H])(C2([H])OC(=O)C4([H])C23C([H])(O[H])C2(C([H])([H])[H])C3([H])C(=O)C([H])([H])C5([H])OC5([H])C3(O[H])OC([H])([H])C42C([H])([H])[H])C1(C([H])([H])[H])C([H])([H])[H]

$$$$
63:0:1
     RDKit          3D

 79 87  0  0  1  0  0  0  0  0999 V2000
    1.3609   -0.1574    4.6936 C   0  0  0  0  0  0  0  0  0  0  0  0
    2.0987   -0.8036    3.5364 C   0  0  0  0  0  0  0  0  0  0  0  0
    2.9154   -1.8699    3.5601 C   0  0  0  0  0  0  0  0  0  0  0  0
    3.3409   -2.7385    4.7215 C   0  0  0  0  0  0  0  0  0  0  0  0
    3.2098   -4.2231    4.3446 C   0  0  0  0  0  0  0  0  0  0  0  0
    3.9841   -4.5602    3.0339 C   0  0  2  0  0  0  0  0  0  0  0  0
    3.4345   -3.7044    1.8699 C   0  0  1  0  0  0  0  0  0  0  0  0
    3.4824   -2.1942    2.2030 C   0  0  1  0  0  0  0  0  0  0  0  0
    2.6139   -1.3344    1.2749 C   0  0  0  0  0  0  0  0  0  0  0  0
    2.0138   -0.2142    2.1456 C   0  0  1  0  0  0  0  0  0  0  0  0
    0.6875    0.0951    1.7494 O   0  0  0  0  0  0  0  0  0  0  0  0
    4.0654   -3.9985    0.5102 C   0  0  2  0  0  0  0  0  0  0  0  0
    4.8034   -5.2881    0.2580 C   0  0  2  0  0  0  0  0  0  0  0  0
    4.9161   -6.3221    1.3777 C   0  0  1  0  0  0  0  0  0  0  0  0
    6.2151   -6.6132    1.8370 O   0  0  0  0  0  0  0  0  0  0  0  0
    6.2378   -7.0417    3.0928 C   0  0  0  0  0  0  0  0  0  0  0  0
    7.2203   -7.4807    3.6904 O   0  0  0  0  0  0  0  0  0  0  0  0
    4.8708   -6.8314    3.7449 C   0  0  1  0  0  0  0  0  0  0  0  0
    4.0686   -6.0810    2.6656 C   0  0  1  0  0  0  0  0  0  0  0  0
    2.7027   -6.8160    2.5990 C   0  0  1  0  0  0  0  0  0  0  0  0
    2.0798   -6.7444    1.3268 O   0  0  0  0  0  0  0  0  0  0  0  0
    2.8849   -8.2543    3.1780 C   0  0  2  0  0  0  0  0  0  0  0  0
    3.3216   -9.2559    2.0651 C   0  0  0  0  0  0  0  0  0  0  0  0
    1.5844   -8.8206    3.8623 C   0  0  2  0  0  0  0  0  0  0  0  0
    0.4045   -9.1761    2.9359 C   0  0  0  0  0  0  0  0  0  0  0  0
    0.2871  -10.3146    2.4926 O   0  0  0  0  0  0  0  0  0  0  0  0
   -0.6485   -8.1155    2.6154 C   0  0  0  0  0  0  0  0  0  0  0  0
   -1.0234   -7.3035    3.8280 C   0  0  2  0  0  0  0  0  0  0  0  0
   -0.1636   -6.1816    4.0256 O   0  0  0  0  0  0  0  0  0  0  0  0
   -0.1206   -7.1937    5.0322 C   0  0  2  0  0  0  0  0  0  0  0  0
    1.1369   -8.0516    5.1571 C   0  0  1  0  0  0  0  0  0  0  0  0
    0.8552   -9.0119    6.1568 O   0  0  0  0  0  0  0  0  0  0  0  0
    2.1434   -7.1768    5.5739 O   0  0  0  0  0  0  0  0  0  0  0  0
    3.4433   -7.7448    5.6450 C   0  0  0  0  0  0  0  0  0  0  0  0
    4.0386   -8.0715    4.2388 C   0  0  2  0  0  0  0  0  0  0  0  0
    4.8957   -9.3476    4.4745 C   0  0  0  0  0  0  0  0  0  0  0  0
    5.5396   -3.9583    0.1289 C   0  0  0  0  0  0  0  0  0  0  0  0
    5.8642   -3.4466   -1.2655 C   0  0  0  0  0  0  0  0  0  0  0  0
    6.6641   -3.5543    1.0656 C   0  0  0  0  0  0  0  0  0  0  0  0
    1.5885    0.9091    4.7279 H   0  0  0  0  0  0  0  0  0  0  0  0
    1.6280   -0.5949    5.6550 H   0  0  0  0  0  0  0  0  0  0  0  0
    0.2852   -0.2678    4.5520 H   0  0  0  0  0  0  0  0  0  0  0  0
    4.3852   -2.5140    4.9396 H   0  0  0  0  0  0  0  0  0  0  0  0
    2.7662   -2.5191    5.6178 H   0  0  0  0  0  0  0  0  0  0  0  0
    3.5631   -4.8329    5.1769 H   0  0  0  0  0  0  0  0  0  0  0  0
    2.1445   -4.4354    4.2328 H   0  0  0  0  0  0  0  0  0  0  0  0
    4.9956   -4.2291    3.2453 H   0  0  0  0  0  0  0  0  0  0  0  0
    2.3841   -3.9901    1.7691 H   0  0  0  0  0  0  0  0  0  0  0  0
    4.5098   -1.8299    2.1814 H   0  0  0  0  0  0  0  0  0  0  0  0
    3.1248   -0.9665    0.3910 H   0  0  0  0  0  0  0  0  0  0  0  0
    1.7944   -1.9578    0.9211 H   0  0  0  0  0  0  0  0  0  0  0  0
    2.6377    0.6827    2.1005 H   0  0  0  0  0  0  0  0  0  0  0  0
    0.6224    0.0117    0.7972 H   0  0  0  0  0  0  0  0  0  0  0  0
    3.3980   -3.6932   -0.2925 H   0  0  0  0  0  0  0  0  0  0  0  0
    4.6079   -5.7667   -0.6985 H   0  0  0  0  0  0  0  0  0  0  0  0
    4.5979   -7.2511    0.9158 H   0  0  0  0  0  0  0  0  0  0  0  0
    5.1008   -6.1798    4.5842 H   0  0  0  0  0  0  0  0  0  0  0  0
    2.0302   -6.2913    3.2561 H   0  0  0  0  0  0  0  0  0  0  0  0
    2.6381   -7.1787    0.6979 H   0  0  0  0  0  0  0  0  0  0  0  0
    3.2912  -10.2830    2.4295 H   0  0  0  0  0  0  0  0  0  0  0  0
    4.3389   -9.1025    1.7114 H   0  0  0  0  0  0  0  0  0  0  0  0
    2.6676   -9.2344    1.1940 H   0  0  0  0  0  0  0  0  0  0  0  0
    1.9155   -9.7889    4.2353 H   0  0  0  0  0  0  0  0  0  0  0  0
   -0.2792   -7.4467    1.8375 H   0  0  0  0  0  0  0  0  0  0  0  0
   -1.5420   -8.6045    2.2254 H   0  0  0  0  0  0  0  0  0  0  0  0
   -2.0824   -7.0781    3.9581 H   0  0  0  0  0  0  0  0  0  0  0  0
   -0.5647   -6.8818    5.9738 H   0  0  0  0  0  0  0  0  0  0  0  0
    0.3096   -9.6962    5.7876 H   0  0  0  0  0  0  0  0  0  0  0  0
    4.0830   -7.0518    6.1947 H   0  0  0  0  0  0  0  0  0  0  0  0
    3.3943   -8.6362    6.2749 H   0  0  0  0  0  0  0  0  0  0  0  0
    4.2651  -10.1873    4.7691 H   0  0  0  0  0  0  0  0  0  0  0  0
    5.6127   -9.1922    5.2819 H   0  0  0  0  0  0  0  0  0  0  0  0
    5.4652   -9.6691    3.6034 H   0  0  0  0  0  0  0  0  0  0  0  0
    6.8180   -3.8468   -1.6085 H   0  0  0  0  0  0  0  0  0  0  0  0
    5.9175   -2.3583   -1.2704 H   0  0  0  0  0  0  0  0  0  0  0  0
    5.0971   -3.7537   -1.9764 H   0  0  0  0  0  0  0  0  0  0  0  0
    7.6307   -3.8110    0.6254 H   0  0  0  0  0  0  0  0  0  0  0  0
    6.6118   -4.0679    2.0188 H   0  0  0  0  0  0  0  0  0  0  0  0
    6.6405   -2.4772    1.2378 H   0  0  0  0  0  0  0  0  0  0  0  0
  1  2  1  0
  1 40  1  0
  1 41  1  0
  1 42  1  0
  2 10  1  0
  2  3  2  0
  3  8  1  0
  3  4  1  0
  4  5  1  0
  4 43  1  0
  4 44  1  0
  5  6  1  0
  5 45  1  0
  5 46  1  0
  6 19  1  0
  6  7  1  0
  6 47  1  1
  7  8  1  0
  7 12  1  0
  7 48  1  6
  8  9  1  0
  8 49  1  1
  9 10  1  0
  9 50  1  0
  9 51  1  0
 10 11  1  0
 10 52  1  1
 11 53  1  0
 12 37  1  0
 12 13  1  0
 12 54  1  6
 13 14  1  0
 13 37  1  0
 13 55  1  6
 14 19  1  0
 14 15  1  0
 14 56  1  6
 15 16  1  0
 16 17  2  0
 16 18  1  0
 18 35  1  0
 18 19  1  0
 18 57  1  1
 19 20  1  6
 20 21  1  0
 20 22  1  0
 20 58  1  1
 21 59  1  0
 22 35  1  0
 22 23  1  6
 22 24  1  0
 23 60  1  0
 23 61  1  0
 23 62  1  0
 24 31  1  0
 24 25  1  0
 24 63  1  1
 25 26  2  0
 25 27  1  0
 27 28  1  0
 27 64  1  0
 27 65  1  0
 28 30  1  0
 28 29  1  0
 28 66  1  1
 29 30  1  0
 30 31  1  0
 30 67  1  1
 31 32  1  1
 31 33  1  0
 32 68  1  0
 33 34  1  0
 34 35  1  0
 34 69  1  0
 34 70  1  0
 35 36  1  1
 36 71  1  0
 36 72  1  0
 36 73  1  0
 37 38  1  0
 37 39  1  0
 38 74  1  0
 38 75  1  0
 38 76  1  0
 39 77  1  0
 39 78  1  0
 39 79  1  0
M  END
>  <i_m_ct_stereo_status>  (207) 
1

>  <s_m_source_file>  (207) 
/var/tmp/pbs.5076255.sched01/tmpc36l9o9d/84wsylf1cs.sdf

>  <i_m_source_file_index>  (207) 
9

>  <i_lp_mmshare_version>  (207) 
48012

>  <i_f3d_flags>  (207) 
0

>  <s_epik_input>  (207) 
W0NIMl0xW0NAQEhdKFtPSF0pQyhbQ0gzXSk9QyhbQ0gyXVtDSDJdMilbQ0BIXTFbQ0BIXShbQ0BASF0yW0NAQF0zNDUpW0NAQEhdNltDQEBIXShDNihbQ0gzXSlbQ0gzXSlbQ0BIXTNPQyg9TylbQ0BASF00W0NAXTcoW0NIM10pW0NAXShbQ0gzXSkoW0NAQEhdNVtPSF0pW0NASF04W0NAQF0oW09IXSkoT1tDSDJdNylbQ0BASF05W0NAQEhdKE85KVtDSDJdQzg9Tw==

>  <s_epik_cmdline>  (207) 
J2VwaWtfcHl0aG9uJywgJy1waHQnLCAnMi4wJywgJy1waCcsICc3LjAnLCAnLXRuJywgJzgnLCAnLW1hJywgJzIwMCcsICctaW1hZScsICc8aW5maWxlLm1hZT4nLCAnLW9tYWUnLCAnPG91dGZpbGUubWFlPic=

>  <r_lp_tautomer_probability>  (207) 
1

>  <r_epik_Ionization_Penalty>  (207) 
2.04467e-06

>  <r_epik_Ionization_Penalty_Charging>  (207) 
0

>  <r_epik_Ionization_Penalty_Neutral>  (207) 
2.04467e-06

>  <r_epik_State_Penalty>  (207) 
-0

>  <r_epik_Charging_Adjusted_Penalty>  (207) 
0

>  <i_epik_Tot_Q>  (207) 
0

>  <i_epik_Tot_abs_Q>  (207) 
0

>  <s_epik_Chemistry_Notes>  (207) 
This compound has an ester and may undergo hydrolysis at high or low pH.

>  <s_lp_Force_Field>  (207) 
OPLS3e

>  <r_lp_Energy>  (207) 
60.505

>  <b_lp_Chiralities_Consistent>  (207) 
1

>  <s_lp_Variant>  (207) 
63:0-1

>  <s_i_glide_gridfile>  (207) 
pfpi4k_grid

>  <i_i_glide_lignum>  (207) 
9

>  <i_i_glide_rotatable_bonds>  (207) 
3

>  <r_i_docking_score>  (207) 
-2.79648

>  <r_i_glide_ligand_efficiency>  (207) 
-0.0717046

>  <r_i_glide_ligand_efficiency_sa>  (207) 
-0.243165

>  <r_i_glide_ligand_efficiency_ln>  (207) 
-0.599645

>  <r_i_glide_gscore>  (207) 
-2.79648

>  <r_i_glide_lipo>  (207) 
-0.411433

>  <r_i_glide_hbond>  (207) 
-0.208537

>  <r_i_glide_metal>  (207) 
-0

>  <r_i_glide_rewards>  (207) 
-0.00917339

>  <r_i_glide_evdw>  (207) 
-34.6855

>  <r_i_glide_ecoul>  (207) 
-2.62838

>  <r_i_glide_erotb>  (207) 
0

>  <r_i_glide_esite>  (207) 
-0.0388028

>  <r_i_glide_emodel>  (207) 
-43.3809

>  <r_i_glide_energy>  (207) 
-37.3139

>  <r_i_glide_einternal>  (207) 
2.44825

>  <r_i_glide_intrahb_reward>  (207) 
-0

>  <i_i_glide_confnum>  (207) 
2

>  <i_i_glide_posenum>  (207) 
9

>  <r_i_glide_eff_state_penalty>  (207) 
0

>  <ligand_id>  (207) 
63

>  <original_smiles>  (207) 
CC1=C2CCC3C(C2CC1O)C1C(C2OC(=O)C4C32C(O)C2(C)C3C(=O)CC5OC5C3(O)OCC42C)C1(C)C

>  <smiles>  (207) 
[H]OC1([H])C(C([H])([H])[H])=C2C([H])([H])C([H])([H])C3([H])C([H])(C2([H])C1([H])[H])C1([H])C([H])(C2([H])OC(=O)C4([H])C23C([H])(O[H])C2(C([H])([H])[H])C3([H])C(=O)C([H])([H])C5([H])OC5([H])C3(O[H])OC([H])([H])C42C([H])([H])[H])C1(C([H])([H])[H])C([H])([H])[H]

$$$$
63:0:2
     RDKit          3D

 79 87  0  0  1  0  0  0  0  0999 V2000
    1.4379   -0.3168    4.9786 C   0  0  0  0  0  0  0  0  0  0  0  0
    2.1272   -0.9326    3.7731 C   0  0  0  0  0  0  0  0  0  0  0  0
    2.9276   -2.0041    3.7290 C   0  0  0  0  0  0  0  0  0  0  0  0
    3.3890   -2.9161    4.8466 C   0  0  0  0  0  0  0  0  0  0  0  0
    3.2261   -4.3852    4.4289 C   0  0  0  0  0  0  0  0  0  0  0  0
    3.9501   -4.6850    3.0806 C   0  0  2  0  0  0  0  0  0  0  0  0
    3.3666   -3.7890    1.9640 C   0  0  1  0  0  0  0  0  0  0  0  0
    3.4338   -2.2913    2.3368 C   0  0  1  0  0  0  0  0  0  0  0  0
    2.5330   -1.3952    1.4698 C   0  0  0  0  0  0  0  0  0  0  0  0
    1.9946   -0.2975    2.4063 C   0  0  1  0  0  0  0  0  0  0  0  0
    0.6610    0.0340    2.0808 O   0  0  0  0  0  0  0  0  0  0  0  0
    3.9484   -4.0439    0.5739 C   0  0  2  0  0  0  0  0  0  0  0  0
    4.6658   -5.3314    0.2561 C   0  0  2  0  0  0  0  0  0  0  0  0
    4.8045   -6.4021    1.3389 C   0  0  1  0  0  0  0  0  0  0  0  0
    6.1177   -6.7194    1.7411 O   0  0  0  0  0  0  0  0  0  0  0  0
    6.1786   -7.1896    2.9793 C   0  0  0  0  0  0  0  0  0  0  0  0
    7.1775   -7.6587    3.5248 O   0  0  0  0  0  0  0  0  0  0  0  0
    4.8367   -6.9901    3.6865 C   0  0  1  0  0  0  0  0  0  0  0  0
    4.0038   -6.1948    2.6617 C   0  0  1  0  0  0  0  0  0  0  0  0
    2.6300   -6.9156    2.6197 C   0  0  1  0  0  0  0  0  0  0  0  0
    1.9650   -6.7961    1.3732 O   0  0  0  0  0  0  0  0  0  0  0  0
    2.8180   -8.3732    3.1468 C   0  0  2  0  0  0  0  0  0  0  0  0
    3.2025   -9.3420    1.9861 C   0  0  0  0  0  0  0  0  0  0  0  0
    1.5387   -8.9491    3.8626 C   0  0  2  0  0  0  0  0  0  0  0  0
    0.3229   -9.2636    2.9684 C   0  0  0  0  0  0  0  0  0  0  0  0
    0.2004  -10.3780    2.4814 O   0  0  0  0  0  0  0  0  0  0  0  0
   -0.7303   -8.1827    2.7219 C   0  0  0  0  0  0  0  0  0  0  0  0
   -1.0509   -7.4012    3.9702 C   0  0  2  0  0  0  0  0  0  0  0  0
   -0.1745   -6.2897    4.1707 O   0  0  0  0  0  0  0  0  0  0  0  0
   -0.0997   -7.3382    5.1434 C   0  0  2  0  0  0  0  0  0  0  0  0
    1.1558   -8.2127    5.1991 C   0  0  1  0  0  0  0  0  0  0  0  0
    0.8933   -9.1924    6.1920 O   0  0  0  0  0  0  0  0  0  0  0  0
    2.1864   -7.3563    5.5948 O   0  0  0  0  0  0  0  0  0  0  0  0
    3.4741   -7.9469    5.6064 C   0  0  0  0  0  0  0  0  0  0  0  0
    4.0112   -8.2371    4.1706 C   0  0  2  0  0  0  0  0  0  0  0  0
    4.8609   -9.5287    4.3317 C   0  0  0  0  0  0  0  0  0  0  0  0
    5.4110   -4.0043    0.1433 C   0  0  0  0  0  0  0  0  0  0  0  0
    5.6890   -3.4536   -1.2466 C   0  0  0  0  0  0  0  0  0  0  0  0
    6.5733   -3.6414    1.0542 C   0  0  0  0  0  0  0  0  0  0  0  0
    1.6781    0.7452    5.0420 H   0  0  0  0  0  0  0  0  0  0  0  0
    1.7319   -0.7900    5.9162 H   0  0  0  0  0  0  0  0  0  0  0  0
    0.3568   -0.4111    4.8723 H   0  0  0  0  0  0  0  0  0  0  0  0
    4.4419   -2.7098    5.0373 H   0  0  0  0  0  0  0  0  0  0  0  0
    2.8489   -2.7225    5.7706 H   0  0  0  0  0  0  0  0  0  0  0  0
    3.6012   -5.0246    5.2282 H   0  0  0  0  0  0  0  0  0  0  0  0
    2.1557   -4.5833    4.3480 H   0  0  0  0  0  0  0  0  0  0  0  0
    4.9732   -4.3697    3.2659 H   0  0  0  0  0  0  0  0  0  0  0  0
    2.3104   -4.0627    1.8932 H   0  0  0  0  0  0  0  0  0  0  0  0
    4.4611   -1.9316    2.2882 H   0  0  0  0  0  0  0  0  0  0  0  0
    3.0166   -1.0025    0.5755 H   0  0  0  0  0  0  0  0  0  0  0  0
    1.6833   -1.9903    1.1297 H   0  0  0  0  0  0  0  0  0  0  0  0
    2.6291    0.5908    2.3678 H   0  0  0  0  0  0  0  0  0  0  0  0
    0.6106    0.1432    1.1364 H   0  0  0  0  0  0  0  0  0  0  0  0
    3.2560   -3.7068   -0.1933 H   0  0  0  0  0  0  0  0  0  0  0  0
    4.4366   -5.7780   -0.7083 H   0  0  0  0  0  0  0  0  0  0  0  0
    4.4605   -7.3127    0.8590 H   0  0  0  0  0  0  0  0  0  0  0  0
    5.1032   -6.3682    4.5388 H   0  0  0  0  0  0  0  0  0  0  0  0
    1.9844   -6.4059    3.3153 H   0  0  0  0  0  0  0  0  0  0  0  0
    2.4845   -7.2343    0.7152 H   0  0  0  0  0  0  0  0  0  0  0  0
    3.1753  -10.3798    2.3184 H   0  0  0  0  0  0  0  0  0  0  0  0
    4.2062   -9.1863    1.6002 H   0  0  0  0  0  0  0  0  0  0  0  0
    2.5165   -9.2869    1.1418 H   0  0  0  0  0  0  0  0  0  0  0  0
    1.8659   -9.9351    4.1880 H   0  0  0  0  0  0  0  0  0  0  0  0
   -0.3811   -7.4965    1.9502 H   0  0  0  0  0  0  0  0  0  0  0  0
   -1.6433   -8.6509    2.3493 H   0  0  0  0  0  0  0  0  0  0  0  0
   -2.1020   -7.1708    4.1429 H   0  0  0  0  0  0  0  0  0  0  0  0
   -0.5116   -7.0540    6.1079 H   0  0  0  0  0  0  0  0  0  0  0  0
    1.5046   -9.9128    6.1044 H   0  0  0  0  0  0  0  0  0  0  0  0
    4.1387   -7.2800    6.1547 H   0  0  0  0  0  0  0  0  0  0  0  0
    3.4368   -8.8565    6.2100 H   0  0  0  0  0  0  0  0  0  0  0  0
    4.2337  -10.3727    4.6214 H   0  0  0  0  0  0  0  0  0  0  0  0
    5.6086   -9.4061    5.1169 H   0  0  0  0  0  0  0  0  0  0  0  0
    5.3953   -9.8243    3.4296 H   0  0  0  0  0  0  0  0  0  0  0  0
    6.6239   -3.8461   -1.6408 H   0  0  0  0  0  0  0  0  0  0  0  0
    5.7585   -2.3691   -1.2200 H   0  0  0  0  0  0  0  0  0  0  0  0
    4.8923   -3.7300   -1.9364 H   0  0  0  0  0  0  0  0  0  0  0  0
    7.5183   -3.8938    0.5706 H   0  0  0  0  0  0  0  0  0  0  0  0
    6.5506   -4.1838    1.9921 H   0  0  0  0  0  0  0  0  0  0  0  0
    6.5681   -2.5708    1.2607 H   0  0  0  0  0  0  0  0  0  0  0  0
  1  2  1  0
  1 40  1  0
  1 41  1  0
  1 42  1  0
  2 10  1  0
  2  3  2  0
  3  8  1  0
  3  4  1  0
  4  5  1  0
  4 43  1  0
  4 44  1  0
  5  6  1  0
  5 45  1  0
  5 46  1  0
  6 19  1  0
  6  7  1  0
  6 47  1  1
  7  8  1  0
  7 12  1  0
  7 48  1  6
  8  9  1  0
  8 49  1  1
  9 10  1  0
  9 50  1  0
  9 51  1  0
 10 11  1  0
 10 52  1  1
 11 53  1  0
 12 37  1  0
 12 13  1  0
 12 54  1  6
 13 14  1  0
 13 37  1  0
 13 55  1  6
 14 19  1  0
 14 15  1  0
 14 56  1  6
 15 16  1  0
 16 17  2  0
 16 18  1  0
 18 35  1  0
 18 19  1  0
 18 57  1  1
 19 20  1  6
 20 21  1  0
 20 22  1  0
 20 58  1  1
 21 59  1  0
 22 35  1  0
 22 23  1  6
 22 24  1  0
 23 60  1  0
 23 61  1  0
 23 62  1  0
 24 31  1  0
 24 25  1  0
 24 63  1  1
 25 26  2  0
 25 27  1  0
 27 28  1  0
 27 64  1  0
 27 65  1  0
 28 30  1  0
 28 29  1  0
 28 66  1  1
 29 30  1  0
 30 31  1  0
 30 67  1  1
 31 32  1  1
 31 33  1  0
 32 68  1  0
 33 34  1  0
 34 35  1  0
 34 69  1  0
 34 70  1  0
 35 36  1  1
 36 71  1  0
 36 72  1  0
 36 73  1  0
 37 38  1  0
 37 39  1  0
 38 74  1  0
 38 75  1  0
 38 76  1  0
 39 77  1  0
 39 78  1  0
 39 79  1  0
M  END
>  <i_m_ct_stereo_status>  (208) 
1

>  <s_m_source_file>  (208) 
/var/tmp/pbs.5076255.sched01/tmpc36l9o9d/84wsylf1cs.sdf

>  <i_m_source_file_index>  (208) 
9

>  <i_lp_mmshare_version>  (208) 
48012

>  <i_f3d_flags>  (208) 
0

>  <s_epik_input>  (208) 
W0NIMl0xW0NAQEhdKFtPSF0pQyhbQ0gzXSk9QyhbQ0gyXVtDSDJdMilbQ0BIXTFbQ0BIXShbQ0BASF0yW0NAQF0zNDUpW0NAQEhdNltDQEBIXShDNihbQ0gzXSlbQ0gzXSlbQ0BIXTNPQyg9TylbQ0BASF00W0NAXTcoW0NIM10pW0NAXShbQ0gzXSkoW0NAQEhdNVtPSF0pW0NASF04W0NAQF0oW09IXSkoT1tDSDJdNylbQ0BASF05W0NAQEhdKE85KVtDSDJdQzg9Tw==

>  <s_epik_cmdline>  (208) 
J2VwaWtfcHl0aG9uJywgJy1waHQnLCAnMi4wJywgJy1waCcsICc3LjAnLCAnLXRuJywgJzgnLCAnLW1hJywgJzIwMCcsICctaW1hZScsICc8aW5maWxlLm1hZT4nLCAnLW9tYWUnLCAnPG91dGZpbGUubWFlPic=

>  <r_lp_tautomer_probability>  (208) 
1

>  <r_epik_Ionization_Penalty>  (208) 
2.04467e-06

>  <r_epik_Ionization_Penalty_Charging>  (208) 
0

>  <r_epik_Ionization_Penalty_Neutral>  (208) 
2.04467e-06

>  <r_epik_State_Penalty>  (208) 
-0

>  <r_epik_Charging_Adjusted_Penalty>  (208) 
0

>  <i_epik_Tot_Q>  (208) 
0

>  <i_epik_Tot_abs_Q>  (208) 
0

>  <s_epik_Chemistry_Notes>  (208) 
This compound has an ester and may undergo hydrolysis at high or low pH.

>  <s_lp_Force_Field>  (208) 
OPLS3e

>  <r_lp_Energy>  (208) 
60.505

>  <b_lp_Chiralities_Consistent>  (208) 
1

>  <s_lp_Variant>  (208) 
63:0-1

>  <s_i_glide_gridfile>  (208) 
pfpi4k_grid

>  <i_i_glide_lignum>  (208) 
9

>  <i_i_glide_rotatable_bonds>  (208) 
3

>  <r_i_docking_score>  (208) 
-2.568

>  <r_i_glide_ligand_efficiency>  (208) 
-0.0658462

>  <r_i_glide_ligand_efficiency_sa>  (208) 
-0.223298

>  <r_i_glide_ligand_efficiency_ln>  (208) 
-0.550652

>  <r_i_glide_gscore>  (208) 
-2.568

>  <r_i_glide_lipo>  (208) 
-0.387519

>  <r_i_glide_hbond>  (208) 
-0.0834225

>  <r_i_glide_metal>  (208) 
-0

>  <r_i_glide_rewards>  (208) 
-0.0135067

>  <r_i_glide_evdw>  (208) 
-36.1553

>  <r_i_glide_ecoul>  (208) 
-1.55409

>  <r_i_glide_erotb>  (208) 
0

>  <r_i_glide_esite>  (208) 
-0.042676

>  <r_i_glide_emodel>  (208) 
-43.9576

>  <r_i_glide_energy>  (208) 
-37.7094

>  <r_i_glide_einternal>  (208) 
0.726373

>  <r_i_glide_intrahb_reward>  (208) 
-0

>  <i_i_glide_confnum>  (208) 
1

>  <i_i_glide_posenum>  (208) 
15

>  <r_i_glide_eff_state_penalty>  (208) 
0

>  <ligand_id>  (208) 
63

>  <original_smiles>  (208) 
CC1=C2CCC3C(C2CC1O)C1C(C2OC(=O)C4C32C(O)C2(C)C3C(=O)CC5OC5C3(O)OCC42C)C1(C)C

>  <smiles>  (208) 
[H]OC1([H])C(C([H])([H])[H])=C2C([H])([H])C([H])([H])C3([H])C([H])(C2([H])C1([H])[H])C1([H])C([H])(C2([H])OC(=O)C4([H])C23C([H])(O[H])C2(C([H])([H])[H])C3([H])C(=O)C([H])([H])C5([H])OC5([H])C3(O[H])OC([H])([H])C42C([H])([H])[H])C1(C([H])([H])[H])C([H])([H])[H]

$$$$
64:0:0
     RDKit          3D

 19 20  0  0  1  0  0  0  0  0999 V2000
   -9.5602   -3.4645   -5.7082 C   0  0  0  0  0  0  0  0  0  0  0  0
   -8.6972   -4.6593   -6.0497 C   0  0  0  0  0  0  0  0  0  0  0  0
   -8.9873   -5.4438   -7.1822 C   0  0  0  0  0  0  0  0  0  0  0  0
   -8.1830   -6.5569   -7.4891 C   0  0  0  0  0  0  0  0  0  0  0  0
   -7.0840   -6.9067   -6.6752 C   0  0  0  0  0  0  0  0  0  0  0  0
   -6.3215   -7.9795   -6.9960 N   0  0  0  0  0  0  0  0  0  0  0  0
   -5.2810   -8.2670   -6.1871 C   0  0  0  0  0  0  0  0  0  0  0  0
   -4.9852   -7.4811   -5.0586 C   0  0  0  0  0  0  0  0  0  0  0  0
   -5.7301   -6.4064   -4.7262 N   0  0  0  0  0  0  0  0  0  0  0  0
   -6.7858   -6.1086   -5.5230 C   0  0  0  0  0  0  0  0  0  0  0  0
   -7.6011   -4.9948   -5.2300 C   0  0  0  0  0  0  0  0  0  0  0  0
  -10.3702   -3.3293   -6.4270 H   0  0  0  0  0  0  0  0  0  0  0  0
   -8.9568   -2.5579   -5.7000 H   0  0  0  0  0  0  0  0  0  0  0  0
  -10.0007   -3.5915   -4.7209 H   0  0  0  0  0  0  0  0  0  0  0  0
   -9.8314   -5.2011   -7.8121 H   0  0  0  0  0  0  0  0  0  0  0  0
   -8.4177   -7.1524   -8.3593 H   0  0  0  0  0  0  0  0  0  0  0  0
   -4.6743   -9.1224   -6.4401 H   0  0  0  0  0  0  0  0  0  0  0  0
   -4.1513   -7.7246   -4.4175 H   0  0  0  0  0  0  0  0  0  0  0  0
   -7.3835   -4.3891   -4.3619 H   0  0  0  0  0  0  0  0  0  0  0  0
  1  2  1  0
  1 12  1  0
  1 13  1  0
  1 14  1  0
  2 11  2  0
  2  3  1  0
  3  4  2  0
  3 15  1  0
  4  5  1  0
  4 16  1  0
  5 10  2  0
  5  6  1  0
  6  7  2  0
  7  8  1  0
  7 17  1  0
  8  9  2  0
  8 18  1  0
  9 10  1  0
 10 11  1  0
 11 19  1  0
M  END
>  <i_m_ct_stereo_status>  (209) 
1

>  <s_m_source_file>  (209) 
/var/tmp/pbs.5076255.sched01/tmpc36l9o9d/84wsylf1cs.sdf

>  <i_m_source_file_index>  (209) 
10

>  <i_lp_mmshare_version>  (209) 
48012

>  <i_f3d_flags>  (209) 
0

>  <s_epik_input>  (209) 
W2NIXTFbY0hdYyhbQ0gzXSlbY0hdYyhjMTIpbltjSF1bY0hdbjI=

>  <s_epik_cmdline>  (209) 
J2VwaWtfcHl0aG9uJywgJy1waHQnLCAnMi4wJywgJy1waCcsICc3LjAnLCAnLXRuJywgJzgnLCAnLW1hJywgJzIwMCcsICctaW1hZScsICc8aW5maWxlLm1hZT4nLCAnLW9tYWUnLCAnPG91dGZpbGUubWFlPic=

>  <r_lp_tautomer_probability>  (209) 
1

>  <r_epik_Ionization_Penalty>  (209) 
3.4793e-06

>  <r_epik_Ionization_Penalty_Charging>  (209) 
0

>  <r_epik_Ionization_Penalty_Neutral>  (209) 
3.4793e-06

>  <r_epik_State_Penalty>  (209) 
-0

>  <r_epik_Charging_Adjusted_Penalty>  (209) 
0

>  <i_epik_Tot_Q>  (209) 
0

>  <i_epik_Tot_abs_Q>  (209) 
0

>  <s_lp_Force_Field>  (209) 
OPLS3e

>  <r_lp_Energy>  (209) 
19.7797

>  <b_lp_Chiralities_Consistent>  (209) 
1

>  <s_lp_Variant>  (209) 
64:0-1

>  <s_i_glide_gridfile>  (209) 
pfpi4k_grid

>  <i_i_glide_lignum>  (209) 
10

>  <i_i_glide_rotatable_bonds>  (209) 
0

>  <r_i_docking_score>  (209) 
-6.48509

>  <r_i_glide_ligand_efficiency>  (209) 
-0.589554

>  <r_i_glide_ligand_efficiency_sa>  (209) 
-1.31116

>  <r_i_glide_ligand_efficiency_ln>  (209) 
-1.90856

>  <r_i_glide_gscore>  (209) 
-6.48509

>  <r_i_glide_lipo>  (209) 
-2.47889

>  <r_i_glide_hbond>  (209) 
0

>  <r_i_glide_metal>  (209) 
-0

>  <r_i_glide_rewards>  (209) 
-2.80796

>  <r_i_glide_evdw>  (209) 
-22.3831

>  <r_i_glide_ecoul>  (209) 
-0.527236

>  <r_i_glide_erotb>  (209) 
0

>  <r_i_glide_esite>  (209) 
0

>  <r_i_glide_emodel>  (209) 
-32.0927

>  <r_i_glide_energy>  (209) 
-22.9104

>  <r_i_glide_einternal>  (209) 
0

>  <r_i_glide_intrahb_reward>  (209) 
-0

>  <i_i_glide_confnum>  (209) 
1

>  <i_i_glide_posenum>  (209) 
21

>  <r_i_glide_eff_state_penalty>  (209) 
0

>  <ligand_id>  (209) 
64

>  <original_smiles>  (209) 
Cc1ccc2nccnc2c1

>  <smiles>  (209) 
[H]c1nc2c([H])c([H])c(C([H])([H])[H])c([H])c2nc1[H]

$$$$
64:0:1
     RDKit          3D

 19 20  0  0  1  0  0  0  0  0999 V2000
   -6.6170   -4.7426   -4.1760 C   0  0  0  0  0  0  0  0  0  0  0  0
   -7.5642   -4.9312   -5.3418 C   0  0  0  0  0  0  0  0  0  0  0  0
   -8.6785   -4.0867   -5.5029 C   0  0  0  0  0  0  0  0  0  0  0  0
   -9.5532   -4.2695   -6.5878 C   0  0  0  0  0  0  0  0  0  0  0  0
   -9.3319   -5.2958   -7.5302 C   0  0  0  0  0  0  0  0  0  0  0  0
  -10.1851   -5.4529   -8.5700 N   0  0  0  0  0  0  0  0  0  0  0  0
   -9.9263   -6.4462   -9.4451 C   0  0  0  0  0  0  0  0  0  0  0  0
   -8.8094   -7.2885   -9.2930 C   0  0  0  0  0  0  0  0  0  0  0  0
   -7.9475   -7.1447   -8.2636 N   0  0  0  0  0  0  0  0  0  0  0  0
   -8.1967   -6.1534   -7.3739 C   0  0  0  0  0  0  0  0  0  0  0  0
   -7.3309   -5.9560   -6.2772 C   0  0  0  0  0  0  0  0  0  0  0  0
   -6.9267   -3.9148   -3.5369 H   0  0  0  0  0  0  0  0  0  0  0  0
   -5.6090   -4.5338   -4.5372 H   0  0  0  0  0  0  0  0  0  0  0  0
   -6.5853   -5.6470   -3.5676 H   0  0  0  0  0  0  0  0  0  0  0  0
   -8.8732   -3.3036   -4.7852 H   0  0  0  0  0  0  0  0  0  0  0  0
  -10.4075   -3.6151   -6.6879 H   0  0  0  0  0  0  0  0  0  0  0  0
  -10.6083   -6.5670  -10.2726 H   0  0  0  0  0  0  0  0  0  0  0  0
   -8.6085   -8.0777  -10.0010 H   0  0  0  0  0  0  0  0  0  0  0  0
   -6.4725   -6.5994   -6.1571 H   0  0  0  0  0  0  0  0  0  0  0  0
  1  2  1  0
  1 12  1  0
  1 13  1  0
  1 14  1  0
  2 11  2  0
  2  3  1  0
  3  4  2  0
  3 15  1  0
  4  5  1  0
  4 16  1  0
  5 10  2  0
  5  6  1  0
  6  7  2  0
  7  8  1  0
  7 17  1  0
  8  9  2  0
  8 18  1  0
  9 10  1  0
 10 11  1  0
 11 19  1  0
M  END
>  <i_m_ct_stereo_status>  (210) 
1

>  <s_m_source_file>  (210) 
/var/tmp/pbs.5076255.sched01/tmpc36l9o9d/84wsylf1cs.sdf

>  <i_m_source_file_index>  (210) 
10

>  <i_lp_mmshare_version>  (210) 
48012

>  <i_f3d_flags>  (210) 
0

>  <s_epik_input>  (210) 
W2NIXTFbY0hdYyhbQ0gzXSlbY0hdYyhjMTIpbltjSF1bY0hdbjI=

>  <s_epik_cmdline>  (210) 
J2VwaWtfcHl0aG9uJywgJy1waHQnLCAnMi4wJywgJy1waCcsICc3LjAnLCAnLXRuJywgJzgnLCAnLW1hJywgJzIwMCcsICctaW1hZScsICc8aW5maWxlLm1hZT4nLCAnLW9tYWUnLCAnPG91dGZpbGUubWFlPic=

>  <r_lp_tautomer_probability>  (210) 
1

>  <r_epik_Ionization_Penalty>  (210) 
3.4793e-06

>  <r_epik_Ionization_Penalty_Charging>  (210) 
0

>  <r_epik_Ionization_Penalty_Neutral>  (210) 
3.4793e-06

>  <r_epik_State_Penalty>  (210) 
-0

>  <r_epik_Charging_Adjusted_Penalty>  (210) 
0

>  <i_epik_Tot_Q>  (210) 
0

>  <i_epik_Tot_abs_Q>  (210) 
0

>  <s_lp_Force_Field>  (210) 
OPLS3e

>  <r_lp_Energy>  (210) 
19.7797

>  <b_lp_Chiralities_Consistent>  (210) 
1

>  <s_lp_Variant>  (210) 
64:0-1

>  <s_i_glide_gridfile>  (210) 
pfpi4k_grid

>  <i_i_glide_lignum>  (210) 
10

>  <i_i_glide_rotatable_bonds>  (210) 
0

>  <r_i_docking_score>  (210) 
-5.62677

>  <r_i_glide_ligand_efficiency>  (210) 
-0.511524

>  <r_i_glide_ligand_efficiency_sa>  (210) 
-1.13762

>  <r_i_glide_ligand_efficiency_ln>  (210) 
-1.65596

>  <r_i_glide_gscore>  (210) 
-5.62677

>  <r_i_glide_lipo>  (210) 
-2.00337

>  <r_i_glide_hbond>  (210) 
0

>  <r_i_glide_metal>  (210) 
-0

>  <r_i_glide_rewards>  (210) 
-2.56593

>  <r_i_glide_evdw>  (210) 
-19.6276

>  <r_i_glide_ecoul>  (210) 
-0.507255

>  <r_i_glide_erotb>  (210) 
0

>  <r_i_glide_esite>  (210) 
0

>  <r_i_glide_emodel>  (210) 
-28.102

>  <r_i_glide_energy>  (210) 
-20.1349

>  <r_i_glide_einternal>  (210) 
0

>  <r_i_glide_intrahb_reward>  (210) 
-0

>  <i_i_glide_confnum>  (210) 
2

>  <i_i_glide_posenum>  (210) 
24

>  <r_i_glide_eff_state_penalty>  (210) 
0

>  <ligand_id>  (210) 
64

>  <original_smiles>  (210) 
Cc1ccc2nccnc2c1

>  <smiles>  (210) 
[H]c1nc2c([H])c([H])c(C([H])([H])[H])c([H])c2nc1[H]

$$$$
64:0:2
     RDKit          3D

 19 20  0  0  1  0  0  0  0  0999 V2000
   -7.4541   -4.1492   -4.7187 C   0  0  0  0  0  0  0  0  0  0  0  0
   -7.0732   -5.4868   -5.3136 C   0  0  0  0  0  0  0  0  0  0  0  0
   -7.7857   -6.0094   -6.4067 C   0  0  0  0  0  0  0  0  0  0  0  0
   -7.4211   -7.2576   -6.9434 C   0  0  0  0  0  0  0  0  0  0  0  0
   -6.3503   -8.0008   -6.4090 C   0  0  0  0  0  0  0  0  0  0  0  0
   -6.0210   -9.2014   -6.9441 N   0  0  0  0  0  0  0  0  0  0  0  0
   -4.9914   -9.8708   -6.3846 C   0  0  0  0  0  0  0  0  0  0  0  0
   -4.2759   -9.3411   -5.2949 C   0  0  0  0  0  0  0  0  0  0  0  0
   -4.5849   -8.1423   -4.7608 N   0  0  0  0  0  0  0  0  0  0  0  0
   -5.6230   -7.4646   -5.3031 C   0  0  0  0  0  0  0  0  0  0  0  0
   -5.9986   -6.2150   -4.7709 C   0  0  0  0  0  0  0  0  0  0  0  0
   -8.2996   -3.7042   -5.2416 H   0  0  0  0  0  0  0  0  0  0  0  0
   -6.6123   -3.4579   -4.7776 H   0  0  0  0  0  0  0  0  0  0  0  0
   -7.7270   -4.2624   -3.6685 H   0  0  0  0  0  0  0  0  0  0  0  0
   -8.6182   -5.4642   -6.8289 H   0  0  0  0  0  0  0  0  0  0  0  0
   -7.9766   -7.6564   -7.7770 H   0  0  0  0  0  0  0  0  0  0  0  0
   -4.7291  -10.8238   -6.8190 H   0  0  0  0  0  0  0  0  0  0  0  0
   -3.4444   -9.8759   -4.8611 H   0  0  0  0  0  0  0  0  0  0  0  0
   -5.4569   -5.8171   -3.9277 H   0  0  0  0  0  0  0  0  0  0  0  0
  1  2  1  0
  1 12  1  0
  1 13  1  0
  1 14  1  0
  2 11  2  0
  2  3  1  0
  3  4  2  0
  3 15  1  0
  4  5  1  0
  4 16  1  0
  5 10  2  0
  5  6  1  0
  6  7  2  0
  7  8  1  0
  7 17  1  0
  8  9  2  0
  8 18  1  0
  9 10  1  0
 10 11  1  0
 11 19  1  0
M  END
>  <i_m_ct_stereo_status>  (211) 
1

>  <s_m_source_file>  (211) 
/var/tmp/pbs.5076255.sched01/tmpc36l9o9d/84wsylf1cs.sdf

>  <i_m_source_file_index>  (211) 
10

>  <i_lp_mmshare_version>  (211) 
48012

>  <i_f3d_flags>  (211) 
0

>  <s_epik_input>  (211) 
W2NIXTFbY0hdYyhbQ0gzXSlbY0hdYyhjMTIpbltjSF1bY0hdbjI=

>  <s_epik_cmdline>  (211) 
J2VwaWtfcHl0aG9uJywgJy1waHQnLCAnMi4wJywgJy1waCcsICc3LjAnLCAnLXRuJywgJzgnLCAnLW1hJywgJzIwMCcsICctaW1hZScsICc8aW5maWxlLm1hZT4nLCAnLW9tYWUnLCAnPG91dGZpbGUubWFlPic=

>  <r_lp_tautomer_probability>  (211) 
1

>  <r_epik_Ionization_Penalty>  (211) 
3.4793e-06

>  <r_epik_Ionization_Penalty_Charging>  (211) 
0

>  <r_epik_Ionization_Penalty_Neutral>  (211) 
3.4793e-06

>  <r_epik_State_Penalty>  (211) 
-0

>  <r_epik_Charging_Adjusted_Penalty>  (211) 
0

>  <i_epik_Tot_Q>  (211) 
0

>  <i_epik_Tot_abs_Q>  (211) 
0

>  <s_lp_Force_Field>  (211) 
OPLS3e

>  <r_lp_Energy>  (211) 
19.7797

>  <b_lp_Chiralities_Consistent>  (211) 
1

>  <s_lp_Variant>  (211) 
64:0-1

>  <s_i_glide_gridfile>  (211) 
pfpi4k_grid

>  <i_i_glide_lignum>  (211) 
10

>  <i_i_glide_rotatable_bonds>  (211) 
0

>  <r_i_docking_score>  (211) 
-5.60482

>  <r_i_glide_ligand_efficiency>  (211) 
-0.509529

>  <r_i_glide_ligand_efficiency_sa>  (211) 
-1.13318

>  <r_i_glide_ligand_efficiency_ln>  (211) 
-1.6495

>  <r_i_glide_gscore>  (211) 
-5.60482

>  <r_i_glide_lipo>  (211) 
-2.20999

>  <r_i_glide_hbond>  (211) 
0

>  <r_i_glide_metal>  (211) 
-0

>  <r_i_glide_rewards>  (211) 
-2.25

>  <r_i_glide_evdw>  (211) 
-21.2117

>  <r_i_glide_ecoul>  (211) 
-0.561586

>  <r_i_glide_erotb>  (211) 
0

>  <r_i_glide_esite>  (211) 
0

>  <r_i_glide_emodel>  (211) 
-29.7092

>  <r_i_glide_energy>  (211) 
-21.7733

>  <r_i_glide_einternal>  (211) 
0

>  <r_i_glide_intrahb_reward>  (211) 
-0

>  <i_i_glide_confnum>  (211) 
2

>  <i_i_glide_posenum>  (211) 
33

>  <r_i_glide_eff_state_penalty>  (211) 
0

>  <ligand_id>  (211) 
64

>  <original_smiles>  (211) 
Cc1ccc2nccnc2c1

>  <smiles>  (211) 
[H]c1nc2c([H])c([H])c(C([H])([H])[H])c([H])c2nc1[H]

$$$$
65:0:0
     RDKit          3D

 21 23  0  0  1  0  0  0  0  0999 V2000
    4.0343   -1.4645   -1.7551 C   0  0  0  0  0  0  0  0  0  0  0  0
    3.4665   -2.5792   -1.1122 C   0  0  0  0  0  0  0  0  0  0  0  0
    4.3271   -3.5875   -0.6109 C   0  0  0  0  0  0  0  0  0  0  0  0
    3.8174   -4.8019    0.0845 C   0  0  0  0  0  0  0  0  0  0  0  0
    4.7160   -5.8020    0.5750 C   0  0  0  0  0  0  0  0  0  0  0  0
    4.2327   -6.9141    1.2153 C   0  0  0  0  0  0  0  0  0  0  0  0
    2.8331   -7.0394    1.3690 C   0  0  0  0  0  0  0  0  0  0  0  0
    2.0208   -7.9373    1.9101 N   0  0  0  0  0  0  0  0  0  0  0  0
    0.7791   -7.4254    1.6726 C   0  0  0  0  0  0  0  0  0  0  0  0
    0.7367   -6.2609    1.0323 N   0  0  0  0  0  0  0  0  0  0  0  0
    2.0629   -5.9939    0.8346 N   0  0  0  0  0  0  0  0  0  0  0  0
    2.4852   -4.8684    0.2052 N   0  0  0  0  0  0  0  0  0  0  0  0
    5.7078   -3.3455   -0.8259 C   0  0  0  0  0  0  0  0  0  0  0  0
    6.1995   -2.2546   -1.4574 N   0  0  0  0  0  0  0  0  0  0  0  0
    5.3673   -1.3191   -1.9197 N   0  0  0  0  0  0  0  0  0  0  0  0
    3.4118   -0.6750   -2.1484 H   0  0  0  0  0  0  0  0  0  0  0  0
    2.3928   -2.6414   -1.0125 H   0  0  0  0  0  0  0  0  0  0  0  0
    5.7893   -5.7203    0.4638 H   0  0  0  0  0  0  0  0  0  0  0  0
    4.8895   -7.6873    1.5948 H   0  0  0  0  0  0  0  0  0  0  0  0
   -0.1202   -7.9314    1.9965 H   0  0  0  0  0  0  0  0  0  0  0  0
    6.4786   -4.0218   -0.4957 H   0  0  0  0  0  0  0  0  0  0  0  0
  1 15  2  0
  1  2  1  0
  1 16  1  0
  2  3  2  0
  2 17  1  0
  3  4  1  0
  3 13  1  0
  4 12  2  0
  4  5  1  0
  5  6  2  0
  5 18  1  0
  6  7  1  0
  6 19  1  0
  7 11  1  0
  7  8  2  0
  8  9  1  0
  9 10  2  0
  9 20  1  0
 10 11  1  0
 11 12  1  0
 13 14  2  0
 13 21  1  0
 14 15  1  0
M  END
>  <i_m_ct_stereo_status>  (212) 
1

>  <s_m_source_file>  (212) 
/var/tmp/pbs.5076255.sched01/tmpc36l9o9d/84wsylf1cs.sdf

>  <i_m_source_file_index>  (212) 
11

>  <i_lp_mmshare_version>  (212) 
48012

>  <i_f3d_flags>  (212) 
0

>  <s_epik_input>  (212) 
W2NIXTFubltjSF1bY0hdYzEtYyhbY0hdW2NIXTIpbm4oYzIzKW5bY0hdbjM=

>  <s_epik_cmdline>  (212) 
J2VwaWtfcHl0aG9uJywgJy1waHQnLCAnMi4wJywgJy1waCcsICc3LjAnLCAnLXRuJywgJzgnLCAnLW1hJywgJzIwMCcsICctaW1hZScsICc8aW5maWxlLm1hZT4nLCAnLW9tYWUnLCAnPG91dGZpbGUubWFlPic=

>  <r_lp_tautomer_probability>  (212) 
1

>  <r_epik_Ionization_Penalty>  (212) 
0.000100265

>  <r_epik_Ionization_Penalty_Charging>  (212) 
0

>  <r_epik_Ionization_Penalty_Neutral>  (212) 
0.000100265

>  <r_epik_State_Penalty>  (212) 
-0

>  <r_epik_Charging_Adjusted_Penalty>  (212) 
0

>  <i_epik_Tot_Q>  (212) 
0

>  <i_epik_Tot_abs_Q>  (212) 
0

>  <s_lp_Force_Field>  (212) 
OPLS3e

>  <r_lp_Energy>  (212) 
28.9818

>  <b_lp_Chiralities_Consistent>  (212) 
1

>  <s_lp_Variant>  (212) 
65:0-1

>  <s_i_glide_gridfile>  (212) 
pfpi4k_grid

>  <i_i_glide_lignum>  (212) 
11

>  <i_i_glide_rotatable_bonds>  (212) 
1

>  <r_i_docking_score>  (212) 
-4.20537

>  <r_i_glide_ligand_efficiency>  (212) 
-0.280358

>  <r_i_glide_ligand_efficiency_sa>  (212) 
-0.691423

>  <r_i_glide_ligand_efficiency_ln>  (212) 
-1.13412

>  <r_i_glide_gscore>  (212) 
-4.20537

>  <r_i_glide_lipo>  (212) 
-0.305441

>  <r_i_glide_hbond>  (212) 
-0.16

>  <r_i_glide_metal>  (212) 
-0

>  <r_i_glide_rewards>  (212) 
-2.09673

>  <r_i_glide_evdw>  (212) 
-19.8897

>  <r_i_glide_ecoul>  (212) 
-5.72096

>  <r_i_glide_erotb>  (212) 
0.414584

>  <r_i_glide_esite>  (212) 
-0.205154

>  <r_i_glide_emodel>  (212) 
-33.2831

>  <r_i_glide_energy>  (212) 
-25.6107

>  <r_i_glide_einternal>  (212) 
0.257846

>  <r_i_glide_intrahb_reward>  (212) 
-0

>  <i_i_glide_confnum>  (212) 
1

>  <i_i_glide_posenum>  (212) 
12

>  <r_i_glide_eff_state_penalty>  (212) 
0

>  <ligand_id>  (212) 
65

>  <original_smiles>  (212) 
c1cc(-c2ccc3ncnn3n2)cnn1

>  <smiles>  (212) 
[H]c1nc2c([H])c([H])c(-c3c([H])nnc([H])c3[H])nn2n1

$$$$
65:0:1
     RDKit          3D

 21 23  0  0  1  0  0  0  0  0999 V2000
    3.1858   -1.7021   -3.1849 C   0  0  0  0  0  0  0  0  0  0  0  0
    2.9334   -2.8307   -2.3826 C   0  0  0  0  0  0  0  0  0  0  0  0
    3.7786   -3.0664   -1.2734 C   0  0  0  0  0  0  0  0  0  0  0  0
    3.6032   -4.2259   -0.3652 C   0  0  0  0  0  0  0  0  0  0  0  0
    4.7344   -4.8579    0.2377 C   0  0  0  0  0  0  0  0  0  0  0  0
    4.5518   -5.9440    1.0641 C   0  0  0  0  0  0  0  0  0  0  0  0
    3.2276   -6.4046    1.2747 C   0  0  0  0  0  0  0  0  0  0  0  0
    2.6668   -7.3786    1.9846 N   0  0  0  0  0  0  0  0  0  0  0  0
    1.3390   -7.2492    1.7076 C   0  0  0  0  0  0  0  0  0  0  0  0
    1.0018   -6.2550    0.8924 N   0  0  0  0  0  0  0  0  0  0  0  0
    2.2152   -5.6984    0.6052 N   0  0  0  0  0  0  0  0  0  0  0  0
    2.3336   -4.6114   -0.1982 N   0  0  0  0  0  0  0  0  0  0  0  0
    4.8236   -2.1315   -1.0995 C   0  0  0  0  0  0  0  0  0  0  0  0
    5.0257   -1.0712   -1.9145 N   0  0  0  0  0  0  0  0  0  0  0  0
    4.2126   -0.8555   -2.9519 N   0  0  0  0  0  0  0  0  0  0  0  0
    2.5658   -1.4728   -4.0385 H   0  0  0  0  0  0  0  0  0  0  0  0
    2.1088   -3.4888   -2.6173 H   0  0  0  0  0  0  0  0  0  0  0  0
    5.7424   -4.5039    0.0455 H   0  0  0  0  0  0  0  0  0  0  0  0
    5.3834   -6.4468    1.5469 H   0  0  0  0  0  0  0  0  0  0  0  0
    0.5948   -7.8989    2.1448 H   0  0  0  0  0  0  0  0  0  0  0  0
    5.5365   -2.2240   -0.2939 H   0  0  0  0  0  0  0  0  0  0  0  0
  1 15  2  0
  1  2  1  0
  1 16  1  0
  2  3  2  0
  2 17  1  0
  3  4  1  0
  3 13  1  0
  4 12  2  0
  4  5  1  0
  5  6  2  0
  5 18  1  0
  6  7  1  0
  6 19  1  0
  7 11  1  0
  7  8  2  0
  8  9  1  0
  9 10  2  0
  9 20  1  0
 10 11  1  0
 11 12  1  0
 13 14  2  0
 13 21  1  0
 14 15  1  0
M  END
>  <i_m_ct_stereo_status>  (213) 
1

>  <s_m_source_file>  (213) 
/var/tmp/pbs.5076255.sched01/tmpc36l9o9d/84wsylf1cs.sdf

>  <i_m_source_file_index>  (213) 
11

>  <i_lp_mmshare_version>  (213) 
48012

>  <i_f3d_flags>  (213) 
0

>  <s_epik_input>  (213) 
W2NIXTFubltjSF1bY0hdYzEtYyhbY0hdW2NIXTIpbm4oYzIzKW5bY0hdbjM=

>  <s_epik_cmdline>  (213) 
J2VwaWtfcHl0aG9uJywgJy1waHQnLCAnMi4wJywgJy1waCcsICc3LjAnLCAnLXRuJywgJzgnLCAnLW1hJywgJzIwMCcsICctaW1hZScsICc8aW5maWxlLm1hZT4nLCAnLW9tYWUnLCAnPG91dGZpbGUubWFlPic=

>  <r_lp_tautomer_probability>  (213) 
1

>  <r_epik_Ionization_Penalty>  (213) 
0.000100265

>  <r_epik_Ionization_Penalty_Charging>  (213) 
0

>  <r_epik_Ionization_Penalty_Neutral>  (213) 
0.000100265

>  <r_epik_State_Penalty>  (213) 
-0

>  <r_epik_Charging_Adjusted_Penalty>  (213) 
0

>  <i_epik_Tot_Q>  (213) 
0

>  <i_epik_Tot_abs_Q>  (213) 
0

>  <s_lp_Force_Field>  (213) 
OPLS3e

>  <r_lp_Energy>  (213) 
28.9818

>  <b_lp_Chiralities_Consistent>  (213) 
1

>  <s_lp_Variant>  (213) 
65:0-1

>  <s_i_glide_gridfile>  (213) 
pfpi4k_grid

>  <i_i_glide_lignum>  (213) 
11

>  <i_i_glide_rotatable_bonds>  (213) 
1

>  <r_i_docking_score>  (213) 
-3.94533

>  <r_i_glide_ligand_efficiency>  (213) 
-0.263022

>  <r_i_glide_ligand_efficiency_sa>  (213) 
-0.648668

>  <r_i_glide_ligand_efficiency_ln>  (213) 
-1.06399

>  <r_i_glide_gscore>  (213) 
-3.94533

>  <r_i_glide_lipo>  (213) 
-0.174497

>  <r_i_glide_hbond>  (213) 
-0.16

>  <r_i_glide_metal>  (213) 
-0

>  <r_i_glide_rewards>  (213) 
-2.12175

>  <r_i_glide_evdw>  (213) 
-22.0942

>  <r_i_glide_ecoul>  (213) 
-4.41592

>  <r_i_glide_erotb>  (213) 
0.414584

>  <r_i_glide_esite>  (213) 
-0.136565

>  <r_i_glide_emodel>  (213) 
-33.7753

>  <r_i_glide_energy>  (213) 
-26.5101

>  <r_i_glide_einternal>  (213) 
0.102506

>  <r_i_glide_intrahb_reward>  (213) 
-0

>  <i_i_glide_confnum>  (213) 
1

>  <i_i_glide_posenum>  (213) 
24

>  <r_i_glide_eff_state_penalty>  (213) 
0

>  <ligand_id>  (213) 
65

>  <original_smiles>  (213) 
c1cc(-c2ccc3ncnn3n2)cnn1

>  <smiles>  (213) 
[H]c1nc2c([H])c([H])c(-c3c([H])nnc([H])c3[H])nn2n1

$$$$
65:0:2
     RDKit          3D

 21 23  0  0  1  0  0  0  0  0999 V2000
    1.1226   -4.5263    8.7994 C   0  0  0  0  0  0  0  0  0  0  0  0
    1.1900   -5.5666    7.8530 C   0  0  0  0  0  0  0  0  0  0  0  0
    0.0980   -5.7442    6.9749 C   0  0  0  0  0  0  0  0  0  0  0  0
    0.0827   -6.8172    5.9503 C   0  0  0  0  0  0  0  0  0  0  0  0
    0.7995   -8.0321    6.1523 C   0  0  0  0  0  0  0  0  0  0  0  0
    0.7525   -9.0243    5.1998 C   0  0  0  0  0  0  0  0  0  0  0  0
   -0.0187   -8.7949    4.0345 C   0  0  0  0  0  0  0  0  0  0  0  0
   -0.2775   -9.4742    2.9251 N   0  0  0  0  0  0  0  0  0  0  0  0
   -1.1138   -8.6414    2.2468 C   0  0  0  0  0  0  0  0  0  0  0  0
   -1.3800   -7.4679    2.8118 N   0  0  0  0  0  0  0  0  0  0  0  0
   -0.6841   -7.5596    3.9758 N   0  0  0  0  0  0  0  0  0  0  0  0
   -0.6706   -6.5461    4.8801 N   0  0  0  0  0  0  0  0  0  0  0  0
   -0.9823   -4.8438    7.1586 C   0  0  0  0  0  0  0  0  0  0  0  0
   -0.9878   -3.8606    8.0880 N   0  0  0  0  0  0  0  0  0  0  0  0
    0.0586   -3.6998    8.9018 N   0  0  0  0  0  0  0  0  0  0  0  0
    1.9411   -4.3437    9.4782 H   0  0  0  0  0  0  0  0  0  0  0  0
    2.0668   -6.1933    7.8087 H   0  0  0  0  0  0  0  0  0  0  0  0
    1.3712   -8.2050    7.0563 H   0  0  0  0  0  0  0  0  0  0  0  0
    1.2841   -9.9638    5.3229 H   0  0  0  0  0  0  0  0  0  0  0  0
   -1.5202   -8.9117    1.2832 H   0  0  0  0  0  0  0  0  0  0  0  0
   -1.8779   -4.9038    6.5598 H   0  0  0  0  0  0  0  0  0  0  0  0
  1 15  2  0
  1  2  1  0
  1 16  1  0
  2  3  2  0
  2 17  1  0
  3  4  1  0
  3 13  1  0
  4 12  2  0
  4  5  1  0
  5  6  2  0
  5 18  1  0
  6  7  1  0
  6 19  1  0
  7 11  1  0
  7  8  2  0
  8  9  1  0
  9 10  2  0
  9 20  1  0
 10 11  1  0
 11 12  1  0
 13 14  2  0
 13 21  1  0
 14 15  1  0
M  END
>  <i_m_ct_stereo_status>  (214) 
1

>  <s_m_source_file>  (214) 
/var/tmp/pbs.5076255.sched01/tmpc36l9o9d/84wsylf1cs.sdf

>  <i_m_source_file_index>  (214) 
11

>  <i_lp_mmshare_version>  (214) 
48012

>  <i_f3d_flags>  (214) 
0

>  <s_epik_input>  (214) 
W2NIXTFubltjSF1bY0hdYzEtYyhbY0hdW2NIXTIpbm4oYzIzKW5bY0hdbjM=

>  <s_epik_cmdline>  (214) 
J2VwaWtfcHl0aG9uJywgJy1waHQnLCAnMi4wJywgJy1waCcsICc3LjAnLCAnLXRuJywgJzgnLCAnLW1hJywgJzIwMCcsICctaW1hZScsICc8aW5maWxlLm1hZT4nLCAnLW9tYWUnLCAnPG91dGZpbGUubWFlPic=

>  <r_lp_tautomer_probability>  (214) 
1

>  <r_epik_Ionization_Penalty>  (214) 
0.000100265

>  <r_epik_Ionization_Penalty_Charging>  (214) 
0

>  <r_epik_Ionization_Penalty_Neutral>  (214) 
0.000100265

>  <r_epik_State_Penalty>  (214) 
-0

>  <r_epik_Charging_Adjusted_Penalty>  (214) 
0

>  <i_epik_Tot_Q>  (214) 
0

>  <i_epik_Tot_abs_Q>  (214) 
0

>  <s_lp_Force_Field>  (214) 
OPLS3e

>  <r_lp_Energy>  (214) 
28.9818

>  <b_lp_Chiralities_Consistent>  (214) 
1

>  <s_lp_Variant>  (214) 
65:0-1

>  <s_i_glide_gridfile>  (214) 
pfpi4k_grid

>  <i_i_glide_lignum>  (214) 
11

>  <i_i_glide_rotatable_bonds>  (214) 
1

>  <r_i_docking_score>  (214) 
-3.35258

>  <r_i_glide_ligand_efficiency>  (214) 
-0.223505

>  <r_i_glide_ligand_efficiency_sa>  (214) 
-0.551211

>  <r_i_glide_ligand_efficiency_ln>  (214) 
-0.904135

>  <r_i_glide_gscore>  (214) 
-3.35258

>  <r_i_glide_lipo>  (214) 
-0.031509

>  <r_i_glide_hbond>  (214) 
-0.0483701

>  <r_i_glide_metal>  (214) 
-0

>  <r_i_glide_rewards>  (214) 
-2.05789

>  <r_i_glide_evdw>  (214) 
-17.6486

>  <r_i_glide_ecoul>  (214) 
-3.76497

>  <r_i_glide_erotb>  (214) 
0.414584

>  <r_i_glide_esite>  (214) 
-0.182215

>  <r_i_glide_emodel>  (214) 
-27.6018

>  <r_i_glide_energy>  (214) 
-21.4136

>  <r_i_glide_einternal>  (214) 
0.0667391

>  <r_i_glide_intrahb_reward>  (214) 
-0

>  <i_i_glide_confnum>  (214) 
4

>  <i_i_glide_posenum>  (214) 
9

>  <r_i_glide_eff_state_penalty>  (214) 
0

>  <ligand_id>  (214) 
65

>  <original_smiles>  (214) 
c1cc(-c2ccc3ncnn3n2)cnn1

>  <smiles>  (214) 
[H]c1nc2c([H])c([H])c(-c3c([H])nnc([H])c3[H])nn2n1

$$$$
66:0:0
     RDKit          3D

 56 61  0  0  1  0  0  0  0  0999 V2000
    5.9046   -0.6767    0.9663 C   0  0  0  0  0  0  0  0  0  0  0  0
    5.0979   -1.9900    0.8136 C   0  0  1  0  0  0  0  0  0  0  0  0
    3.8101   -1.7199   -0.0313 C   0  0  1  0  0  0  0  0  0  0  0  0
    3.0190   -0.6772    0.4974 O   0  0  0  0  0  0  0  0  0  0  0  0
    4.1101   -1.3655   -1.5020 C   0  0  0  0  0  0  0  0  0  0  0  0
    4.8768   -2.4890   -2.2058 C   0  0  0  0  0  0  0  0  0  0  0  0
    6.1474   -2.8865   -1.4371 C   0  0  0  0  0  0  0  0  0  0  0  0
    5.9647   -3.0546    0.0941 C   0  0  2  0  0  0  0  0  0  0  0  0
    5.5947   -4.4506    0.6550 C   0  0  2  0  0  0  0  0  0  0  0  0
    4.5958   -5.3427   -0.1320 C   0  0  0  0  0  0  0  0  0  0  0  0
    3.2349   -5.5768    0.4908 C   0  0  2  0  0  0  0  0  0  0  0  0
    2.5832   -4.4585    1.0978 O   0  0  0  0  0  0  0  0  0  0  0  0
    3.0596   -5.4739    1.9697 C   0  0  1  0  0  0  0  0  0  0  0  0
    1.9464   -6.2137    2.6592 C   0  0  0  0  0  0  0  0  0  0  0  0
    1.3178   -7.1220    2.1193 O   0  0  0  0  0  0  0  0  0  0  0  0
    1.5638   -5.7148    4.0481 C   0  0  0  0  0  0  0  0  0  0  0  0
    2.8070   -5.5376    4.9293 C   0  0  0  0  0  0  0  0  0  0  0  0
    3.8903   -4.6539    4.2644 C   0  0  2  0  0  0  0  0  0  0  0  0
    3.5376   -3.1397    4.3587 C   0  0  1  0  0  0  0  0  0  0  0  0
    4.4051   -2.5502    5.3077 O   0  0  0  0  0  0  0  0  0  0  0  0
    3.6122   -2.3562    3.0304 C   0  0  1  0  0  0  0  0  0  0  0  0
    3.4983   -0.9769    3.2987 O   0  0  0  0  0  0  0  0  0  0  0  0
    4.9025   -2.6536    2.2294 C   0  0  1  0  0  0  0  0  0  0  0  0
    5.2449   -4.1682    2.1348 C   0  0  1  0  0  0  0  0  0  0  0  0
    4.2792   -5.1827    2.8413 C   0  0  2  0  0  0  0  0  0  0  0  0
    5.0636   -6.5149    3.0164 C   0  0  0  0  0  0  0  0  0  0  0  0
    5.3349    0.0866    1.4948 H   0  0  0  0  0  0  0  0  0  0  0  0
    6.2008   -0.2554    0.0100 H   0  0  0  0  0  0  0  0  0  0  0  0
    6.8244   -0.8326    1.5295 H   0  0  0  0  0  0  0  0  0  0  0  0
    3.1920   -2.6036   -0.0602 H   0  0  0  0  0  0  0  0  0  0  0  0
    2.1671   -0.6728    0.0422 H   0  0  0  0  0  0  0  0  0  0  0  0
    3.1737   -1.2018   -2.0372 H   0  0  0  0  0  0  0  0  0  0  0  0
    4.6661   -0.4312   -1.5828 H   0  0  0  0  0  0  0  0  0  0  0  0
    4.2140   -3.3384   -2.3441 H   0  0  0  0  0  0  0  0  0  0  0  0
    5.1481   -2.1777   -3.2154 H   0  0  0  0  0  0  0  0  0  0  0  0
    6.5715   -3.7908   -1.8669 H   0  0  0  0  0  0  0  0  0  0  0  0
    6.8936   -2.1114   -1.6092 H   0  0  0  0  0  0  0  0  0  0  0  0
    6.9728   -2.9233    0.4839 H   0  0  0  0  0  0  0  0  0  0  0  0
    6.5212   -5.0287    0.6510 H   0  0  0  0  0  0  0  0  0  0  0  0
    4.4718   -5.0183   -1.1547 H   0  0  0  0  0  0  0  0  0  0  0  0
    5.0389   -6.3347   -0.2260 H   0  0  0  0  0  0  0  0  0  0  0  0
    2.5635   -6.2207   -0.0705 H   0  0  0  0  0  0  0  0  0  0  0  0
    1.0471   -4.7608    3.9297 H   0  0  0  0  0  0  0  0  0  0  0  0
    0.8595   -6.4093    4.5054 H   0  0  0  0  0  0  0  0  0  0  0  0
    2.5206   -5.1259    5.8962 H   0  0  0  0  0  0  0  0  0  0  0  0
    3.2153   -6.5232    5.1473 H   0  0  0  0  0  0  0  0  0  0  0  0
    4.7875   -4.7901    4.8760 H   0  0  0  0  0  0  0  0  0  0  0  0
    2.5305   -3.0188    4.7591 H   0  0  0  0  0  0  0  0  0  0  0  0
    4.1498   -1.6406    5.3844 H   0  0  0  0  0  0  0  0  0  0  0  0
    2.7339   -2.6078    2.4491 H   0  0  0  0  0  0  0  0  0  0  0  0
    3.3640   -0.5566    2.4526 H   0  0  0  0  0  0  0  0  0  0  0  0
    5.6945   -2.2483    2.8640 H   0  0  0  0  0  0  0  0  0  0  0  0
    6.1918   -4.2593    2.6728 H   0  0  0  0  0  0  0  0  0  0  0  0
    5.9407   -6.3873    3.6615 H   0  0  0  0  0  0  0  0  0  0  0  0
    5.4206   -6.8989    2.0583 H   0  0  0  0  0  0  0  0  0  0  0  0
    4.4515   -7.3080    3.4531 H   0  0  0  0  0  0  0  0  0  0  0  0
  2  1  1  1
  1 27  1  0
  1 28  1  0
  1 29  1  0
  2  8  1  0
  2 23  1  0
  2  3  1  0
  3  4  1  0
  3  5  1  0
  3 30  1  6
  4 31  1  0
  5  6  1  0
  5 32  1  0
  5 33  1  0
  6  7  1  0
  6 34  1  0
  6 35  1  0
  7  8  1  0
  7 36  1  0
  7 37  1  0
  8  9  1  0
  8 38  1  1
  9 24  1  0
  9 10  1  0
  9 39  1  1
 10 11  1  0
 10 40  1  0
 10 41  1  0
 11 13  1  0
 11 12  1  0
 11 42  1  6
 13 12  1  6
 13 25  1  0
 13 14  1  0
 14 15  2  0
 14 16  1  0
 16 17  1  0
 16 43  1  0
 16 44  1  0
 17 18  1  0
 17 45  1  0
 17 46  1  0
 18 25  1  0
 18 19  1  0
 18 47  1  1
 19 20  1  0
 19 21  1  0
 19 48  1  1
 20 49  1  0
 21 22  1  0
 21 23  1  0
 21 50  1  6
 22 51  1  0
 23 24  1  0
 23 52  1  1
 24 25  1  0
 24 53  1  1
 25 26  1  1
 26 54  1  0
 26 55  1  0
 26 56  1  0
M  END
>  <i_m_ct_stereo_status>  (215) 
1

>  <s_m_source_file>  (215) 
/var/tmp/pbs.5076255.sched01/tmpc36l9o9d/84wsylf1cs.sdf

>  <i_m_source_file_index>  (215) 
12

>  <i_lp_mmshare_version>  (215) 
48012

>  <i_f3d_flags>  (215) 
0

>  <s_epik_input>  (215) 
TzFbQ0BIXShbQ0BAXTEyMylbQ0gyXVtDQEhdNFtDQEBIXTVbQ0BAXShbQ0gzXSkoW0NAQEhdKFtPSF0pW0NIMl1bQ0gyXVtDSDJdNSlbQ0BASF02W0NASF00W0NAQF0zKFtDSDNdKVtDQEhdKFtDSDJdW0NIMl1DMj1PKVtDQEBIXShbT0hdKVtDQEhdNltPSF0=

>  <s_epik_cmdline>  (215) 
J2VwaWtfcHl0aG9uJywgJy1waHQnLCAnMi4wJywgJy1waCcsICc3LjAnLCAnLXRuJywgJzgnLCAnLW1hJywgJzIwMCcsICctaW1hZScsICc8aW5maWxlLm1hZT4nLCAnLW9tYWUnLCAnPG91dGZpbGUubWFlPic=

>  <r_lp_tautomer_probability>  (215) 
1

>  <r_epik_Ionization_Penalty>  (215) 
1.88348e-06

>  <r_epik_Ionization_Penalty_Charging>  (215) 
0

>  <r_epik_Ionization_Penalty_Neutral>  (215) 
1.88348e-06

>  <r_epik_State_Penalty>  (215) 
-0

>  <r_epik_Charging_Adjusted_Penalty>  (215) 
0

>  <i_epik_Tot_Q>  (215) 
0

>  <i_epik_Tot_abs_Q>  (215) 
0

>  <s_lp_Force_Field>  (215) 
OPLS3e

>  <r_lp_Energy>  (215) 
62.9994

>  <b_lp_Chiralities_Consistent>  (215) 
1

>  <s_lp_Variant>  (215) 
66:0-1

>  <s_i_glide_gridfile>  (215) 
pfpi4k_grid

>  <i_i_glide_lignum>  (215) 
12

>  <i_i_glide_rotatable_bonds>  (215) 
3

>  <r_i_docking_score>  (215) 
-3.77884

>  <r_i_glide_ligand_efficiency>  (215) 
-0.14534

>  <r_i_glide_ligand_efficiency_sa>  (215) 
-0.430569

>  <r_i_glide_ligand_efficiency_ln>  (215) 
-0.887448

>  <r_i_glide_gscore>  (215) 
-3.77884

>  <r_i_glide_lipo>  (215) 
-0.436567

>  <r_i_glide_hbond>  (215) 
0

>  <r_i_glide_metal>  (215) 
-0

>  <r_i_glide_rewards>  (215) 
-1.43777

>  <r_i_glide_evdw>  (215) 
-24.2856

>  <r_i_glide_ecoul>  (215) 
-4.5024

>  <r_i_glide_erotb>  (215) 
0

>  <r_i_glide_esite>  (215) 
-0.0148573

>  <r_i_glide_emodel>  (215) 
-40.3648

>  <r_i_glide_energy>  (215) 
-28.788

>  <r_i_glide_einternal>  (215) 
1.06809

>  <r_i_glide_intrahb_reward>  (215) 
-0.5

>  <i_i_glide_confnum>  (215) 
2

>  <i_i_glide_posenum>  (215) 
1

>  <r_i_glide_eff_state_penalty>  (215) 
0

>  <ligand_id>  (215) 
66

>  <original_smiles>  (215) 
CC12C(O)CCCC1C1CC3OC34C(=O)CCC3C(O)C(O)C2C1C34C

>  <smiles>  (215) 
[H]OC1([H])C([H])(O[H])C2([H])C([H])([H])C([H])([H])C(=O)C34OC3([H])C([H])([H])C3([H])C5([H])C([H])([H])C([H])([H])C([H])([H])C([H])(O[H])C5(C([H])([H])[H])C1([H])C3([H])C42C([H])([H])[H]

$$$$
66:0:1
     RDKit          3D

 56 61  0  0  1  0  0  0  0  0999 V2000
    5.9437   -0.6681    0.7333 C   0  0  0  0  0  0  0  0  0  0  0  0
    5.1290   -1.9859    0.6747 C   0  0  1  0  0  0  0  0  0  0  0  0
    3.7724   -1.7315   -0.0686 C   0  0  1  0  0  0  0  0  0  0  0  0
    3.0165   -0.6796    0.4977 O   0  0  0  0  0  0  0  0  0  0  0  0
    3.9510   -1.4153   -1.5673 C   0  0  0  0  0  0  0  0  0  0  0  0
    4.6593   -2.5515   -2.3067 C   0  0  0  0  0  0  0  0  0  0  0  0
    5.9893   -2.9306   -1.6363 C   0  0  0  0  0  0  0  0  0  0  0  0
    5.9350   -3.0657   -0.0911 C   0  0  2  0  0  0  0  0  0  0  0  0
    5.6141   -4.4487    0.5303 C   0  0  2  0  0  0  0  0  0  0  0  0
    4.5575   -5.3559   -0.1523 C   0  0  0  0  0  0  0  0  0  0  0  0
    3.2476   -5.5755    0.5761 C   0  0  2  0  0  0  0  0  0  0  0  0
    2.6357   -4.4487    1.2176 O   0  0  0  0  0  0  0  0  0  0  0  0
    3.1980   -5.4488    2.0651 C   0  0  1  0  0  0  0  0  0  0  0  0
    2.1511   -6.1763    2.8609 C   0  0  0  0  0  0  0  0  0  0  0  0
    1.4905   -7.1055    2.4011 O   0  0  0  0  0  0  0  0  0  0  0  0
    1.8797   -5.6477    4.2669 C   0  0  0  0  0  0  0  0  0  0  0  0
    3.1914   -5.4508    5.0373 C   0  0  0  0  0  0  0  0  0  0  0  0
    4.2131   -4.5787    4.2687 C   0  0  2  0  0  0  0  0  0  0  0  0
    3.8778   -3.0591    4.3689 C   0  0  1  0  0  0  0  0  0  0  0  0
    4.8089   -2.4704    5.2651 O   0  0  0  0  0  0  0  0  0  0  0  0
    3.8340   -2.3035    3.0181 C   0  0  1  0  0  0  0  0  0  0  0  0
    3.7384   -0.9144    3.2384 O   0  0  0  0  0  0  0  0  0  0  0  0
    5.0480   -2.6202    2.1149 C   0  0  1  0  0  0  0  0  0  0  0  0
    5.3850   -4.1364    2.0257 C   0  0  1  0  0  0  0  0  0  0  0  0
    4.4851   -5.1358    2.8271 C   0  0  2  0  0  0  0  0  0  0  0  0
    5.2845   -6.4640    2.9675 C   0  0  0  0  0  0  0  0  0  0  0  0
    5.4179    0.1068    1.2887 H   0  0  0  0  0  0  0  0  0  0  0  0
    6.1546   -0.2649   -0.2535 H   0  0  0  0  0  0  0  0  0  0  0  0
    6.9078   -0.8087    1.2228 H   0  0  0  0  0  0  0  0  0  0  0  0
    3.1547   -2.6171   -0.0230 H   0  0  0  0  0  0  0  0  0  0  0  0
    2.1505   -0.6612    0.0593 H   0  0  0  0  0  0  0  0  0  0  0  0
    2.9734   -1.2641   -2.0267 H   0  0  0  0  0  0  0  0  0  0  0  0
    4.4937   -0.4810   -1.7136 H   0  0  0  0  0  0  0  0  0  0  0  0
    3.9867   -3.4024   -2.3762 H   0  0  0  0  0  0  0  0  0  0  0  0
    4.8476   -2.2564   -3.3393 H   0  0  0  0  0  0  0  0  0  0  0  0
    6.3792   -3.8437   -2.0818 H   0  0  0  0  0  0  0  0  0  0  0  0
    6.7149   -2.1556   -1.8860 H   0  0  0  0  0  0  0  0  0  0  0  0
    6.9721   -2.9216    0.2097 H   0  0  0  0  0  0  0  0  0  0  0  0
    6.5367   -5.0259    0.4619 H   0  0  0  0  0  0  0  0  0  0  0  0
    4.3513   -5.0404   -1.1637 H   0  0  0  0  0  0  0  0  0  0  0  0
    4.9931   -6.3519   -0.2605 H   0  0  0  0  0  0  0  0  0  0  0  0
    2.5392   -6.2325    0.0819 H   0  0  0  0  0  0  0  0  0  0  0  0
    1.3528   -4.6971    4.1726 H   0  0  0  0  0  0  0  0  0  0  0  0
    1.2154   -6.3298    4.7973 H   0  0  0  0  0  0  0  0  0  0  0  0
    2.9863   -5.0198    6.0170 H   0  0  0  0  0  0  0  0  0  0  0  0
    3.6177   -6.4319    5.2415 H   0  0  0  0  0  0  0  0  0  0  0  0
    5.1565   -4.7135    4.8056 H   0  0  0  0  0  0  0  0  0  0  0  0
    2.9030   -2.9337    4.8424 H   0  0  0  0  0  0  0  0  0  0  0  0
    5.6663   -2.4730    4.8651 H   0  0  0  0  0  0  0  0  0  0  0  0
    2.9099   -2.5732    2.5197 H   0  0  0  0  0  0  0  0  0  0  0  0
    3.5303   -0.5206    2.3962 H   0  0  0  0  0  0  0  0  0  0  0  0
    5.8872   -2.1982    2.6702 H   0  0  0  0  0  0  0  0  0  0  0  0
    6.3756   -4.2173    2.4769 H   0  0  0  0  0  0  0  0  0  0  0  0
    6.2098   -6.3250    3.5337 H   0  0  0  0  0  0  0  0  0  0  0  0
    5.5661   -6.8714    1.9949 H   0  0  0  0  0  0  0  0  0  0  0  0
    4.7169   -7.2486    3.4698 H   0  0  0  0  0  0  0  0  0  0  0  0
  2  1  1  1
  1 27  1  0
  1 28  1  0
  1 29  1  0
  2  8  1  0
  2 23  1  0
  2  3  1  0
  3  4  1  0
  3  5  1  0
  3 30  1  6
  4 31  1  0
  5  6  1  0
  5 32  1  0
  5 33  1  0
  6  7  1  0
  6 34  1  0
  6 35  1  0
  7  8  1  0
  7 36  1  0
  7 37  1  0
  8  9  1  0
  8 38  1  1
  9 24  1  0
  9 10  1  0
  9 39  1  1
 10 11  1  0
 10 40  1  0
 10 41  1  0
 11 13  1  0
 11 12  1  0
 11 42  1  1
 13 12  1  6
 13 25  1  0
 13 14  1  0
 14 15  2  0
 14 16  1  0
 16 17  1  0
 16 43  1  0
 16 44  1  0
 17 18  1  0
 17 45  1  0
 17 46  1  0
 18 25  1  0
 18 19  1  0
 18 47  1  1
 19 20  1  0
 19 21  1  0
 19 48  1  1
 20 49  1  0
 21 22  1  0
 21 23  1  0
 21 50  1  6
 22 51  1  0
 23 24  1  0
 23 52  1  1
 24 25  1  0
 24 53  1  1
 25 26  1  1
 26 54  1  0
 26 55  1  0
 26 56  1  0
M  END
>  <i_m_ct_stereo_status>  (216) 
1

>  <s_m_source_file>  (216) 
/var/tmp/pbs.5076255.sched01/tmpc36l9o9d/84wsylf1cs.sdf

>  <i_m_source_file_index>  (216) 
12

>  <i_lp_mmshare_version>  (216) 
48012

>  <i_f3d_flags>  (216) 
0

>  <s_epik_input>  (216) 
TzFbQ0BIXShbQ0BAXTEyMylbQ0gyXVtDQEhdNFtDQEBIXTVbQ0BAXShbQ0gzXSkoW0NAQEhdKFtPSF0pW0NIMl1bQ0gyXVtDSDJdNSlbQ0BASF02W0NASF00W0NAQF0zKFtDSDNdKVtDQEhdKFtDSDJdW0NIMl1DMj1PKVtDQEBIXShbT0hdKVtDQEhdNltPSF0=

>  <s_epik_cmdline>  (216) 
J2VwaWtfcHl0aG9uJywgJy1waHQnLCAnMi4wJywgJy1waCcsICc3LjAnLCAnLXRuJywgJzgnLCAnLW1hJywgJzIwMCcsICctaW1hZScsICc8aW5maWxlLm1hZT4nLCAnLW9tYWUnLCAnPG91dGZpbGUubWFlPic=

>  <r_lp_tautomer_probability>  (216) 
1

>  <r_epik_Ionization_Penalty>  (216) 
1.88348e-06

>  <r_epik_Ionization_Penalty_Charging>  (216) 
0

>  <r_epik_Ionization_Penalty_Neutral>  (216) 
1.88348e-06

>  <r_epik_State_Penalty>  (216) 
-0

>  <r_epik_Charging_Adjusted_Penalty>  (216) 
0

>  <i_epik_Tot_Q>  (216) 
0

>  <i_epik_Tot_abs_Q>  (216) 
0

>  <s_lp_Force_Field>  (216) 
OPLS3e

>  <r_lp_Energy>  (216) 
62.9994

>  <b_lp_Chiralities_Consistent>  (216) 
1

>  <s_lp_Variant>  (216) 
66:0-1

>  <s_i_glide_gridfile>  (216) 
pfpi4k_grid

>  <i_i_glide_lignum>  (216) 
12

>  <i_i_glide_rotatable_bonds>  (216) 
3

>  <r_i_docking_score>  (216) 
-3.77841

>  <r_i_glide_ligand_efficiency>  (216) 
-0.145324

>  <r_i_glide_ligand_efficiency_sa>  (216) 
-0.430521

>  <r_i_glide_ligand_efficiency_ln>  (216) 
-0.887348

>  <r_i_glide_gscore>  (216) 
-3.77841

>  <r_i_glide_lipo>  (216) 
-0.484211

>  <r_i_glide_hbond>  (216) 
0

>  <r_i_glide_metal>  (216) 
-0

>  <r_i_glide_rewards>  (216) 
-1.43777

>  <r_i_glide_evdw>  (216) 
-24.1559

>  <r_i_glide_ecoul>  (216) 
-4.27889

>  <r_i_glide_erotb>  (216) 
0

>  <r_i_glide_esite>  (216) 
-0.00680114

>  <r_i_glide_emodel>  (216) 
-40.2182

>  <r_i_glide_energy>  (216) 
-28.4348

>  <r_i_glide_einternal>  (216) 
0.688256

>  <r_i_glide_intrahb_reward>  (216) 
-0.5

>  <i_i_glide_confnum>  (216) 
2

>  <i_i_glide_posenum>  (216) 
7

>  <r_i_glide_eff_state_penalty>  (216) 
0

>  <ligand_id>  (216) 
66

>  <original_smiles>  (216) 
CC12C(O)CCCC1C1CC3OC34C(=O)CCC3C(O)C(O)C2C1C34C

>  <smiles>  (216) 
[H]OC1([H])C([H])(O[H])C2([H])C([H])([H])C([H])([H])C(=O)C34OC3([H])C([H])([H])C3([H])C5([H])C([H])([H])C([H])([H])C([H])([H])C([H])(O[H])C5(C([H])([H])[H])C1([H])C3([H])C42C([H])([H])[H]

$$$$
66:0:2
     RDKit          3D

 56 61  0  0  1  0  0  0  0  0999 V2000
    5.8958   -0.8328    0.9952 C   0  0  0  0  0  0  0  0  0  0  0  0
    4.9430   -2.0391    1.1904 C   0  0  1  0  0  0  0  0  0  0  0  0
    3.6818   -1.8734    0.2830 C   0  0  1  0  0  0  0  0  0  0  0  0
    3.0204   -0.6517    0.5094 O   0  0  0  0  0  0  0  0  0  0  0  0
    3.9937   -1.9532   -1.2253 C   0  0  0  0  0  0  0  0  0  0  0  0
    4.6263   -3.2991   -1.5888 C   0  0  0  0  0  0  0  0  0  0  0  0
    5.8539   -3.6069   -0.7161 C   0  0  0  0  0  0  0  0  0  0  0  0
    5.6754   -3.3447    0.7973 C   0  0  2  0  0  0  0  0  0  0  0  0
    5.1575   -4.4950    1.6973 C   0  0  2  0  0  0  0  0  0  0  0  0
    4.0568   -5.4592    1.1539 C   0  0  0  0  0  0  0  0  0  0  0  0
    2.6955   -5.3715    1.8088 C   0  0  2  0  0  0  0  0  0  0  0  0
    2.1970   -4.0597    2.0793 O   0  0  0  0  0  0  0  0  0  0  0  0
    2.5575   -4.8507    3.2023 C   0  0  1  0  0  0  0  0  0  0  0  0
    1.3739   -5.2435    4.0448 C   0  0  0  0  0  0  0  0  0  0  0  0
    0.6378   -6.1892    3.7619 O   0  0  0  0  0  0  0  0  0  0  0  0
    1.0685   -4.3523    5.2428 C   0  0  0  0  0  0  0  0  0  0  0  0
    2.3351   -4.0836    6.0680 C   0  0  0  0  0  0  0  0  0  0  0  0
    3.4992   -3.5371    5.2069 C   0  0  2  0  0  0  0  0  0  0  0  0
    3.3150   -2.0226    4.8883 C   0  0  1  0  0  0  0  0  0  0  0  0
    4.2527   -1.2991    5.6610 O   0  0  0  0  0  0  0  0  0  0  0  0
    3.4560   -1.6356    3.4008 C   0  0  1  0  0  0  0  0  0  0  0  0
    3.4940   -0.2294    3.2924 O   0  0  0  0  0  0  0  0  0  0  0  0
    4.6954   -2.2762    2.7283 C   0  0  1  0  0  0  0  0  0  0  0  0
    4.8690   -3.7914    3.0445 C   0  0  1  0  0  0  0  0  0  0  0  0
    3.8096   -4.4682    3.9849 C   0  0  2  0  0  0  0  0  0  0  0  0
    4.4460   -5.7818    4.5246 C   0  0  0  0  0  0  0  0  0  0  0  0
    5.4231    0.1023    1.2905 H   0  0  0  0  0  0  0  0  0  0  0  0
    6.2177   -0.7192   -0.0362 H   0  0  0  0  0  0  0  0  0  0  0  0
    6.8031   -0.9334    1.5920 H   0  0  0  0  0  0  0  0  0  0  0  0
    2.9709   -2.6627    0.4810 H   0  0  0  0  0  0  0  0  0  0  0  0
    2.1726   -0.6723    0.0447 H   0  0  0  0  0  0  0  0  0  0  0  0
    3.0734   -1.8384   -1.7990 H   0  0  0  0  0  0  0  0  0  0  0  0
    4.6487   -1.1420   -1.5431 H   0  0  0  0  0  0  0  0  0  0  0  0
    3.8742   -4.0770   -1.5061 H   0  0  0  0  0  0  0  0  0  0  0  0
    4.9182   -3.3064   -2.6399 H   0  0  0  0  0  0  0  0  0  0  0  0
    6.1584   -4.6390   -0.8558 H   0  0  0  0  0  0  0  0  0  0  0  0
    6.6798   -2.9921   -1.0788 H   0  0  0  0  0  0  0  0  0  0  0  0
    6.6968   -3.2294    1.1563 H   0  0  0  0  0  0  0  0  0  0  0  0
    6.0153   -5.1496    1.8643 H   0  0  0  0  0  0  0  0  0  0  0  0
    3.9442   -5.4185    0.0765 H   0  0  0  0  0  0  0  0  0  0  0  0
    4.3959   -6.4799    1.3436 H   0  0  0  0  0  0  0  0  0  0  0  0
    1.9424   -6.0538    1.4222 H   0  0  0  0  0  0  0  0  0  0  0  0
    0.6574   -3.4125    4.8665 H   0  0  0  0  0  0  0  0  0  0  0  0
    0.2967   -4.8144    5.8611 H   0  0  0  0  0  0  0  0  0  0  0  0
    2.1109   -3.3983    6.8854 H   0  0  0  0  0  0  0  0  0  0  0  0
    2.6343   -5.0135    6.5488 H   0  0  0  0  0  0  0  0  0  0  0  0
    4.3834   -3.5985    5.8482 H   0  0  0  0  0  0  0  0  0  0  0  0
    2.3312   -1.6901    5.2225 H   0  0  0  0  0  0  0  0  0  0  0  0
    4.0918   -0.3781    5.4961 H   0  0  0  0  0  0  0  0  0  0  0  0
    2.5463   -1.9343    2.8927 H   0  0  0  0  0  0  0  0  0  0  0  0
    3.3762   -0.0368    2.3666 H   0  0  0  0  0  0  0  0  0  0  0  0
    5.5365   -1.8049    3.2427 H   0  0  0  0  0  0  0  0  0  0  0  0
    5.8079   -3.8347    3.6028 H   0  0  0  0  0  0  0  0  0  0  0  0
    5.3413   -5.5794    5.1228 H   0  0  0  0  0  0  0  0  0  0  0  0
    4.7436   -6.4436    3.7091 H   0  0  0  0  0  0  0  0  0  0  0  0
    3.7565   -6.3557    5.1475 H   0  0  0  0  0  0  0  0  0  0  0  0
  2  1  1  1
  1 27  1  0
  1 28  1  0
  1 29  1  0
  2  8  1  0
  2 23  1  0
  2  3  1  0
  3  4  1  0
  3  5  1  0
  3 30  1  1
  4 31  1  0
  5  6  1  0
  5 32  1  0
  5 33  1  0
  6  7  1  0
  6 34  1  0
  6 35  1  0
  7  8  1  0
  7 36  1  0
  7 37  1  0
  8  9  1  0
  8 38  1  1
  9 24  1  0
  9 10  1  0
  9 39  1  1
 10 11  1  0
 10 40  1  0
 10 41  1  0
 11 13  1  0
 11 12  1  0
 11 42  1  1
 13 12  1  6
 13 25  1  0
 13 14  1  0
 14 15  2  0
 14 16  1  0
 16 17  1  0
 16 43  1  0
 16 44  1  0
 17 18  1  0
 17 45  1  0
 17 46  1  0
 18 25  1  0
 18 19  1  0
 18 47  1  1
 19 20  1  0
 19 21  1  0
 19 48  1  1
 20 49  1  0
 21 22  1  0
 21 23  1  0
 21 50  1  6
 22 51  1  0
 23 24  1  0
 23 52  1  1
 24 25  1  0
 24 53  1  1
 25 26  1  1
 26 54  1  0
 26 55  1  0
 26 56  1  0
M  END
>  <i_m_ct_stereo_status>  (217) 
1

>  <s_m_source_file>  (217) 
/var/tmp/pbs.5076255.sched01/tmpc36l9o9d/84wsylf1cs.sdf

>  <i_m_source_file_index>  (217) 
12

>  <i_lp_mmshare_version>  (217) 
48012

>  <i_f3d_flags>  (217) 
0

>  <s_epik_input>  (217) 
TzFbQ0BIXShbQ0BAXTEyMylbQ0gyXVtDQEhdNFtDQEBIXTVbQ0BAXShbQ0gzXSkoW0NAQEhdKFtPSF0pW0NIMl1bQ0gyXVtDSDJdNSlbQ0BASF02W0NASF00W0NAQF0zKFtDSDNdKVtDQEhdKFtDSDJdW0NIMl1DMj1PKVtDQEBIXShbT0hdKVtDQEhdNltPSF0=

>  <s_epik_cmdline>  (217) 
J2VwaWtfcHl0aG9uJywgJy1waHQnLCAnMi4wJywgJy1waCcsICc3LjAnLCAnLXRuJywgJzgnLCAnLW1hJywgJzIwMCcsICctaW1hZScsICc8aW5maWxlLm1hZT4nLCAnLW9tYWUnLCAnPG91dGZpbGUubWFlPic=

>  <r_lp_tautomer_probability>  (217) 
1

>  <r_epik_Ionization_Penalty>  (217) 
1.88348e-06

>  <r_epik_Ionization_Penalty_Charging>  (217) 
0

>  <r_epik_Ionization_Penalty_Neutral>  (217) 
1.88348e-06

>  <r_epik_State_Penalty>  (217) 
-0

>  <r_epik_Charging_Adjusted_Penalty>  (217) 
0

>  <i_epik_Tot_Q>  (217) 
0

>  <i_epik_Tot_abs_Q>  (217) 
0

>  <s_lp_Force_Field>  (217) 
OPLS3e

>  <r_lp_Energy>  (217) 
62.9994

>  <b_lp_Chiralities_Consistent>  (217) 
1

>  <s_lp_Variant>  (217) 
66:0-1

>  <s_i_glide_gridfile>  (217) 
pfpi4k_grid

>  <i_i_glide_lignum>  (217) 
12

>  <i_i_glide_rotatable_bonds>  (217) 
3

>  <r_i_docking_score>  (217) 
-3.55369

>  <r_i_glide_ligand_efficiency>  (217) 
-0.13668

>  <r_i_glide_ligand_efficiency_sa>  (217) 
-0.404915

>  <r_i_glide_ligand_efficiency_ln>  (217) 
-0.834573

>  <r_i_glide_gscore>  (217) 
-3.55369

>  <r_i_glide_lipo>  (217) 
-0.421228

>  <r_i_glide_hbond>  (217) 
0

>  <r_i_glide_metal>  (217) 
-0

>  <r_i_glide_rewards>  (217) 
-1.43777

>  <r_i_glide_evdw>  (217) 
-20.6698

>  <r_i_glide_ecoul>  (217) 
-4.35484

>  <r_i_glide_erotb>  (217) 
0

>  <r_i_glide_esite>  (217) 
-0.0079712

>  <r_i_glide_emodel>  (217) 
-36.1046

>  <r_i_glide_energy>  (217) 
-25.0247

>  <r_i_glide_einternal>  (217) 
1.10185

>  <r_i_glide_intrahb_reward>  (217) 
-0.5

>  <i_i_glide_confnum>  (217) 
1

>  <i_i_glide_posenum>  (217) 
31

>  <r_i_glide_eff_state_penalty>  (217) 
0

>  <ligand_id>  (217) 
66

>  <original_smiles>  (217) 
CC12C(O)CCCC1C1CC3OC34C(=O)CCC3C(O)C(O)C2C1C34C

>  <smiles>  (217) 
[H]OC1([H])C([H])(O[H])C2([H])C([H])([H])C([H])([H])C(=O)C34OC3([H])C([H])([H])C3([H])C5([H])C([H])([H])C([H])([H])C([H])([H])C([H])(O[H])C5(C([H])([H])[H])C1([H])C3([H])C42C([H])([H])[H]

$$$$
67:0:0
     RDKit          3D

 60 65  0  0  1  0  0  0  0  0999 V2000
    2.9906   -2.9542    5.7759 C   0  0  0  0  0  0  0  0  0  0  0  0
    4.0681   -2.9346    4.6747 C   0  0  2  0  0  0  0  0  0  0  0  0
    5.0351   -1.7406    4.8143 C   0  0  0  0  0  0  0  0  0  0  0  0
    5.2480   -0.9107    3.5421 C   0  0  0  0  0  0  0  0  0  0  0  0
    6.1086   -0.0439    3.4757 O   0  0  0  0  0  0  0  0  0  0  0  0
    4.2913   -1.1825    2.3843 C   0  0  2  0  0  0  0  0  0  0  0  0
    2.8869   -0.5068    2.7892 C   0  0  0  0  0  0  0  0  0  0  0  0
    2.9081    0.5532    3.9334 C   0  0  0  0  0  0  0  0  0  0  0  0
    2.2130    0.3034    1.6557 C   0  0  0  0  0  0  0  0  0  0  0  0
    1.9994   -1.4807    3.3271 O   0  0  0  0  0  0  0  0  0  0  0  0
    2.1690   -2.7362    2.7693 C   0  0  1  0  0  0  0  0  0  0  0  0
    1.9715   -2.6142    1.3138 O   0  0  0  0  0  0  0  0  0  0  0  0
    2.9172   -2.9758    0.2209 C   0  0  1  0  0  0  0  0  0  0  0  0
    2.0938   -3.8472   -0.7593 C   0  0  0  0  0  0  0  0  0  0  0  0
    3.7556   -1.8512   -0.5494 C   0  0  2  0  0  0  0  0  0  0  0  0
    3.2856   -1.7042   -1.9964 C   0  0  0  0  0  0  0  0  0  0  0  0
    4.0286   -2.0292   -3.0700 C   0  0  0  0  0  0  0  0  0  0  0  0
    5.3532   -2.5899   -2.9110 C   0  0  0  0  0  0  0  0  0  0  0  0
    6.0102   -2.4606   -1.7457 C   0  0  0  0  0  0  0  0  0  0  0  0
    5.3533   -1.8532   -0.5180 C   0  0  2  0  0  0  0  0  0  0  0  0
    6.1701   -2.0689    0.6769 O   0  0  0  0  0  0  0  0  0  0  0  0
    5.9024   -3.0610    1.6911 C   0  0  2  0  0  0  0  0  0  0  0  0
    6.0869   -4.4637    1.1328 C   0  0  0  0  0  0  0  0  0  0  0  0
    4.8351   -4.7143    0.3211 C   0  0  1  0  0  0  0  0  0  0  0  0
    4.4518   -6.2030    0.2925 C   0  0  0  0  0  0  0  0  0  0  0  0
    3.8172   -3.7859    1.0071 C   0  0  1  0  0  0  0  0  0  0  0  0
    4.4367   -2.7988    2.0910 C   0  0  2  0  0  0  0  0  0  0  0  0
    3.5941   -3.3147    3.2390 C   0  0  1  0  0  0  0  0  0  0  0  0
    2.3100   -2.0975    5.7267 H   0  0  0  0  0  0  0  0  0  0  0  0
    3.4694   -2.9199    6.7653 H   0  0  0  0  0  0  0  0  0  0  0  0
    2.3954   -3.8713    5.7315 H   0  0  0  0  0  0  0  0  0  0  0  0
    4.7092   -3.7719    4.9409 H   0  0  0  0  0  0  0  0  0  0  0  0
    4.7169   -1.0675    5.6137 H   0  0  0  0  0  0  0  0  0  0  0  0
    5.9931   -2.1303    5.1492 H   0  0  0  0  0  0  0  0  0  0  0  0
    4.6769   -0.5875    1.5714 H   0  0  0  0  0  0  0  0  0  0  0  0
    3.6067    1.3661    3.7296 H   0  0  0  0  0  0  0  0  0  0  0  0
    3.1351    0.1106    4.9015 H   0  0  0  0  0  0  0  0  0  0  0  0
    1.9176    0.9959    4.0672 H   0  0  0  0  0  0  0  0  0  0  0  0
    2.9134    0.9840    1.1777 H   0  0  0  0  0  0  0  0  0  0  0  0
    1.3746    0.9071    2.0078 H   0  0  0  0  0  0  0  0  0  0  0  0
    1.7892   -0.3248    0.8893 H   0  0  0  0  0  0  0  0  0  0  0  0
    1.3868   -3.3677    3.1810 H   0  0  0  0  0  0  0  0  0  0  0  0
    2.6887   -4.2291   -1.5801 H   0  0  0  0  0  0  0  0  0  0  0  0
    1.2740   -3.2617   -1.1765 H   0  0  0  0  0  0  0  0  0  0  0  0
    1.6469   -4.7111   -0.2603 H   0  0  0  0  0  0  0  0  0  0  0  0
    3.4793   -0.8962   -0.1399 H   0  0  0  0  0  0  0  0  0  0  0  0
    2.2960   -1.3040   -2.1516 H   0  0  0  0  0  0  0  0  0  0  0  0
    3.6102   -1.8455   -4.0441 H   0  0  0  0  0  0  0  0  0  0  0  0
    5.8511   -3.0488   -3.7564 H   0  0  0  0  0  0  0  0  0  0  0  0
    7.0288   -2.8017   -1.6325 H   0  0  0  0  0  0  0  0  0  0  0  0
    5.5665   -0.7971   -0.6894 H   0  0  0  0  0  0  0  0  0  0  0  0
    6.6100   -2.9186    2.4889 H   0  0  0  0  0  0  0  0  0  0  0  0
    6.9992   -4.5771    0.5407 H   0  0  0  0  0  0  0  0  0  0  0  0
    6.1249   -5.1688    1.9611 H   0  0  0  0  0  0  0  0  0  0  0  0
    4.9793   -4.4465   -0.7157 H   0  0  0  0  0  0  0  0  0  0  0  0
    4.2806   -6.6209    1.2943 H   0  0  0  0  0  0  0  0  0  0  0  0
    5.2524   -6.7724   -0.1755 H   0  0  0  0  0  0  0  0  0  0  0  0
    3.5468   -6.3468   -0.3031 H   0  0  0  0  0  0  0  0  0  0  0  0
    3.1388   -4.5600    1.3838 H   0  0  0  0  0  0  0  0  0  0  0  0
    3.5265   -4.4042    3.3065 H   0  0  0  0  0  0  0  0  0  0  0  0
  1  2  1  0
  1 29  1  0
  1 30  1  0
  1 31  1  0
  2 28  1  0
  2  3  1  0
  2 32  1  1
  3  4  1  0
  3 33  1  0
  3 34  1  0
  4  5  2  0
  4  6  1  0
 27  6  1  6
  6  7  1  0
  6 35  1  6
  7  8  1  0
  7  9  1  0
  7 10  1  0
  8 36  1  0
  8 37  1  0
  8 38  1  0
  9 39  1  0
  9 40  1  0
  9 41  1  0
 10 11  1  0
 11 28  1  0
 11 12  1  0
 11 42  1  1
 12 13  1  0
 13 26  1  0
 13 14  1  6
 13 15  1  0
 14 43  1  0
 14 44  1  0
 14 45  1  0
 15 20  1  0
 15 16  1  0
 15 46  1  1
 16 17  2  0
 16 47  1  0
 17 18  1  0
 17 48  1  0
 18 19  2  0
 18 49  1  0
 19 20  1  0
 19 50  1  0
 20 21  1  0
 20 51  1  6
 21 22  1  0
 22 27  1  0
 22 23  1  0
 22 52  1  1
 23 24  1  0
 23 53  1  0
 23 54  1  0
 24 25  1  0
 24 26  1  0
 24 55  1  6
 25 56  1  0
 25 57  1  0
 25 58  1  0
 26 27  1  0
 26 59  1  1
 27 28  1  0
 28 60  1  1
M  END
>  <i_m_ct_stereo_status>  (218) 
1

>  <s_m_source_file>  (218) 
/var/tmp/pbs.5076255.sched01/tmpc36l9o9d/84wsylf1cs.sdf

>  <i_m_source_file_index>  (218) 
13

>  <i_lp_mmshare_version>  (218) 
48012

>  <i_f3d_flags>  (218) 
0

>  <s_epik_input>  (218) 
W0NAQF0xMjNbQ0BASF00Qyg9TylbQ0gyXVtDQEBIXShbQ0gzXSlbQ0BIXTNbQ0BASF0oT0M0KFtDSDNdKVtDSDNdKU9bQ0BAXTUoW0NIM10pW0NASF02W0NASF0oW0NIXT1bQ0hdW0NIXT1bQ0hdNilPW0NAQEhdMVtDSDJdW0NAQEhdKFtDSDNdKVtDQEBIXTI1

>  <s_epik_cmdline>  (218) 
J2VwaWtfcHl0aG9uJywgJy1waHQnLCAnMi4wJywgJy1waCcsICc3LjAnLCAnLXRuJywgJzgnLCAnLW1hJywgJzIwMCcsICctaW1hZScsICc8aW5maWxlLm1hZT4nLCAnLW9tYWUnLCAnPG91dGZpbGUubWFlPic=

>  <r_lp_tautomer_probability>  (218) 
1

>  <r_epik_Ionization_Penalty>  (218) 
2.38107e-12

>  <r_epik_Ionization_Penalty_Charging>  (218) 
0

>  <r_epik_Ionization_Penalty_Neutral>  (218) 
2.38107e-12

>  <r_epik_State_Penalty>  (218) 
-0

>  <r_epik_Charging_Adjusted_Penalty>  (218) 
0

>  <i_epik_Tot_Q>  (218) 
0

>  <i_epik_Tot_abs_Q>  (218) 
0

>  <s_epik_Chemistry_Notes>  (218) 
This compound contains an acetal/aminal-like group ( X-CH(R)-Y where X, Y are N, S, or O) that may be acid/base labile, releasing an aldehyde.

>  <s_lp_Force_Field>  (218) 
OPLS3e

>  <r_lp_Energy>  (218) 
163.922

>  <b_lp_Chiralities_Consistent>  (218) 
1

>  <s_lp_Variant>  (218) 
67:0-1

>  <s_i_glide_gridfile>  (218) 
pfpi4k_grid

>  <i_i_glide_lignum>  (218) 
13

>  <i_i_glide_rotatable_bonds>  (218) 
0

>  <r_i_docking_score>  (218) 
-2.49255

>  <r_i_glide_ligand_efficiency>  (218) 
-0.0890196

>  <r_i_glide_ligand_efficiency_sa>  (218) 
-0.270316

>  <r_i_glide_ligand_efficiency_ln>  (218) 
-0.575354

>  <r_i_glide_gscore>  (218) 
-2.49255

>  <r_i_glide_lipo>  (218) 
-0.626493

>  <r_i_glide_hbond>  (218) 
-0.0150823

>  <r_i_glide_metal>  (218) 
-0

>  <r_i_glide_rewards>  (218) 
-0.929741

>  <r_i_glide_evdw>  (218) 
-19.4699

>  <r_i_glide_ecoul>  (218) 
0.380907

>  <r_i_glide_erotb>  (218) 
0

>  <r_i_glide_esite>  (218) 
-0.00487427

>  <r_i_glide_emodel>  (218) 
-20.7302

>  <r_i_glide_energy>  (218) 
-19.089

>  <r_i_glide_einternal>  (218) 
0

>  <r_i_glide_intrahb_reward>  (218) 
-0

>  <i_i_glide_confnum>  (218) 
2

>  <i_i_glide_posenum>  (218) 
1

>  <r_i_glide_eff_state_penalty>  (218) 
0

>  <ligand_id>  (218) 
67

>  <original_smiles>  (218) 
CC1CC(=O)C2C(C)(C)OC3OC4(C)C5C=CC=CC5OC5CC(C)C4C52C13

>  <smiles>  (218) 
[H]C1=C([H])C2([H])OC3([H])C([H])([H])C([H])(C([H])([H])[H])C4([H])C(C([H])([H])[H])(OC5([H])OC(C([H])([H])[H])(C([H])([H])[H])C6([H])C(=O)C([H])([H])C([H])(C([H])([H])[H])C5([H])C364)C2([H])C([H])=C1[H]

$$$$
67:0:1
     RDKit          3D

 60 65  0  0  1  0  0  0  0  0999 V2000
    4.0614   -0.9628    1.3519 C   0  0  0  0  0  0  0  0  0  0  0  0
    4.9436   -2.2027    1.1352 C   0  0  2  0  0  0  0  0  0  0  0  0
    5.2677   -2.4683   -0.3589 C   0  0  0  0  0  0  0  0  0  0  0  0
    4.9501   -3.8743   -0.8477 C   0  0  0  0  0  0  0  0  0  0  0  0
    5.1722   -4.1976   -2.0099 O   0  0  0  0  0  0  0  0  0  0  0  0
    4.1986   -4.7936    0.1240 C   0  0  2  0  0  0  0  0  0  0  0  0
    2.6631   -4.3481    0.0771 C   0  0  0  0  0  0  0  0  0  0  0  0
    2.2348   -3.4575   -1.1377 C   0  0  0  0  0  0  0  0  0  0  0  0
    1.6453   -5.5174    0.0428 C   0  0  0  0  0  0  0  0  0  0  0  0
    2.3657   -3.4845    1.1602 O   0  0  0  0  0  0  0  0  0  0  0  0
    3.0585   -3.7799    2.3089 C   0  0  1  0  0  0  0  0  0  0  0  0
    2.7553   -5.1591    2.7019 O   0  0  0  0  0  0  0  0  0  0  0  0
    3.6904   -6.2915    2.8404 C   0  0  1  0  0  0  0  0  0  0  0  0
    3.2834   -6.8837    4.2129 C   0  0  0  0  0  0  0  0  0  0  0  0
    3.8681   -7.4022    1.6992 C   0  0  2  0  0  0  0  0  0  0  0  0
    3.3009   -8.7486    2.1231 C   0  0  0  0  0  0  0  0  0  0  0  0
    4.0474   -9.8554    2.3024 C   0  0  0  0  0  0  0  0  0  0  0  0
    5.4796   -9.8528    2.0795 C   0  0  0  0  0  0  0  0  0  0  0  0
    6.0719   -8.8255    1.4594 C   0  0  0  0  0  0  0  0  0  0  0  0
    5.2858   -7.6141    0.9851 C   0  0  2  0  0  0  0  0  0  0  0  0
    6.1363   -6.5454    0.4772 O   0  0  0  0  0  0  0  0  0  0  0  0
    6.4506   -5.3485    1.1817 C   0  0  2  0  0  0  0  0  0  0  0  0
    7.2671   -5.7174    2.4087 C   0  0  0  0  0  0  0  0  0  0  0  0
    6.2506   -6.2056    3.4194 C   0  0  1  0  0  0  0  0  0  0  0  0
    6.6327   -5.8808    4.8777 C   0  0  0  0  0  0  0  0  0  0  0  0
    4.9410   -5.5429    2.9176 C   0  0  1  0  0  0  0  0  0  0  0  0
    5.0625   -4.7814    1.5253 C   0  0  2  0  0  0  0  0  0  0  0  0
    4.6223   -3.4339    2.0521 C   0  0  1  0  0  0  0  0  0  0  0  0
    3.0590   -1.0861    0.9318 H   0  0  0  0  0  0  0  0  0  0  0  0
    4.5054   -0.0890    0.8642 H   0  0  0  0  0  0  0  0  0  0  0  0
    3.9626   -0.7331    2.4138 H   0  0  0  0  0  0  0  0  0  0  0  0
    5.9189   -1.8899    1.5108 H   0  0  0  0  0  0  0  0  0  0  0  0
    4.7066   -1.7724   -0.9881 H   0  0  0  0  0  0  0  0  0  0  0  0
    6.3172   -2.2642   -0.5580 H   0  0  0  0  0  0  0  0  0  0  0  0
    4.2371   -5.7613   -0.3702 H   0  0  0  0  0  0  0  0  0  0  0  0
    2.4715   -3.8742   -2.1148 H   0  0  0  0  0  0  0  0  0  0  0  0
    2.6776   -2.4650   -1.0936 H   0  0  0  0  0  0  0  0  0  0  0  0
    1.1635   -3.2699   -1.1366 H   0  0  0  0  0  0  0  0  0  0  0  0
    1.9792   -6.2555   -0.6506 H   0  0  0  0  0  0  0  0  0  0  0  0
    0.6985   -5.2260   -0.3828 H   0  0  0  0  0  0  0  0  0  0  0  0
    1.4172   -5.9867    1.0005 H   0  0  0  0  0  0  0  0  0  0  0  0
    2.6607   -3.1220    3.0843 H   0  0  0  0  0  0  0  0  0  0  0  0
    3.9546   -7.6761    4.5421 H   0  0  0  0  0  0  0  0  0  0  0  0
    2.2698   -7.2888    4.1714 H   0  0  0  0  0  0  0  0  0  0  0  0
    3.2778   -6.1114    4.9840 H   0  0  0  0  0  0  0  0  0  0  0  0
    3.2134   -7.1635    0.8820 H   0  0  0  0  0  0  0  0  0  0  0  0
    2.2300   -8.7971    2.2655 H   0  0  0  0  0  0  0  0  0  0  0  0
    3.5627  -10.7823    2.5685 H   0  0  0  0  0  0  0  0  0  0  0  0
    6.0601  -10.7146    2.3789 H   0  0  0  0  0  0  0  0  0  0  0  0
    7.1337   -8.8411    1.2425 H   0  0  0  0  0  0  0  0  0  0  0  0
    4.9735   -8.0076    0.0193 H   0  0  0  0  0  0  0  0  0  0  0  0
    7.0517   -4.6845    0.5559 H   0  0  0  0  0  0  0  0  0  0  0  0
    8.0786   -6.4217    2.2203 H   0  0  0  0  0  0  0  0  0  0  0  0
    7.7172   -4.7952    2.7044 H   0  0  0  0  0  0  0  0  0  0  0  0
    6.1820   -7.2871    3.3804 H   0  0  0  0  0  0  0  0  0  0  0  0
    6.7252   -4.8082    5.0626 H   0  0  0  0  0  0  0  0  0  0  0  0
    7.5867   -6.3429    5.1437 H   0  0  0  0  0  0  0  0  0  0  0  0
    5.8860   -6.2675    5.5732 H   0  0  0  0  0  0  0  0  0  0  0  0
    4.7543   -4.9083    3.7845 H   0  0  0  0  0  0  0  0  0  0  0  0
    5.0681   -3.1396    3.0023 H   0  0  0  0  0  0  0  0  0  0  0  0
  1  2  1  0
  1 29  1  0
  1 30  1  0
  1 31  1  0
  2 28  1  0
  2  3  1  0
  2 32  1  1
  3  4  1  0
  3 33  1  0
  3 34  1  0
  4  5  2  0
  4  6  1  0
 27  6  1  6
  6  7  1  0
  6 35  1  6
  7  8  1  0
  7  9  1  0
  7 10  1  0
  8 36  1  0
  8 37  1  0
  8 38  1  0
  9 39  1  0
  9 40  1  0
  9 41  1  0
 10 11  1  0
 11 28  1  0
 11 12  1  0
 11 42  1  1
 12 13  1  0
 13 26  1  0
 13 14  1  1
 13 15  1  0
 14 43  1  0
 14 44  1  0
 14 45  1  0
 15 20  1  0
 15 16  1  0
 15 46  1  6
 16 17  2  0
 16 47  1  0
 17 18  1  0
 17 48  1  0
 18 19  2  0
 18 49  1  0
 19 20  1  0
 19 50  1  0
 20 21  1  0
 20 51  1  6
 21 22  1  0
 22 27  1  0
 22 23  1  0
 22 52  1  6
 23 24  1  0
 23 53  1  0
 23 54  1  0
 24 25  1  0
 24 26  1  0
 24 55  1  1
 25 56  1  0
 25 57  1  0
 25 58  1  0
 26 27  1  0
 26 59  1  1
 27 28  1  0
 28 60  1  1
M  END
>  <i_m_ct_stereo_status>  (219) 
1

>  <s_m_source_file>  (219) 
/var/tmp/pbs.5076255.sched01/tmpc36l9o9d/84wsylf1cs.sdf

>  <i_m_source_file_index>  (219) 
13

>  <i_lp_mmshare_version>  (219) 
48012

>  <i_f3d_flags>  (219) 
0

>  <s_epik_input>  (219) 
W0NAQF0xMjNbQ0BASF00Qyg9TylbQ0gyXVtDQEBIXShbQ0gzXSlbQ0BIXTNbQ0BASF0oT0M0KFtDSDNdKVtDSDNdKU9bQ0BAXTUoW0NIM10pW0NASF02W0NASF0oW0NIXT1bQ0hdW0NIXT1bQ0hdNilPW0NAQEhdMVtDSDJdW0NAQEhdKFtDSDNdKVtDQEBIXTI1

>  <s_epik_cmdline>  (219) 
J2VwaWtfcHl0aG9uJywgJy1waHQnLCAnMi4wJywgJy1waCcsICc3LjAnLCAnLXRuJywgJzgnLCAnLW1hJywgJzIwMCcsICctaW1hZScsICc8aW5maWxlLm1hZT4nLCAnLW9tYWUnLCAnPG91dGZpbGUubWFlPic=

>  <r_lp_tautomer_probability>  (219) 
1

>  <r_epik_Ionization_Penalty>  (219) 
2.38107e-12

>  <r_epik_Ionization_Penalty_Charging>  (219) 
0

>  <r_epik_Ionization_Penalty_Neutral>  (219) 
2.38107e-12

>  <r_epik_State_Penalty>  (219) 
-0

>  <r_epik_Charging_Adjusted_Penalty>  (219) 
0

>  <i_epik_Tot_Q>  (219) 
0

>  <i_epik_Tot_abs_Q>  (219) 
0

>  <s_epik_Chemistry_Notes>  (219) 
This compound contains an acetal/aminal-like group ( X-CH(R)-Y where X, Y are N, S, or O) that may be acid/base labile, releasing an aldehyde.

>  <s_lp_Force_Field>  (219) 
OPLS3e

>  <r_lp_Energy>  (219) 
163.922

>  <b_lp_Chiralities_Consistent>  (219) 
1

>  <s_lp_Variant>  (219) 
67:0-1

>  <s_i_glide_gridfile>  (219) 
pfpi4k_grid

>  <i_i_glide_lignum>  (219) 
13

>  <i_i_glide_rotatable_bonds>  (219) 
0

>  <r_i_docking_score>  (219) 
-1.86445

>  <r_i_glide_ligand_efficiency>  (219) 
-0.0665876

>  <r_i_glide_ligand_efficiency_sa>  (219) 
-0.202199

>  <r_i_glide_ligand_efficiency_ln>  (219) 
-0.43037

>  <r_i_glide_gscore>  (219) 
-1.86445

>  <r_i_glide_lipo>  (219) 
-0.447025

>  <r_i_glide_hbond>  (219) 
0

>  <r_i_glide_metal>  (219) 
-0

>  <r_i_glide_rewards>  (219) 
-0.824846

>  <r_i_glide_evdw>  (219) 
-14.3906

>  <r_i_glide_ecoul>  (219) 
0.849478

>  <r_i_glide_erotb>  (219) 
0

>  <r_i_glide_esite>  (219) 
-0.000471528

>  <r_i_glide_emodel>  (219) 
-14.5837

>  <r_i_glide_energy>  (219) 
-13.5411

>  <r_i_glide_einternal>  (219) 
0

>  <r_i_glide_intrahb_reward>  (219) 
-0

>  <i_i_glide_confnum>  (219) 
1

>  <i_i_glide_posenum>  (219) 
2

>  <r_i_glide_eff_state_penalty>  (219) 
0

>  <ligand_id>  (219) 
67

>  <original_smiles>  (219) 
CC1CC(=O)C2C(C)(C)OC3OC4(C)C5C=CC=CC5OC5CC(C)C4C52C13

>  <smiles>  (219) 
[H]C1=C([H])C2([H])OC3([H])C([H])([H])C([H])(C([H])([H])[H])C4([H])C(C([H])([H])[H])(OC5([H])OC(C([H])([H])[H])(C([H])([H])[H])C6([H])C(=O)C([H])([H])C([H])(C([H])([H])[H])C5([H])C364)C2([H])C([H])=C1[H]

$$$$
67:0:2
     RDKit          3D

 60 65  0  0  1  0  0  0  0  0999 V2000
    3.8778   -0.6846    0.6558 C   0  0  0  0  0  0  0  0  0  0  0  0
    4.6607   -2.0097    0.6625 C   0  0  2  0  0  0  0  0  0  0  0  0
    5.1317   -2.4056   -0.7524 C   0  0  0  0  0  0  0  0  0  0  0  0
    4.7745   -3.8066   -1.2355 C   0  0  0  0  0  0  0  0  0  0  0  0
    5.1012   -4.1502   -2.3616 O   0  0  0  0  0  0  0  0  0  0  0  0
    3.8268   -4.6247   -0.3223 C   0  0  2  0  0  0  0  0  0  0  0  0
    2.3678   -4.0663   -0.6452 C   0  0  0  0  0  0  0  0  0  0  0  0
    2.1833   -3.2441   -1.9659 C   0  0  0  0  0  0  0  0  0  0  0  0
    1.1894   -5.1066   -0.7373 C   0  0  0  0  0  0  0  0  0  0  0  0
    2.1321   -3.0587    0.3069 O   0  0  0  0  0  0  0  0  0  0  0  0
    2.5337   -3.3035    1.5922 C   0  0  1  0  0  0  0  0  0  0  0  0
    1.9909   -4.6109    2.0189 O   0  0  0  0  0  0  0  0  0  0  0  0
    2.7357   -5.8214    2.4075 C   0  0  1  0  0  0  0  0  0  0  0  0
    2.0797   -6.2547    3.7431 C   0  0  0  0  0  0  0  0  0  0  0  0
    2.9407   -7.0362    1.3925 C   0  0  2  0  0  0  0  0  0  0  0  0
    2.1640   -8.2796    1.8124 C   0  0  0  0  0  0  0  0  0  0  0  0
    2.7377   -9.4456    2.1511 C   0  0  0  0  0  0  0  0  0  0  0  0
    4.1861   -9.6085    2.1371 C   0  0  0  0  0  0  0  0  0  0  0  0
    4.9634   -8.6996    1.5560 C   0  0  0  0  0  0  0  0  0  0  0  0
    4.4111   -7.4565    0.9002 C   0  0  2  0  0  0  0  0  0  0  0  0
    5.4591   -6.5409    0.4751 O   0  0  0  0  0  0  0  0  0  0  0  0
    5.7860   -5.2941    1.1153 C   0  0  2  0  0  0  0  0  0  0  0  0
    6.3706   -5.5855    2.4830 C   0  0  0  0  0  0  0  0  0  0  0  0
    5.1772   -5.9411    3.3390 C   0  0  1  0  0  0  0  0  0  0  0  0
    5.3927   -5.5399    4.8070 C   0  0  0  0  0  0  0  0  0  0  0  0
    4.0392   -5.2013    2.6108 C   0  0  1  0  0  0  0  0  0  0  0  0
    4.4471   -4.5641    1.2043 C   0  0  2  0  0  0  0  0  0  0  0  0
    4.1243   -3.1394    1.5983 C   0  0  1  0  0  0  0  0  0  0  0  0
    2.9384   -0.7393    0.0910 H   0  0  0  0  0  0  0  0  0  0  0  0
    4.4775    0.0902    0.1668 H   0  0  0  0  0  0  0  0  0  0  0  0
    3.6535   -0.3553    1.6735 H   0  0  0  0  0  0  0  0  0  0  0  0
    5.6090   -1.7615    1.1417 H   0  0  0  0  0  0  0  0  0  0  0  0
    4.7219   -1.7194   -1.4974 H   0  0  0  0  0  0  0  0  0  0  0  0
    6.2090   -2.3304   -0.8156 H   0  0  0  0  0  0  0  0  0  0  0  0
    3.8280   -5.6386   -0.7236 H   0  0  0  0  0  0  0  0  0  0  0  0
    2.4697   -3.7659   -2.8803 H   0  0  0  0  0  0  0  0  0  0  0  0
    2.6824   -2.2745   -1.9197 H   0  0  0  0  0  0  0  0  0  0  0  0
    1.1369   -2.9700   -2.0847 H   0  0  0  0  0  0  0  0  0  0  0  0
    1.3298   -5.8918   -1.4175 H   0  0  0  0  0  0  0  0  0  0  0  0
    0.2987   -4.6245   -1.1456 H   0  0  0  0  0  0  0  0  0  0  0  0
    0.8646   -5.5344    0.2148 H   0  0  0  0  0  0  0  0  0  0  0  0
    2.1113   -2.5335    2.2237 H   0  0  0  0  0  0  0  0  0  0  0  0
    2.6090   -7.0840    4.2167 H   0  0  0  0  0  0  0  0  0  0  0  0
    1.0408   -6.5629    3.5852 H   0  0  0  0  0  0  0  0  0  0  0  0
    2.0568   -5.4244    4.4537 H   0  0  0  0  0  0  0  0  0  0  0  0
    2.4466   -6.7763    0.4760 H   0  0  0  0  0  0  0  0  0  0  0  0
    1.0849   -8.1815    1.7990 H   0  0  0  0  0  0  0  0  0  0  0  0
    2.1153  -10.2934    2.4061 H   0  0  0  0  0  0  0  0  0  0  0  0
    4.6151  -10.5075    2.5630 H   0  0  0  0  0  0  0  0  0  0  0  0
    6.0417   -8.8301    1.4792 H   0  0  0  0  0  0  0  0  0  0  0  0
    4.2137   -7.8911   -0.0728 H   0  0  0  0  0  0  0  0  0  0  0  0
    6.5140   -4.7459    0.5202 H   0  0  0  0  0  0  0  0  0  0  0  0
    7.1287   -6.3679    2.4427 H   0  0  0  0  0  0  0  0  0  0  0  0
    6.8172   -4.6602    2.8318 H   0  0  0  0  0  0  0  0  0  0  0  0
    5.0067   -7.0106    3.3402 H   0  0  0  0  0  0  0  0  0  0  0  0
    5.5853   -4.4700    4.9207 H   0  0  0  0  0  0  0  0  0  0  0  0
    6.2468   -6.0781    5.2228 H   0  0  0  0  0  0  0  0  0  0  0  0
    4.5181   -5.7922    5.4064 H   0  0  0  0  0  0  0  0  0  0  0  0
    3.7952   -4.4909    3.4076 H   0  0  0  0  0  0  0  0  0  0  0  0
    4.4566   -2.8326    2.5950 H   0  0  0  0  0  0  0  0  0  0  0  0
  1  2  1  0
  1 29  1  0
  1 30  1  0
  1 31  1  0
  2 28  1  0
  2  3  1  0
  2 32  1  1
  3  4  1  0
  3 33  1  0
  3 34  1  0
  4  5  2  0
  4  6  1  0
 27  6  1  6
  6  7  1  0
  6 35  1  6
  7  8  1  0
  7  9  1  0
  7 10  1  0
  8 36  1  0
  8 37  1  0
  8 38  1  0
  9 39  1  0
  9 40  1  0
  9 41  1  0
 10 11  1  0
 11 28  1  0
 11 12  1  0
 11 42  1  1
 12 13  1  0
 13 26  1  0
 13 14  1  1
 13 15  1  0
 14 43  1  0
 14 44  1  0
 14 45  1  0
 15 20  1  0
 15 16  1  0
 15 46  1  6
 16 17  2  0
 16 47  1  0
 17 18  1  0
 17 48  1  0
 18 19  2  0
 18 49  1  0
 19 20  1  0
 19 50  1  0
 20 21  1  0
 20 51  1  6
 21 22  1  0
 22 27  1  0
 22 23  1  0
 22 52  1  6
 23 24  1  0
 23 53  1  0
 23 54  1  0
 24 25  1  0
 24 26  1  0
 24 55  1  1
 25 56  1  0
 25 57  1  0
 25 58  1  0
 26 27  1  0
 26 59  1  1
 27 28  1  0
 28 60  1  1
M  END
>  <i_m_ct_stereo_status>  (220) 
1

>  <s_m_source_file>  (220) 
/var/tmp/pbs.5076255.sched01/tmpc36l9o9d/84wsylf1cs.sdf

>  <i_m_source_file_index>  (220) 
13

>  <i_lp_mmshare_version>  (220) 
48012

>  <i_f3d_flags>  (220) 
0

>  <s_epik_input>  (220) 
W0NAQF0xMjNbQ0BASF00Qyg9TylbQ0gyXVtDQEBIXShbQ0gzXSlbQ0BIXTNbQ0BASF0oT0M0KFtDSDNdKVtDSDNdKU9bQ0BAXTUoW0NIM10pW0NASF02W0NASF0oW0NIXT1bQ0hdW0NIXT1bQ0hdNilPW0NAQEhdMVtDSDJdW0NAQEhdKFtDSDNdKVtDQEBIXTI1

>  <s_epik_cmdline>  (220) 
J2VwaWtfcHl0aG9uJywgJy1waHQnLCAnMi4wJywgJy1waCcsICc3LjAnLCAnLXRuJywgJzgnLCAnLW1hJywgJzIwMCcsICctaW1hZScsICc8aW5maWxlLm1hZT4nLCAnLW9tYWUnLCAnPG91dGZpbGUubWFlPic=

>  <r_lp_tautomer_probability>  (220) 
1

>  <r_epik_Ionization_Penalty>  (220) 
2.38107e-12

>  <r_epik_Ionization_Penalty_Charging>  (220) 
0

>  <r_epik_Ionization_Penalty_Neutral>  (220) 
2.38107e-12

>  <r_epik_State_Penalty>  (220) 
-0

>  <r_epik_Charging_Adjusted_Penalty>  (220) 
0

>  <i_epik_Tot_Q>  (220) 
0

>  <i_epik_Tot_abs_Q>  (220) 
0

>  <s_epik_Chemistry_Notes>  (220) 
This compound contains an acetal/aminal-like group ( X-CH(R)-Y where X, Y are N, S, or O) that may be acid/base labile, releasing an aldehyde.

>  <s_lp_Force_Field>  (220) 
OPLS3e

>  <r_lp_Energy>  (220) 
163.922

>  <b_lp_Chiralities_Consistent>  (220) 
1

>  <s_lp_Variant>  (220) 
67:0-1

>  <s_i_glide_gridfile>  (220) 
pfpi4k_grid

>  <i_i_glide_lignum>  (220) 
13

>  <i_i_glide_rotatable_bonds>  (220) 
0

>  <r_i_docking_score>  (220) 
-1.69104

>  <r_i_glide_ligand_efficiency>  (220) 
-0.0603944

>  <r_i_glide_ligand_efficiency_sa>  (220) 
-0.183393

>  <r_i_glide_ligand_efficiency_ln>  (220) 
-0.390343

>  <r_i_glide_gscore>  (220) 
-1.69104

>  <r_i_glide_lipo>  (220) 
-0.445304

>  <r_i_glide_hbond>  (220) 
-0.0209526

>  <r_i_glide_metal>  (220) 
-0

>  <r_i_glide_rewards>  (220) 
-0.787442

>  <r_i_glide_evdw>  (220) 
-9.66223

>  <r_i_glide_ecoul>  (220) 
0.409694

>  <r_i_glide_erotb>  (220) 
0

>  <r_i_glide_esite>  (220) 
-0.0156877

>  <r_i_glide_emodel>  (220) 
-9.56795

>  <r_i_glide_energy>  (220) 
-9.25254

>  <r_i_glide_einternal>  (220) 
0

>  <r_i_glide_intrahb_reward>  (220) 
-0

>  <i_i_glide_confnum>  (220) 
1

>  <i_i_glide_posenum>  (220) 
8

>  <r_i_glide_eff_state_penalty>  (220) 
0

>  <ligand_id>  (220) 
67

>  <original_smiles>  (220) 
CC1CC(=O)C2C(C)(C)OC3OC4(C)C5C=CC=CC5OC5CC(C)C4C52C13

>  <smiles>  (220) 
[H]C1=C([H])C2([H])OC3([H])C([H])([H])C([H])(C([H])([H])[H])C4([H])C(C([H])([H])[H])(OC5([H])OC(C([H])([H])[H])(C([H])([H])[H])C6([H])C(=O)C([H])([H])C([H])(C([H])([H])[H])C5([H])C364)C2([H])C([H])=C1[H]

$$$$
69:0:0
     RDKit          3D

 94101  0  0  1  0  0  0  0  0999 V2000
   -0.1825   -9.4674    7.1572 C   0  0  0  0  0  0  0  0  0  0  0  0
    1.0911   -9.3425    6.7424 C   0  0  0  0  0  0  0  0  0  0  0  0
    1.5581   -9.3027    5.2911 C   0  0  2  0  0  0  0  0  0  0  0  0
    0.6482   -9.9961    4.2654 C   0  0  0  0  0  0  0  0  0  0  0  0
    1.5527  -10.2867    3.0566 C   0  0  0  0  0  0  0  0  0  0  0  0
    3.0149   -9.9871    3.4775 C   0  0  1  0  0  0  0  0  0  0  0  0
    3.5383   -8.6873    2.8008 C   0  0  2  0  0  0  0  0  0  0  0  0
    3.9239   -8.9282    1.3246 C   0  0  0  0  0  0  0  0  0  0  0  0
    4.3075   -7.6175    0.6223 C   0  0  0  0  0  0  0  0  0  0  0  0
    5.4351   -6.8289    1.3368 C   0  0  1  0  0  0  0  0  0  0  0  0
    5.8124   -5.4446    0.6836 C   0  0  2  0  0  0  0  0  0  0  0  0
    7.2787   -5.1067    1.0771 C   0  0  0  0  0  0  0  0  0  0  0  0
    4.7361   -4.3065    0.9112 C   0  0  2  0  0  0  0  0  0  0  0  0
    3.4512   -4.4902    0.0780 C   0  0  0  0  0  0  0  0  0  0  0  0
    2.8883   -3.1061   -0.2354 C   0  0  0  0  0  0  0  0  0  0  0  0
    3.6456   -2.1301    0.6695 C   0  0  1  0  0  0  0  0  0  0  0  0
    3.6500   -0.7105    0.0680 C   0  0  0  0  0  0  0  0  0  0  0  0
    2.9745   -2.1027    2.0874 C   0  0  2  0  0  0  0  0  0  0  0  0
    1.6983   -1.4715    2.1833 O   0  0  0  0  0  0  0  0  0  0  0  0
    1.4956   -0.9657    3.5031 C   0  0  1  0  0  0  0  0  0  0  0  0
    0.6626   -1.8383    4.4237 C   0  0  0  0  0  0  0  0  0  0  0  0
    1.2391   -1.5012    5.8099 C   0  0  1  0  0  0  0  0  0  0  0  0
    0.8544   -2.4595    6.7877 O   0  0  0  0  0  0  0  0  0  0  0  0
    2.7754   -1.2968    5.6179 C   0  0  0  0  0  0  0  0  0  0  0  0
    3.2737   -0.1627    6.5284 C   0  0  0  0  0  0  0  0  0  0  0  0
    3.5634   -2.5864    5.9476 C   0  0  0  0  0  0  0  0  0  0  0  0
    2.8619   -0.8875    4.1260 C   0  0  2  0  0  0  0  0  0  0  0  0
    3.8698    0.0248    3.4739 C   0  0  0  0  0  0  0  0  0  0  0  0
    3.8385   -1.4454    3.1270 C   0  0  2  0  0  0  0  0  0  0  0  0
    5.1581   -2.1699    3.2753 C   0  0  0  0  0  0  0  0  0  0  0  0
    5.8904   -2.1659    1.9201 C   0  0  0  0  0  0  0  0  0  0  0  0
    5.0863   -2.7868    0.7327 C   0  0  1  0  0  0  0  0  0  0  0  0
    5.8876   -2.5405   -0.5872 C   0  0  0  0  0  0  0  0  0  0  0  0
    5.2321   -6.7791    2.8744 C   0  0  0  0  0  0  0  0  0  0  0  0
    5.5007   -5.7805    3.5432 O   0  0  0  0  0  0  0  0  0  0  0  0
    4.7463   -8.0825    3.5445 C   0  0  1  0  0  0  0  0  0  0  0  0
    4.4394   -7.8526    5.0361 C   0  0  0  0  0  0  0  0  0  0  0  0
    4.1255   -9.1936    5.7040 C   0  0  0  0  0  0  0  0  0  0  0  0
    2.9473   -9.9252    5.0263 C   0  0  1  0  0  0  0  0  0  0  0  0
    2.9767  -11.2583    5.5066 O   0  0  0  0  0  0  0  0  0  0  0  0
   -0.9923   -9.5720    6.4589 H   0  0  0  0  0  0  0  0  0  0  0  0
   -0.4057   -9.4579    8.2075 H   0  0  0  0  0  0  0  0  0  0  0  0
    1.8582   -9.2582    7.4960 H   0  0  0  0  0  0  0  0  0  0  0  0
    1.5981   -8.2417    5.0269 H   0  0  0  0  0  0  0  0  0  0  0  0
    0.2679  -10.9393    4.6646 H   0  0  0  0  0  0  0  0  0  0  0  0
   -0.2133   -9.3847    4.0032 H   0  0  0  0  0  0  0  0  0  0  0  0
    1.4498  -11.3328    2.7687 H   0  0  0  0  0  0  0  0  0  0  0  0
    1.2491   -9.6924    2.1959 H   0  0  0  0  0  0  0  0  0  0  0  0
    3.6711  -10.8108    3.1842 H   0  0  0  0  0  0  0  0  0  0  0  0
    2.7303   -7.9593    2.8377 H   0  0  0  0  0  0  0  0  0  0  0  0
    4.7467   -9.6471    1.2650 H   0  0  0  0  0  0  0  0  0  0  0  0
    3.0876   -9.3767    0.7855 H   0  0  0  0  0  0  0  0  0  0  0  0
    4.6074   -7.8348   -0.4011 H   0  0  0  0  0  0  0  0  0  0  0  0
    3.4040   -7.0296    0.5443 H   0  0  0  0  0  0  0  0  0  0  0  0
    6.3228   -7.4483    1.2260 H   0  0  0  0  0  0  0  0  0  0  0  0
    5.8547   -5.6218   -0.3856 H   0  0  0  0  0  0  0  0  0  0  0  0
    7.3304   -4.7212    2.0984 H   0  0  0  0  0  0  0  0  0  0  0  0
    7.7423   -4.3997    0.4046 H   0  0  0  0  0  0  0  0  0  0  0  0
    7.8935   -6.0235    1.0909 H   0  0  0  0  0  0  0  0  0  0  0  0
    4.3884   -4.4008    1.9308 H   0  0  0  0  0  0  0  0  0  0  0  0
    3.6645   -5.0256   -0.8423 H   0  0  0  0  0  0  0  0  0  0  0  0
    2.6927   -5.0459    0.6274 H   0  0  0  0  0  0  0  0  0  0  0  0
    3.0559   -2.8843   -1.2899 H   0  0  0  0  0  0  0  0  0  0  0  0
    1.8192   -3.0554   -0.0716 H   0  0  0  0  0  0  0  0  0  0  0  0
    4.3342   -0.0445    0.5914 H   0  0  0  0  0  0  0  0  0  0  0  0
    2.6527   -0.2849    0.1241 H   0  0  0  0  0  0  0  0  0  0  0  0
    3.9337   -0.7205   -0.9833 H   0  0  0  0  0  0  0  0  0  0  0  0
    2.7929   -3.1116    2.4477 H   0  0  0  0  0  0  0  0  0  0  0  0
    1.0781    0.0385    3.4648 H   0  0  0  0  0  0  0  0  0  0  0  0
   -0.4014   -1.6091    4.3488 H   0  0  0  0  0  0  0  0  0  0  0  0
    0.8007   -2.8914    4.1830 H   0  0  0  0  0  0  0  0  0  0  0  0
    0.7972   -0.5472    6.1126 H   0  0  0  0  0  0  0  0  0  0  0  0
    1.2774   -3.2754    6.5792 H   0  0  0  0  0  0  0  0  0  0  0  0
    4.3433   -0.0149    6.4102 H   0  0  0  0  0  0  0  0  0  0  0  0
    3.0860   -0.4015    7.5720 H   0  0  0  0  0  0  0  0  0  0  0  0
    2.7798    0.7804    6.3008 H   0  0  0  0  0  0  0  0  0  0  0  0
    4.6343   -2.4186    5.8911 H   0  0  0  0  0  0  0  0  0  0  0  0
    3.3079   -3.4154    5.2871 H   0  0  0  0  0  0  0  0  0  0  0  0
    3.3761   -2.9069    6.9692 H   0  0  0  0  0  0  0  0  0  0  0  0
    3.5113    0.7184    2.7140 H   0  0  0  0  0  0  0  0  0  0  0  0
    4.6975    0.4016    4.0777 H   0  0  0  0  0  0  0  0  0  0  0  0
    5.7661   -1.6532    4.0127 H   0  0  0  0  0  0  0  0  0  0  0  0
    4.9855   -3.1790    3.6418 H   0  0  0  0  0  0  0  0  0  0  0  0
    6.1120   -1.1218    1.6788 H   0  0  0  0  0  0  0  0  0  0  0  0
    6.8562   -2.6495    2.0229 H   0  0  0  0  0  0  0  0  0  0  0  0
    5.9986   -1.4590   -0.7632 H   0  0  0  0  0  0  0  0  0  0  0  0
    5.3432   -2.9370   -1.4537 H   0  0  0  0  0  0  0  0  0  0  0  0
    6.8719   -2.9760   -0.5650 H   0  0  0  0  0  0  0  0  0  0  0  0
    5.5825   -8.7781    3.4663 H   0  0  0  0  0  0  0  0  0  0  0  0
    5.2958   -7.3912    5.5399 H   0  0  0  0  0  0  0  0  0  0  0  0
    3.6065   -7.1538    5.1564 H   0  0  0  0  0  0  0  0  0  0  0  0
    5.0138   -9.8163    5.6283 H   0  0  0  0  0  0  0  0  0  0  0  0
    3.9542   -9.0460    6.7715 H   0  0  0  0  0  0  0  0  0  0  0  0
    2.4115  -11.3446    6.2676 H   0  0  0  0  0  0  0  0  0  0  0  0
  1  2  2  0
  1 41  1  0
  1 42  1  0
  2  3  1  0
  2 43  1  0
  3 39  1  0
  3  4  1  0
  3 44  1  6
  4  5  1  0
  4 45  1  0
  4 46  1  0
  5  6  1  0
  5 47  1  0
  5 48  1  0
  6 39  1  0
  6  7  1  0
  6 49  1  1
  7 36  1  0
  7  8  1  0
  7 50  1  6
  8  9  1  0
  8 51  1  0
  8 52  1  0
  9 10  1  0
  9 53  1  0
  9 54  1  0
 10 11  1  0
 10 34  1  0
 10 55  1  1
 11 12  1  0
 11 13  1  0
 11 56  1  6
 12 57  1  0
 12 58  1  0
 12 59  1  0
 13 32  1  0
 13 14  1  0
 13 60  1  1
 14 15  1  0
 14 61  1  0
 14 62  1  0
 15 16  1  0
 15 63  1  0
 15 64  1  0
 16 32  1  0
 16 17  1  6
 16 18  1  0
 17 65  1  0
 17 66  1  0
 17 67  1  0
 18 29  1  0
 18 19  1  0
 18 68  1  1
 19 20  1  0
 20 27  1  0
 20 21  1  0
 20 69  1  6
 21 22  1  0
 21 70  1  0
 21 71  1  0
 22 23  1  0
 22 24  1  0
 22 72  1  1
 23 73  1  0
 24 25  1  0
 24 26  1  0
 27 24  1  1
 25 74  1  0
 25 75  1  0
 25 76  1  0
 26 77  1  0
 26 78  1  0
 26 79  1  0
 27 29  1  0
 27 28  1  0
 29 28  1  6
 28 80  1  0
 28 81  1  0
 29 30  1  0
 30 31  1  0
 30 82  1  0
 30 83  1  0
 31 32  1  0
 31 84  1  0
 31 85  1  0
 32 33  1  6
 33 86  1  0
 33 87  1  0
 33 88  1  0
 34 35  2  0
 34 36  1  0
 36 37  1  0
 36 89  1  1
 37 38  1  0
 37 90  1  0
 37 91  1  0
 38 39  1  0
 38 92  1  0
 38 93  1  0
 39 40  1  1
 40 94  1  0
M  END
>  <i_m_ct_stereo_status>  (221) 
1

>  <s_m_source_file>  (221) 
/var/tmp/pbs.5076255.sched01/tmpc36l9o9d/84wsylf1cs.sdf

>  <i_m_source_file_index>  (221) 
15

>  <i_lp_mmshare_version>  (221) 
48012

>  <i_f3d_flags>  (221) 
0

>  <s_epik_input>  (221) 
W0NIMl09W0NIXVtDQEBIXTFbQ0gyXVtDSDJdW0NASF0oW0NAXTEyW09IXSlbQ0BIXTNbQ0BIXShbQ0gyXVtDSDJdMilDKD1PKVtDQEBIXShbQ0gyXVtDSDJdMylbQ0BIXShbQ0gzXSlbQ0BIXShbQ0gyXVtDSDJdNClbQ0BdKFtDSDNdKShbQ0gyXVtDSDJdNSlbQ0BdNChbQ0gzXSlbQ0BASF0oW0NAXTUoW0NAQF02NzgpW0NIMl04KU9bQ0BIXTZbQ0gyXVtDQEBIXShbT0hdKUM3KFtDSDNdKVtDSDNd

>  <s_epik_cmdline>  (221) 
J2VwaWtfcHl0aG9uJywgJy1waHQnLCAnMi4wJywgJy1waCcsICc3LjAnLCAnLXRuJywgJzgnLCAnLW1hJywgJzIwMCcsICctaW1hZScsICc8aW5maWxlLm1hZT4nLCAnLW9tYWUnLCAnPG91dGZpbGUubWFlPic=

>  <r_lp_tautomer_probability>  (221) 
1

>  <r_epik_Ionization_Penalty>  (221) 
2.02425e-06

>  <r_epik_Ionization_Penalty_Charging>  (221) 
0

>  <r_epik_Ionization_Penalty_Neutral>  (221) 
2.02425e-06

>  <r_epik_State_Penalty>  (221) 
-0

>  <r_epik_Charging_Adjusted_Penalty>  (221) 
0

>  <i_epik_Tot_Q>  (221) 
0

>  <i_epik_Tot_abs_Q>  (221) 
0

>  <s_lp_Force_Field>  (221) 
OPLS3e

>  <r_lp_Energy>  (221) 
73.5674

>  <b_lp_Chiralities_Consistent>  (221) 
1

>  <s_lp_Variant>  (221) 
69:0-1

>  <s_i_glide_gridfile>  (221) 
pfpi4k_grid

>  <i_i_glide_lignum>  (221) 
15

>  <i_i_glide_rotatable_bonds>  (221) 
5

>  <r_i_docking_score>  (221) 
-2.31426

>  <r_i_glide_ligand_efficiency>  (221) 
-0.0578565

>  <r_i_glide_ligand_efficiency_sa>  (221) 
-0.197866

>  <r_i_glide_ligand_efficiency_ln>  (221) 
-0.493564

>  <r_i_glide_gscore>  (221) 
-2.31426

>  <r_i_glide_lipo>  (221) 
-0.729965

>  <r_i_glide_hbond>  (221) 
-0.16

>  <r_i_glide_metal>  (221) 
-0

>  <r_i_glide_rewards>  (221) 
-0.00165659

>  <r_i_glide_evdw>  (221) 
-25.975

>  <r_i_glide_ecoul>  (221) 
-1.7298

>  <r_i_glide_erotb>  (221) 
0.135581

>  <r_i_glide_esite>  (221) 
0

>  <r_i_glide_emodel>  (221) 
-27.7028

>  <r_i_glide_energy>  (221) 
-27.7048

>  <r_i_glide_einternal>  (221) 
6.83752

>  <r_i_glide_intrahb_reward>  (221) 
-0

>  <i_i_glide_confnum>  (221) 
5

>  <i_i_glide_posenum>  (221) 
27

>  <r_i_glide_eff_state_penalty>  (221) 
0

>  <ligand_id>  (221) 
69

>  <original_smiles>  (221) 
C=CC1CCC2C3CCC(C(C)C4CCC5(C)C6OC7CC(O)C(C)(C)C78CC68CCC45C)C(=O)C3CCC12O

>  <smiles>  (221) 
[H]OC1([H])C([H])([H])C2([H])OC3([H])C4(C([H])([H])[H])C([H])([H])C([H])([H])C([H])(C([H])(C([H])([H])[H])C5([H])C(=O)C6([H])C([H])([H])C([H])([H])C7(O[H])C([H])(C([H])=C([H])[H])C([H])([H])C([H])([H])C7([H])C6([H])C([H])([H])C5([H])[H])C4(C([H])([H])[H])C([H])([H])C([H])([H])C34C([H])([H])C24C1(C([H])([H])[H])C([H])([H])[H]

$$$$
69:0:1
     RDKit          3D

 94101  0  0  1  0  0  0  0  0999 V2000
    0.9460   -8.2051    7.6302 C   0  0  0  0  0  0  0  0  0  0  0  0
    1.2799   -9.3072    6.9685 C   0  0  0  0  0  0  0  0  0  0  0  0
    1.8122   -9.3459    5.5385 C   0  0  2  0  0  0  0  0  0  0  0  0
    0.9654  -10.1633    4.5621 C   0  0  0  0  0  0  0  0  0  0  0  0
    1.9167  -10.5244    3.4060 C   0  0  0  0  0  0  0  0  0  0  0  0
    3.3541  -10.1323    3.8504 C   0  0  1  0  0  0  0  0  0  0  0  0
    3.8591   -8.8758    3.0830 C   0  0  2  0  0  0  0  0  0  0  0  0
    4.3091   -9.2360    1.6458 C   0  0  0  0  0  0  0  0  0  0  0  0
    4.6749   -7.9740    0.8463 C   0  0  0  0  0  0  0  0  0  0  0  0
    5.7375   -7.0682    1.5225 C   0  0  1  0  0  0  0  0  0  0  0  0
    6.0735   -5.7310    0.7628 C   0  0  2  0  0  0  0  0  0  0  0  0
    7.4944   -5.2811    1.1740 C   0  0  0  0  0  0  0  0  0  0  0  0
    4.9526   -4.6267    0.8563 C   0  0  2  0  0  0  0  0  0  0  0  0
    3.6442   -5.0069    0.1298 C   0  0  0  0  0  0  0  0  0  0  0  0
    2.9850   -3.7252   -0.3688 C   0  0  0  0  0  0  0  0  0  0  0  0
    3.7530   -2.5834    0.3087 C   0  0  1  0  0  0  0  0  0  0  0  0
    3.6655   -1.2921   -0.5279 C   0  0  0  0  0  0  0  0  0  0  0  0
    3.1401   -2.3458    1.7374 C   0  0  2  0  0  0  0  0  0  0  0  0
    1.8298   -1.7747    1.8044 O   0  0  0  0  0  0  0  0  0  0  0  0
    1.6664   -1.0553    3.0290 C   0  0  1  0  0  0  0  0  0  0  0  0
    0.9271   -1.7924    4.1343 C   0  0  0  0  0  0  0  0  0  0  0  0
    1.5444   -1.2005    5.4025 C   0  0  1  0  0  0  0  0  0  0  0  0
    1.2672   -1.9823    6.5414 O   0  0  0  0  0  0  0  0  0  0  0  0
    3.0538   -0.9566    5.0857 C   0  0  0  0  0  0  0  0  0  0  0  0
    3.5349    0.3381    5.7661 C   0  0  0  0  0  0  0  0  0  0  0  0
    3.9344   -2.1285    5.5901 C   0  0  0  0  0  0  0  0  0  0  0  0
    3.0527   -0.8034    3.5499 C   0  0  2  0  0  0  0  0  0  0  0  0
    3.9768    0.0269    2.6990 C   0  0  0  0  0  0  0  0  0  0  0  0
    4.0123   -1.4814    2.6011 C   0  0  2  0  0  0  0  0  0  0  0  0
    5.3761   -2.1055    2.8018 C   0  0  0  0  0  0  0  0  0  0  0  0
    6.0424   -2.3099    1.4282 C   0  0  0  0  0  0  0  0  0  0  0  0
    5.2191   -3.1545    0.4107 C   0  0  1  0  0  0  0  0  0  0  0  0
    5.9341   -3.1096   -0.9667 C   0  0  0  0  0  0  0  0  0  0  0  0
    5.4752   -6.8999    3.0442 C   0  0  0  0  0  0  0  0  0  0  0  0
    5.6962   -5.8546    3.6367 O   0  0  0  0  0  0  0  0  0  0  0  0
    5.0168   -8.1618    3.8074 C   0  0  1  0  0  0  0  0  0  0  0  0
    4.6463   -7.8226    5.2632 C   0  0  0  0  0  0  0  0  0  0  0  0
    4.3536   -9.1127    6.0312 C   0  0  0  0  0  0  0  0  0  0  0  0
    3.2272   -9.9394    5.3807 C   0  0  1  0  0  0  0  0  0  0  0  0
    3.3195  -11.2203    5.9662 O   0  0  0  0  0  0  0  0  0  0  0  0
    1.0297   -7.2279    7.1722 H   0  0  0  0  0  0  0  0  0  0  0  0
    0.5815   -8.2601    8.6475 H   0  0  0  0  0  0  0  0  0  0  0  0
    1.1748  -10.2519    7.4778 H   0  0  0  0  0  0  0  0  0  0  0  0
    1.8184   -8.3136    5.1739 H   0  0  0  0  0  0  0  0  0  0  0  0
    0.6079  -11.0793    5.0389 H   0  0  0  0  0  0  0  0  0  0  0  0
    0.0906   -9.6123    4.2219 H   0  0  0  0  0  0  0  0  0  0  0  0
    1.8590  -11.5948    3.1910 H   0  0  0  0  0  0  0  0  0  0  0  0
    1.6203  -10.0071    2.4894 H   0  0  0  0  0  0  0  0  0  0  0  0
    4.0490  -10.9569    3.6406 H   0  0  0  0  0  0  0  0  0  0  0  0
    3.0208   -8.1799    3.0206 H   0  0  0  0  0  0  0  0  0  0  0  0
    5.1549   -9.9303    1.6731 H   0  0  0  0  0  0  0  0  0  0  0  0
    3.5017   -9.7536    1.1124 H   0  0  0  0  0  0  0  0  0  0  0  0
    5.0078   -8.2710   -0.1404 H   0  0  0  0  0  0  0  0  0  0  0  0
    3.7297   -7.4578    0.6941 H   0  0  0  0  0  0  0  0  0  0  0  0
    6.6544   -7.6553    1.4959 H   0  0  0  0  0  0  0  0  0  0  0  0
    6.1531   -5.9864   -0.2888 H   0  0  0  0  0  0  0  0  0  0  0  0
    7.4956   -4.7934    2.1418 H   0  0  0  0  0  0  0  0  0  0  0  0
    7.9608   -4.6028    0.4595 H   0  0  0  0  0  0  0  0  0  0  0  0
    8.1731   -6.1298    1.2647 H   0  0  0  0  0  0  0  0  0  0  0  0
    4.6677   -4.5605    1.8997 H   0  0  0  0  0  0  0  0  0  0  0  0
    3.8338   -5.6617   -0.7168 H   0  0  0  0  0  0  0  0  0  0  0  0
    2.9523   -5.5003    0.8130 H   0  0  0  0  0  0  0  0  0  0  0  0
    3.0913   -3.6815   -1.4547 H   0  0  0  0  0  0  0  0  0  0  0  0
    1.9128   -3.7052   -0.1587 H   0  0  0  0  0  0  0  0  0  0  0  0
    4.3295   -0.5139   -0.1571 H   0  0  0  0  0  0  0  0  0  0  0  0
    2.6574   -0.8936   -0.4938 H   0  0  0  0  0  0  0  0  0  0  0  0
    3.9020   -1.4735   -1.5768 H   0  0  0  0  0  0  0  0  0  0  0  0
    3.0331   -3.2867    2.2763 H   0  0  0  0  0  0  0  0  0  0  0  0
    1.1924   -0.0936    2.8391 H   0  0  0  0  0  0  0  0  0  0  0  0
   -0.1487   -1.6303    4.0745 H   0  0  0  0  0  0  0  0  0  0  0  0
    1.1124   -2.8629    4.0605 H   0  0  0  0  0  0  0  0  0  0  0  0
    1.0693   -0.2277    5.5654 H   0  0  0  0  0  0  0  0  0  0  0  0
    1.7136   -2.8258    6.4473 H   0  0  0  0  0  0  0  0  0  0  0  0
    4.5925    0.5201    5.5667 H   0  0  0  0  0  0  0  0  0  0  0  0
    3.4114    0.2777    6.8481 H   0  0  0  0  0  0  0  0  0  0  0  0
    2.9783    1.2081    5.4118 H   0  0  0  0  0  0  0  0  0  0  0  0
    4.9947   -1.9225    5.4458 H   0  0  0  0  0  0  0  0  0  0  0  0
    3.6957   -3.0714    5.0940 H   0  0  0  0  0  0  0  0  0  0  0  0
    3.8141   -2.2790    6.6634 H   0  0  0  0  0  0  0  0  0  0  0  0
    3.5467    0.5606    1.8608 H   0  0  0  0  0  0  0  0  0  0  0  0
    4.8052    0.5346    3.1875 H   0  0  0  0  0  0  0  0  0  0  0  0
    5.9758   -1.4271    3.3944 H   0  0  0  0  0  0  0  0  0  0  0  0
    5.2834   -3.0425    3.3499 H   0  0  0  0  0  0  0  0  0  0  0  0
    6.2134   -1.3187    1.0087 H   0  0  0  0  0  0  0  0  0  0  0  0
    7.0340   -2.7198    1.5764 H   0  0  0  0  0  0  0  0  0  0  0  0
    6.0347   -2.0896   -1.3297 H   0  0  0  0  0  0  0  0  0  0  0  0
    5.3966   -3.6748   -1.7235 H   0  0  0  0  0  0  0  0  0  0  0  0
    6.9470   -3.5109   -0.9307 H   0  0  0  0  0  0  0  0  0  0  0  0
    5.8735   -8.8319    3.8135 H   0  0  0  0  0  0  0  0  0  0  0  0
    5.4659   -7.2951    5.7538 H   0  0  0  0  0  0  0  0  0  0  0  0
    3.7879   -7.1521    5.2977 H   0  0  0  0  0  0  0  0  0  0  0  0
    5.2633   -9.7079    6.0429 H   0  0  0  0  0  0  0  0  0  0  0  0
    4.1188   -8.8935    7.0719 H   0  0  0  0  0  0  0  0  0  0  0  0
    2.5355  -11.4121    6.4749 H   0  0  0  0  0  0  0  0  0  0  0  0
  1  2  2  0
  1 41  1  0
  1 42  1  0
  2  3  1  0
  2 43  1  0
  3 39  1  0
  3  4  1  0
  3 44  1  6
  4  5  1  0
  4 45  1  0
  4 46  1  0
  5  6  1  0
  5 47  1  0
  5 48  1  0
  6 39  1  0
  6  7  1  0
  6 49  1  1
  7 36  1  0
  7  8  1  0
  7 50  1  6
  8  9  1  0
  8 51  1  0
  8 52  1  0
  9 10  1  0
  9 53  1  0
  9 54  1  0
 10 11  1  0
 10 34  1  0
 10 55  1  1
 11 12  1  0
 11 13  1  0
 11 56  1  6
 12 57  1  0
 12 58  1  0
 12 59  1  0
 13 32  1  0
 13 14  1  0
 13 60  1  1
 14 15  1  0
 14 61  1  0
 14 62  1  0
 15 16  1  0
 15 63  1  0
 15 64  1  0
 16 32  1  0
 16 17  1  6
 16 18  1  0
 17 65  1  0
 17 66  1  0
 17 67  1  0
 18 29  1  0
 18 19  1  0
 18 68  1  1
 19 20  1  0
 20 27  1  0
 20 21  1  0
 20 69  1  6
 21 22  1  0
 21 70  1  0
 21 71  1  0
 22 23  1  0
 22 24  1  0
 22 72  1  1
 23 73  1  0
 24 25  1  0
 24 26  1  0
 27 24  1  1
 25 74  1  0
 25 75  1  0
 25 76  1  0
 26 77  1  0
 26 78  1  0
 26 79  1  0
 27 29  1  0
 27 28  1  0
 29 28  1  6
 28 80  1  0
 28 81  1  0
 29 30  1  0
 30 31  1  0
 30 82  1  0
 30 83  1  0
 31 32  1  0
 31 84  1  0
 31 85  1  0
 32 33  1  6
 33 86  1  0
 33 87  1  0
 33 88  1  0
 34 35  2  0
 34 36  1  0
 36 37  1  0
 36 89  1  1
 37 38  1  0
 37 90  1  0
 37 91  1  0
 38 39  1  0
 38 92  1  0
 38 93  1  0
 39 40  1  1
 40 94  1  0
M  END
>  <i_m_ct_stereo_status>  (222) 
1

>  <s_m_source_file>  (222) 
/var/tmp/pbs.5076255.sched01/tmpc36l9o9d/84wsylf1cs.sdf

>  <i_m_source_file_index>  (222) 
15

>  <i_lp_mmshare_version>  (222) 
48012

>  <i_f3d_flags>  (222) 
0

>  <s_epik_input>  (222) 
W0NIMl09W0NIXVtDQEBIXTFbQ0gyXVtDSDJdW0NASF0oW0NAXTEyW09IXSlbQ0BIXTNbQ0BIXShbQ0gyXVtDSDJdMilDKD1PKVtDQEBIXShbQ0gyXVtDSDJdMylbQ0BIXShbQ0gzXSlbQ0BIXShbQ0gyXVtDSDJdNClbQ0BdKFtDSDNdKShbQ0gyXVtDSDJdNSlbQ0BdNChbQ0gzXSlbQ0BASF0oW0NAXTUoW0NAQF02NzgpW0NIMl04KU9bQ0BIXTZbQ0gyXVtDQEBIXShbT0hdKUM3KFtDSDNdKVtDSDNd

>  <s_epik_cmdline>  (222) 
J2VwaWtfcHl0aG9uJywgJy1waHQnLCAnMi4wJywgJy1waCcsICc3LjAnLCAnLXRuJywgJzgnLCAnLW1hJywgJzIwMCcsICctaW1hZScsICc8aW5maWxlLm1hZT4nLCAnLW9tYWUnLCAnPG91dGZpbGUubWFlPic=

>  <r_lp_tautomer_probability>  (222) 
1

>  <r_epik_Ionization_Penalty>  (222) 
2.02425e-06

>  <r_epik_Ionization_Penalty_Charging>  (222) 
0

>  <r_epik_Ionization_Penalty_Neutral>  (222) 
2.02425e-06

>  <r_epik_State_Penalty>  (222) 
-0

>  <r_epik_Charging_Adjusted_Penalty>  (222) 
0

>  <i_epik_Tot_Q>  (222) 
0

>  <i_epik_Tot_abs_Q>  (222) 
0

>  <s_lp_Force_Field>  (222) 
OPLS3e

>  <r_lp_Energy>  (222) 
73.5674

>  <b_lp_Chiralities_Consistent>  (222) 
1

>  <s_lp_Variant>  (222) 
69:0-1

>  <s_i_glide_gridfile>  (222) 
pfpi4k_grid

>  <i_i_glide_lignum>  (222) 
15

>  <i_i_glide_rotatable_bonds>  (222) 
5

>  <r_i_docking_score>  (222) 
-2.23312

>  <r_i_glide_ligand_efficiency>  (222) 
-0.0558281

>  <r_i_glide_ligand_efficiency_sa>  (222) 
-0.190929

>  <r_i_glide_ligand_efficiency_ln>  (222) 
-0.476259

>  <r_i_glide_gscore>  (222) 
-2.23312

>  <r_i_glide_lipo>  (222) 
-0.722547

>  <r_i_glide_hbond>  (222) 
-0.16

>  <r_i_glide_metal>  (222) 
-0

>  <r_i_glide_rewards>  (222) 
-0.00358933

>  <r_i_glide_evdw>  (222) 
-22.5388

>  <r_i_glide_ecoul>  (222) 
-2.37085

>  <r_i_glide_erotb>  (222) 
0.135581

>  <r_i_glide_esite>  (222) 
0

>  <r_i_glide_emodel>  (222) 
-25.9714

>  <r_i_glide_energy>  (222) 
-24.9096

>  <r_i_glide_einternal>  (222) 
5.04409

>  <r_i_glide_intrahb_reward>  (222) 
-0

>  <i_i_glide_confnum>  (222) 
4

>  <i_i_glide_posenum>  (222) 
16

>  <r_i_glide_eff_state_penalty>  (222) 
0

>  <ligand_id>  (222) 
69

>  <original_smiles>  (222) 
C=CC1CCC2C3CCC(C(C)C4CCC5(C)C6OC7CC(O)C(C)(C)C78CC68CCC45C)C(=O)C3CCC12O

>  <smiles>  (222) 
[H]OC1([H])C([H])([H])C2([H])OC3([H])C4(C([H])([H])[H])C([H])([H])C([H])([H])C([H])(C([H])(C([H])([H])[H])C5([H])C(=O)C6([H])C([H])([H])C([H])([H])C7(O[H])C([H])(C([H])=C([H])[H])C([H])([H])C([H])([H])C7([H])C6([H])C([H])([H])C5([H])[H])C4(C([H])([H])[H])C([H])([H])C([H])([H])C34C([H])([H])C24C1(C([H])([H])[H])C([H])([H])[H]

$$$$
69:0:2
     RDKit          3D

 94101  0  0  1  0  0  0  0  0999 V2000
    0.3787   -8.4313    7.1779 C   0  0  0  0  0  0  0  0  0  0  0  0
    0.6202   -9.4963    6.3891 C   0  0  0  0  0  0  0  0  0  0  0  0
    1.2750   -9.4184    5.0215 C   0  0  2  0  0  0  0  0  0  0  0  0
    0.4893  -10.1122    3.9060 C   0  0  0  0  0  0  0  0  0  0  0  0
    1.5235  -10.4231    2.8134 C   0  0  0  0  0  0  0  0  0  0  0  0
    2.9291  -10.1350    3.4044 C   0  0  1  0  0  0  0  0  0  0  0  0
    3.5520   -8.8557    2.7877 C   0  0  2  0  0  0  0  0  0  0  0  0
    4.1130   -9.1329    1.3782 C   0  0  0  0  0  0  0  0  0  0  0  0
    4.5847   -7.8303    0.7110 C   0  0  0  0  0  0  0  0  0  0  0  0
    5.6211   -7.0198    1.5485 C   0  0  1  0  0  0  0  0  0  0  0  0
    6.0601   -5.6499    0.9128 C   0  0  2  0  0  0  0  0  0  0  0  0
    7.4160   -5.2199    1.5216 C   0  0  0  0  0  0  0  0  0  0  0  0
    4.9481   -4.5331    0.9521 C   0  0  2  0  0  0  0  0  0  0  0  0
    3.6994   -4.8847    0.1191 C   0  0  0  0  0  0  0  0  0  0  0  0
    3.0978   -3.5921   -0.4211 C   0  0  0  0  0  0  0  0  0  0  0  0
    3.8205   -2.4624    0.3195 C   0  0  1  0  0  0  0  0  0  0  0  0
    3.8146   -1.1714   -0.5276 C   0  0  0  0  0  0  0  0  0  0  0  0
    3.1077   -2.2294    1.6996 C   0  0  2  0  0  0  0  0  0  0  0  0
    1.7955   -1.6598    1.6787 O   0  0  0  0  0  0  0  0  0  0  0  0
    1.5486   -0.9224    2.8732 C   0  0  1  0  0  0  0  0  0  0  0  0
    0.7210   -1.6507    3.9108 C   0  0  0  0  0  0  0  0  0  0  0  0
    1.2467   -1.0673    5.2221 C   0  0  1  0  0  0  0  0  0  0  0  0
    0.8867   -1.8916    6.3124 O   0  0  0  0  0  0  0  0  0  0  0  0
    2.7757   -0.8392    5.0283 C   0  0  0  0  0  0  0  0  0  0  0  0
    3.2127    0.4512    5.7456 C   0  0  0  0  0  0  0  0  0  0  0  0
    3.6030   -2.0225    5.5939 C   0  0  0  0  0  0  0  0  0  0  0  0
    2.8939   -0.6866    3.4966 C   0  0  2  0  0  0  0  0  0  0  0  0
    3.8837    0.1364    2.7208 C   0  0  0  0  0  0  0  0  0  0  0  0
    3.9173   -1.3707    2.6300 C   0  0  2  0  0  0  0  0  0  0  0  0
    5.2578   -2.0087    2.9370 C   0  0  0  0  0  0  0  0  0  0  0  0
    6.0246   -2.2204    1.6153 C   0  0  0  0  0  0  0  0  0  0  0  0
    5.2657   -3.0566    0.5376 C   0  0  1  0  0  0  0  0  0  0  0  0
    6.1031   -3.0277   -0.7750 C   0  0  0  0  0  0  0  0  0  0  0  0
    5.2203   -6.9547    3.0396 C   0  0  0  0  0  0  0  0  0  0  0  0
    5.3823   -5.9374    3.7202 O   0  0  0  0  0  0  0  0  0  0  0  0
    4.6656   -8.2440    3.6681 C   0  0  1  0  0  0  0  0  0  0  0  0
    4.1792   -8.0147    5.1133 C   0  0  0  0  0  0  0  0  0  0  0  0
    3.7725   -9.3497    5.7421 C   0  0  0  0  0  0  0  0  0  0  0  0
    2.6744  -10.0658    4.9272 C   0  0  1  0  0  0  0  0  0  0  0  0
    2.6233  -11.4082    5.3726 O   0  0  0  0  0  0  0  0  0  0  0  0
    0.6481   -7.4410    6.8558 H   0  0  0  0  0  0  0  0  0  0  0  0
   -0.0857   -8.5473    8.1420 H   0  0  0  0  0  0  0  0  0  0  0  0
    0.3355  -10.4762    6.7402 H   0  0  0  0  0  0  0  0  0  0  0  0
    1.3525   -8.3621    4.7542 H   0  0  0  0  0  0  0  0  0  0  0  0
    0.0722  -11.0508    4.2703 H   0  0  0  0  0  0  0  0  0  0  0  0
   -0.3365   -9.5020    3.5449 H   0  0  0  0  0  0  0  0  0  0  0  0
    1.4466  -11.4718    2.5265 H   0  0  0  0  0  0  0  0  0  0  0  0
    1.3289   -9.8302    1.9195 H   0  0  0  0  0  0  0  0  0  0  0  0
    3.6016  -10.9708    3.1920 H   0  0  0  0  0  0  0  0  0  0  0  0
    2.7499   -8.1184    2.7088 H   0  0  0  0  0  0  0  0  0  0  0  0
    4.9218   -9.8739    1.4216 H   0  0  0  0  0  0  0  0  0  0  0  0
    3.3410   -9.5705    0.7439 H   0  0  0  0  0  0  0  0  0  0  0  0
    5.0051   -8.0808   -0.2608 H   0  0  0  0  0  0  0  0  0  0  0  0
    3.6788   -7.2495    0.5350 H   0  0  0  0  0  0  0  0  0  0  0  0
    6.5245   -7.6333    1.5639 H   0  0  0  0  0  0  0  0  0  0  0  0
    6.2668   -5.8563   -0.1332 H   0  0  0  0  0  0  0  0  0  0  0  0
    7.2734   -4.7678    2.4938 H   0  0  0  0  0  0  0  0  0  0  0  0
    7.9624   -4.5037    0.9137 H   0  0  0  0  0  0  0  0  0  0  0  0
    8.0887   -6.0671    1.6603 H   0  0  0  0  0  0  0  0  0  0  0  0
    4.6088   -4.4790    1.9800 H   0  0  0  0  0  0  0  0  0  0  0  0
    3.9502   -5.5287   -0.7211 H   0  0  0  0  0  0  0  0  0  0  0  0
    2.9613   -5.3897    0.7391 H   0  0  0  0  0  0  0  0  0  0  0  0
    3.2869   -3.5423   -1.4962 H   0  0  0  0  0  0  0  0  0  0  0  0
    2.0148   -3.5562   -0.3000 H   0  0  0  0  0  0  0  0  0  0  0  0
    4.4504   -0.3946   -0.1070 H   0  0  0  0  0  0  0  0  0  0  0  0
    2.8096   -0.7710   -0.5900 H   0  0  0  0  0  0  0  0  0  0  0  0
    4.1389   -1.3569   -1.5524 H   0  0  0  0  0  0  0  0  0  0  0  0
    2.9624   -3.1762    2.2201 H   0  0  0  0  0  0  0  0  0  0  0  0
    1.0977    0.0410    2.6416 H   0  0  0  0  0  0  0  0  0  0  0  0
   -0.3455   -1.4800    3.7701 H   0  0  0  0  0  0  0  0  0  0  0  0
    0.9005   -2.7229    3.8533 H   0  0  0  0  0  0  0  0  0  0  0  0
    0.7582   -0.1003    5.3612 H   0  0  0  0  0  0  0  0  0  0  0  0
   -0.0358   -2.0830    6.2422 H   0  0  0  0  0  0  0  0  0  0  0  0
    4.2840    0.6220    5.6271 H   0  0  0  0  0  0  0  0  0  0  0  0
    3.0037    0.3872    6.8147 H   0  0  0  0  0  0  0  0  0  0  0  0
    2.6903    1.3239    5.3497 H   0  0  0  0  0  0  0  0  0  0  0  0
    4.6736   -1.8286    5.5339 H   0  0  0  0  0  0  0  0  0  0  0  0
    3.3880   -2.9590    5.0775 H   0  0  0  0  0  0  0  0  0  0  0  0
    3.3925   -2.1773    6.6528 H   0  0  0  0  0  0  0  0  0  0  0  0
    3.5242    0.6778    1.8507 H   0  0  0  0  0  0  0  0  0  0  0  0
    4.6717    0.6448    3.2728 H   0  0  0  0  0  0  0  0  0  0  0  0
    5.8229   -1.3483    3.5921 H   0  0  0  0  0  0  0  0  0  0  0  0
    5.1113   -2.9526    3.4622 H   0  0  0  0  0  0  0  0  0  0  0  0
    6.2415   -1.2327    1.2050 H   0  0  0  0  0  0  0  0  0  0  0  0
    7.0007   -2.6481    1.8142 H   0  0  0  0  0  0  0  0  0  0  0  0
    6.2621   -2.0093   -1.1247 H   0  0  0  0  0  0  0  0  0  0  0  0
    5.6238   -3.5880   -1.5769 H   0  0  0  0  0  0  0  0  0  0  0  0
    7.0945   -3.4522   -0.6443 H   0  0  0  0  0  0  0  0  0  0  0  0
    5.4963   -8.9500    3.6908 H   0  0  0  0  0  0  0  0  0  0  0  0
    4.9760   -7.5605    5.7101 H   0  0  0  0  0  0  0  0  0  0  0  0
    3.3473   -7.3068    5.1308 H   0  0  0  0  0  0  0  0  0  0  0  0
    4.6587   -9.9835    5.7802 H   0  0  0  0  0  0  0  0  0  0  0  0
    3.4574   -9.1945    6.7752 H   0  0  0  0  0  0  0  0  0  0  0  0
    2.1983  -11.4500    6.2257 H   0  0  0  0  0  0  0  0  0  0  0  0
  1  2  2  0
  1 41  1  0
  1 42  1  0
  2  3  1  0
  2 43  1  0
  3 39  1  0
  3  4  1  0
  3 44  1  6
  4  5  1  0
  4 45  1  0
  4 46  1  0
  5  6  1  0
  5 47  1  0
  5 48  1  0
  6 39  1  0
  6  7  1  0
  6 49  1  1
  7 36  1  0
  7  8  1  0
  7 50  1  6
  8  9  1  0
  8 51  1  0
  8 52  1  0
  9 10  1  0
  9 53  1  0
  9 54  1  0
 10 11  1  0
 10 34  1  0
 10 55  1  1
 11 12  1  0
 11 13  1  0
 11 56  1  6
 12 57  1  0
 12 58  1  0
 12 59  1  0
 13 32  1  0
 13 14  1  0
 13 60  1  1
 14 15  1  0
 14 61  1  0
 14 62  1  0
 15 16  1  0
 15 63  1  0
 15 64  1  0
 16 32  1  0
 16 17  1  6
 16 18  1  0
 17 65  1  0
 17 66  1  0
 17 67  1  0
 18 29  1  0
 18 19  1  0
 18 68  1  1
 19 20  1  0
 20 27  1  0
 20 21  1  0
 20 69  1  6
 21 22  1  0
 21 70  1  0
 21 71  1  0
 22 23  1  0
 22 24  1  0
 22 72  1  1
 23 73  1  0
 24 25  1  0
 24 26  1  0
 27 24  1  1
 25 74  1  0
 25 75  1  0
 25 76  1  0
 26 77  1  0
 26 78  1  0
 26 79  1  0
 27 29  1  0
 27 28  1  0
 29 28  1  6
 28 80  1  0
 28 81  1  0
 29 30  1  0
 30 31  1  0
 30 82  1  0
 30 83  1  0
 31 32  1  0
 31 84  1  0
 31 85  1  0
 32 33  1  6
 33 86  1  0
 33 87  1  0
 33 88  1  0
 34 35  2  0
 34 36  1  0
 36 37  1  0
 36 89  1  1
 37 38  1  0
 37 90  1  0
 37 91  1  0
 38 39  1  0
 38 92  1  0
 38 93  1  0
 39 40  1  1
 40 94  1  0
M  END
>  <i_m_ct_stereo_status>  (223) 
1

>  <s_m_source_file>  (223) 
/var/tmp/pbs.5076255.sched01/tmpc36l9o9d/84wsylf1cs.sdf

>  <i_m_source_file_index>  (223) 
15

>  <i_lp_mmshare_version>  (223) 
48012

>  <i_f3d_flags>  (223) 
0

>  <s_epik_input>  (223) 
W0NIMl09W0NIXVtDQEBIXTFbQ0gyXVtDSDJdW0NASF0oW0NAXTEyW09IXSlbQ0BIXTNbQ0BIXShbQ0gyXVtDSDJdMilDKD1PKVtDQEBIXShbQ0gyXVtDSDJdMylbQ0BIXShbQ0gzXSlbQ0BIXShbQ0gyXVtDSDJdNClbQ0BdKFtDSDNdKShbQ0gyXVtDSDJdNSlbQ0BdNChbQ0gzXSlbQ0BASF0oW0NAXTUoW0NAQF02NzgpW0NIMl04KU9bQ0BIXTZbQ0gyXVtDQEBIXShbT0hdKUM3KFtDSDNdKVtDSDNd

>  <s_epik_cmdline>  (223) 
J2VwaWtfcHl0aG9uJywgJy1waHQnLCAnMi4wJywgJy1waCcsICc3LjAnLCAnLXRuJywgJzgnLCAnLW1hJywgJzIwMCcsICctaW1hZScsICc8aW5maWxlLm1hZT4nLCAnLW9tYWUnLCAnPG91dGZpbGUubWFlPic=

>  <r_lp_tautomer_probability>  (223) 
1

>  <r_epik_Ionization_Penalty>  (223) 
2.02425e-06

>  <r_epik_Ionization_Penalty_Charging>  (223) 
0

>  <r_epik_Ionization_Penalty_Neutral>  (223) 
2.02425e-06

>  <r_epik_State_Penalty>  (223) 
-0

>  <r_epik_Charging_Adjusted_Penalty>  (223) 
0

>  <i_epik_Tot_Q>  (223) 
0

>  <i_epik_Tot_abs_Q>  (223) 
0

>  <s_lp_Force_Field>  (223) 
OPLS3e

>  <r_lp_Energy>  (223) 
73.5674

>  <b_lp_Chiralities_Consistent>  (223) 
1

>  <s_lp_Variant>  (223) 
69:0-1

>  <s_i_glide_gridfile>  (223) 
pfpi4k_grid

>  <i_i_glide_lignum>  (223) 
15

>  <i_i_glide_rotatable_bonds>  (223) 
5

>  <r_i_docking_score>  (223) 
-2.19041

>  <r_i_glide_ligand_efficiency>  (223) 
-0.0547604

>  <r_i_glide_ligand_efficiency_sa>  (223) 
-0.187278

>  <r_i_glide_ligand_efficiency_ln>  (223) 
-0.467151

>  <r_i_glide_gscore>  (223) 
-2.19041

>  <r_i_glide_lipo>  (223) 
-0.747741

>  <r_i_glide_hbond>  (223) 
-0.16

>  <r_i_glide_metal>  (223) 
-0

>  <r_i_glide_rewards>  (223) 
-0.00109581

>  <r_i_glide_evdw>  (223) 
-24.1199

>  <r_i_glide_ecoul>  (223) 
-1.40778

>  <r_i_glide_erotb>  (223) 
0.135581

>  <r_i_glide_esite>  (223) 
0

>  <r_i_glide_emodel>  (223) 
-26.2785

>  <r_i_glide_energy>  (223) 
-25.5276

>  <r_i_glide_einternal>  (223) 
5.21371

>  <r_i_glide_intrahb_reward>  (223) 
-0

>  <i_i_glide_confnum>  (223) 
4

>  <i_i_glide_posenum>  (223) 
40

>  <r_i_glide_eff_state_penalty>  (223) 
0

>  <ligand_id>  (223) 
69

>  <original_smiles>  (223) 
C=CC1CCC2C3CCC(C(C)C4CCC5(C)C6OC7CC(O)C(C)(C)C78CC68CCC45C)C(=O)C3CCC12O

>  <smiles>  (223) 
[H]OC1([H])C([H])([H])C2([H])OC3([H])C4(C([H])([H])[H])C([H])([H])C([H])([H])C([H])(C([H])(C([H])([H])[H])C5([H])C(=O)C6([H])C([H])([H])C([H])([H])C7(O[H])C([H])(C([H])=C([H])[H])C([H])([H])C([H])([H])C7([H])C6([H])C([H])([H])C5([H])[H])C4(C([H])([H])[H])C([H])([H])C([H])([H])C34C([H])([H])C24C1(C([H])([H])[H])C([H])([H])[H]

$$$$
71:0:0
     RDKit          3D

 54 59  0  0  1  0  0  0  0  0999 V2000
    4.8826   -3.8001   -3.0835 C   0  0  0  0  0  0  0  0  0  0  0  0
    5.0523   -4.2602   -1.7407 O   0  0  0  0  0  0  0  0  0  0  0  0
    3.9595   -4.0607   -0.8477 C   0  0  2  0  0  0  0  0  0  0  0  0
    3.9032   -2.5647   -0.3624 C   0  0  0  0  0  0  0  0  0  0  0  0
    4.9676   -1.9606    0.6174 C   0  0  2  0  0  0  0  0  0  0  0  0
    4.8621   -0.5873    0.2822 O   0  0  0  0  0  0  0  0  0  0  0  0
    6.3925   -2.3893    0.2309 C   0  0  0  0  0  0  0  0  0  0  0  0
    6.9825   -1.8653   -0.7224 O   0  0  0  0  0  0  0  0  0  0  0  0
    7.0852   -3.4688    1.0269 C   0  0  0  0  0  0  0  0  0  0  0  0
    6.5372   -4.8610    0.7621 C   0  0  0  0  0  0  0  0  0  0  0  0
    5.1000   -5.1650    1.2681 C   0  0  2  0  0  0  0  0  0  0  0  0
    5.3458   -6.5591    1.4594 O   0  0  0  0  0  0  0  0  0  0  0  0
    3.8504   -5.2121    0.2205 C   0  0  1  0  0  0  0  0  0  0  0  0
    2.3581   -5.0902    0.8478 C   0  0  1  0  0  0  0  0  0  0  0  0
    1.4437   -6.0005    1.5931 O   0  0  0  0  0  0  0  0  0  0  0  0
    1.1868   -5.7885    3.0072 C   0  0  0  0  0  0  0  0  0  0  0  0
    0.2258   -6.3170    3.5955 O   0  0  0  0  0  0  0  0  0  0  0  0
    2.2943   -4.8821    3.6605 C   0  0  1  0  0  0  0  0  0  0  0  0
    2.4815   -5.1867    5.0096 O   0  0  0  0  0  0  0  0  0  0  0  0
    3.4154   -5.0353    2.7474 C   0  0  2  0  0  0  0  0  0  0  0  0
    4.7783   -4.5559    2.7138 C   0  0  2  0  0  0  0  0  0  0  0  0
    4.2739   -3.1496    3.0781 C   0  0  1  0  0  0  0  0  0  0  0  0
    4.6668   -1.9091    2.1788 C   0  0  1  0  0  0  0  0  0  0  0  0
    5.8021   -1.3059    2.8002 O   0  0  0  0  0  0  0  0  0  0  0  0
    5.5047   -0.3210    3.7831 C   0  0  0  0  0  0  0  0  0  0  0  0
    2.7403   -3.4647    3.1737 C   0  0  2  0  0  0  0  0  0  0  0  0
    1.8843   -2.2808    3.6756 C   0  0  0  0  0  0  0  0  0  0  0  0
    2.5597   -3.9823    1.7836 C   0  0  1  0  0  0  0  0  0  0  0  0
    5.8233   -3.8707   -3.6237 H   0  0  0  0  0  0  0  0  0  0  0  0
    4.5682   -2.7621   -3.1675 H   0  0  0  0  0  0  0  0  0  0  0  0
    4.1558   -4.4000   -3.6264 H   0  0  0  0  0  0  0  0  0  0  0  0
    3.0769   -4.1973   -1.4724 H   0  0  0  0  0  0  0  0  0  0  0  0
    3.9480   -1.9648   -1.2705 H   0  0  0  0  0  0  0  0  0  0  0  0
    2.9030   -2.3206   -0.0082 H   0  0  0  0  0  0  0  0  0  0  0  0
    3.9705   -0.3016    0.4189 H   0  0  0  0  0  0  0  0  0  0  0  0
    8.1446   -3.4480    0.7696 H   0  0  0  0  0  0  0  0  0  0  0  0
    7.0123   -3.2484    2.0807 H   0  0  0  0  0  0  0  0  0  0  0  0
    6.6389   -5.1230   -0.2854 H   0  0  0  0  0  0  0  0  0  0  0  0
    7.2646   -5.5086    1.2601 H   0  0  0  0  0  0  0  0  0  0  0  0
    4.5739   -6.9756    1.8155 H   0  0  0  0  0  0  0  0  0  0  0  0
    3.8888   -6.1488   -0.3390 H   0  0  0  0  0  0  0  0  0  0  0  0
    1.7238   -4.7742    0.0192 H   0  0  0  0  0  0  0  0  0  0  0  0
    3.1822   -4.6362    5.3170 H   0  0  0  0  0  0  0  0  0  0  0  0
    3.4478   -6.1240    2.6631 H   0  0  0  0  0  0  0  0  0  0  0  0
    5.3926   -4.9912    3.5024 H   0  0  0  0  0  0  0  0  0  0  0  0
    4.6152   -2.9395    4.0926 H   0  0  0  0  0  0  0  0  0  0  0  0
    3.8518   -1.1924    2.2789 H   0  0  0  0  0  0  0  0  0  0  0  0
    6.4332    0.0589    4.2092 H   0  0  0  0  0  0  0  0  0  0  0  0
    4.9077   -0.7259    4.6010 H   0  0  0  0  0  0  0  0  0  0  0  0
    4.9783    0.5287    3.3511 H   0  0  0  0  0  0  0  0  0  0  0  0
    1.8699   -1.4379    2.9837 H   0  0  0  0  0  0  0  0  0  0  0  0
    2.2175   -1.9165    4.6479 H   0  0  0  0  0  0  0  0  0  0  0  0
    0.8393   -2.5761    3.7975 H   0  0  0  0  0  0  0  0  0  0  0  0
    1.5312   -3.6285    1.8501 H   0  0  0  0  0  0  0  0  0  0  0  0
  1  2  1  0
  1 29  1  0
  1 30  1  0
  1 31  1  0
  2  3  1  0
  3 13  1  0
  3  4  1  0
  3 32  1  6
  4  5  1  0
  4 33  1  0
  4 34  1  0
  5 23  1  0
  5  6  1  6
  5  7  1  0
  6 35  1  0
  7  8  2  0
  7  9  1  0
  9 10  1  0
  9 36  1  0
  9 37  1  0
 10 11  1  0
 10 38  1  0
 10 39  1  0
 11 21  1  0
 11 12  1  1
 11 13  1  0
 12 40  1  0
 13 14  1  0
 13 41  1  6
 14 28  1  0
 14 15  1  0
 14 42  1  6
 15 16  1  0
 16 17  2  0
 16 18  1  0
 18 26  1  0
 18 19  1  1
 18 20  1  0
 19 43  1  0
 20 28  1  0
 20 21  1  0
 20 44  1  6
 21 22  1  0
 21 45  1  1
 22 23  1  0
 22 26  1  0
 22 46  1  1
 23 24  1  0
 23 47  1  6
 24 25  1  0
 25 48  1  0
 25 49  1  0
 25 50  1  0
 26 27  1  1
 26 28  1  0
 27 51  1  0
 27 52  1  0
 27 53  1  0
 28 54  1  6
M  END
>  <i_m_ct_stereo_status>  (224) 
1

>  <s_m_source_file>  (224) 
/var/tmp/pbs.5076255.sched01/tmpc36l9o9d/84wsylf1cs.sdf

>  <i_m_source_file_index>  (224) 
17

>  <i_lp_mmshare_version>  (224) 
48012

>  <i_f3d_flags>  (224) 
0

>  <s_epik_input>  (224) 
W09IXVtDQEBdMTJbQ0gyXVtDQEBIXShPW0NIM10pW0NASF0zW0NAQF0oW09IXSkoW0NIMl1bQ0gyXUMxPU8pW0NAQEhdNFtDQEhdNVtDQEBdNihbT0hdKVtDQEBdKFtDSDNdKShbQ0BASF00W0NASF0yT1tDSDNdKVtDSF01W0NAQEhdM09DNj1P

>  <s_epik_cmdline>  (224) 
J2VwaWtfcHl0aG9uJywgJy1waHQnLCAnMi4wJywgJy1waCcsICc3LjAnLCAnLXRuJywgJzgnLCAnLW1hJywgJzIwMCcsICctaW1hZScsICc8aW5maWxlLm1hZT4nLCAnLW9tYWUnLCAnPG91dGZpbGUubWFlPic=

>  <r_lp_tautomer_probability>  (224) 
1

>  <r_epik_Ionization_Penalty>  (224) 
9.61937e-08

>  <r_epik_Ionization_Penalty_Charging>  (224) 
0

>  <r_epik_Ionization_Penalty_Neutral>  (224) 
9.61937e-08

>  <r_epik_State_Penalty>  (224) 
-0

>  <r_epik_Charging_Adjusted_Penalty>  (224) 
0

>  <i_epik_Tot_Q>  (224) 
0

>  <i_epik_Tot_abs_Q>  (224) 
0

>  <s_epik_Chemistry_Notes>  (224) 
This compound has an ester and may undergo hydrolysis at high or low pH.

>  <s_lp_Force_Field>  (224) 
OPLS3e

>  <r_lp_Energy>  (224) 
268.103

>  <b_lp_Chiralities_Consistent>  (224) 
1

>  <s_lp_Variant>  (224) 
71:0-1

>  <s_i_glide_gridfile>  (224) 
pfpi4k_grid

>  <i_i_glide_lignum>  (224) 
17

>  <i_i_glide_rotatable_bonds>  (224) 
5

>  <r_i_docking_score>  (224) 
-3.43423

>  <r_i_glide_ligand_efficiency>  (224) 
-0.122651

>  <r_i_glide_ligand_efficiency_sa>  (224) 
-0.372441

>  <r_i_glide_ligand_efficiency_ln>  (224) 
-0.79272

>  <r_i_glide_gscore>  (224) 
-3.43423

>  <r_i_glide_lipo>  (224) 
-0.48606

>  <r_i_glide_hbond>  (224) 
-0.259331

>  <r_i_glide_metal>  (224) 
-0

>  <r_i_glide_rewards>  (224) 
-0.792906

>  <r_i_glide_evdw>  (224) 
-20.5822

>  <r_i_glide_ecoul>  (224) 
-5.54864

>  <r_i_glide_erotb>  (224) 
0

>  <r_i_glide_esite>  (224) 
-0.0345222

>  <r_i_glide_emodel>  (224) 
-30.5002

>  <r_i_glide_energy>  (224) 
-26.1309

>  <r_i_glide_einternal>  (224) 
1.6381

>  <r_i_glide_intrahb_reward>  (224) 
-0

>  <i_i_glide_confnum>  (224) 
2

>  <i_i_glide_posenum>  (224) 
29

>  <r_i_glide_eff_state_penalty>  (224) 
0

>  <ligand_id>  (224) 
71

>  <original_smiles>  (224) 
COC1CC2(O)C(=O)CCC3(O)C1C1OC(=O)C4(O)C5C3C(C2OC)C4(C)C15

>  <smiles>  (224) 
[H]OC12C(=O)C([H])([H])C([H])([H])C3(O[H])C([H])(C([H])(OC([H])([H])[H])C1([H])[H])C1([H])OC(=O)C4(O[H])C5([H])C3([H])C([H])(C2([H])OC([H])([H])[H])C4(C([H])([H])[H])C15[H]

$$$$
71:0:1
     RDKit          3D

 54 59  0  0  1  0  0  0  0  0999 V2000
    4.0601   -1.8034   -2.7520 C   0  0  0  0  0  0  0  0  0  0  0  0
    4.5204   -2.6011   -1.6620 O   0  0  0  0  0  0  0  0  0  0  0  0
    3.5369   -2.9289   -0.6771 C   0  0  2  0  0  0  0  0  0  0  0  0
    3.3224   -1.7435    0.3380 C   0  0  0  0  0  0  0  0  0  0  0  0
    4.3914   -1.3386    1.4132 C   0  0  2  0  0  0  0  0  0  0  0  0
    4.0242    0.0205    1.6297 O   0  0  0  0  0  0  0  0  0  0  0  0
    5.8034   -1.3275    0.8048 C   0  0  0  0  0  0  0  0  0  0  0  0
    6.1863   -0.4154    0.0839 O   0  0  0  0  0  0  0  0  0  0  0  0
    6.7522   -2.4659    1.0739 C   0  0  0  0  0  0  0  0  0  0  0  0
    6.3993   -3.7395    0.3262 C   0  0  0  0  0  0  0  0  0  0  0  0
    5.1013   -4.4725    0.7847 C   0  0  2  0  0  0  0  0  0  0  0  0
    5.5579   -5.7788    0.4412 O   0  0  0  0  0  0  0  0  0  0  0  0
    3.7483   -4.3768   -0.1129 C   0  0  1  0  0  0  0  0  0  0  0  0
    2.3565   -4.7895    0.6078 C   0  0  1  0  0  0  0  0  0  0  0  0
    1.6965   -6.0583    1.0089 O   0  0  0  0  0  0  0  0  0  0  0  0
    1.5914   -6.4385    2.4119 C   0  0  0  0  0  0  0  0  0  0  0  0
    0.8223   -7.3222    2.8100 O   0  0  0  0  0  0  0  0  0  0  0  0
    2.6215   -5.6260    3.2849 C   0  0  1  0  0  0  0  0  0  0  0  0
    3.0426   -6.3541    4.4123 O   0  0  0  0  0  0  0  0  0  0  0  0
    3.6156   -5.2217    2.3171 C   0  0  2  0  0  0  0  0  0  0  0  0
    4.8768   -4.5047    2.3671 C   0  0  2  0  0  0  0  0  0  0  0  0
    4.2164   -3.4564    3.2714 C   0  0  1  0  0  0  0  0  0  0  0  0
    4.2954   -1.9187    2.8937 C   0  0  1  0  0  0  0  0  0  0  0  0
    5.3978   -1.3835    3.6285 O   0  0  0  0  0  0  0  0  0  0  0  0
    5.1069   -0.9840    4.9640 C   0  0  0  0  0  0  0  0  0  0  0  0
    2.7743   -4.0739    3.3446 C   0  0  2  0  0  0  0  0  0  0  0  0
    1.8248   -3.3395    4.3208 C   0  0  0  0  0  0  0  0  0  0  0  0
    2.4773   -4.0781    1.8776 C   0  0  1  0  0  0  0  0  0  0  0  0
    4.9117   -1.4645   -3.3428 H   0  0  0  0  0  0  0  0  0  0  0  0
    3.5101   -0.9120   -2.4449 H   0  0  0  0  0  0  0  0  0  0  0  0
    3.4129   -2.3913   -3.4044 H   0  0  0  0  0  0  0  0  0  0  0  0
    2.6042   -2.9977   -1.2418 H   0  0  0  0  0  0  0  0  0  0  0  0
    3.1608   -0.8706   -0.2955 H   0  0  0  0  0  0  0  0  0  0  0  0
    2.3530   -1.8397    0.8239 H   0  0  0  0  0  0  0  0  0  0  0  0
    3.1211    0.0637    1.9092 H   0  0  0  0  0  0  0  0  0  0  0  0
    7.7497   -2.1396    0.7754 H   0  0  0  0  0  0  0  0  0  0  0  0
    6.7889   -2.6635    2.1371 H   0  0  0  0  0  0  0  0  0  0  0  0
    6.4222   -3.5810   -0.7505 H   0  0  0  0  0  0  0  0  0  0  0  0
    7.2763   -4.3685    0.5105 H   0  0  0  0  0  0  0  0  0  0  0  0
    5.6109   -5.8381   -0.5009 H   0  0  0  0  0  0  0  0  0  0  0  0
    3.8684   -5.0048   -0.9937 H   0  0  0  0  0  0  0  0  0  0  0  0
    1.5846   -4.3383   -0.0142 H   0  0  0  0  0  0  0  0  0  0  0  0
    3.6840   -5.8360    4.8579 H   0  0  0  0  0  0  0  0  0  0  0  0
    3.8071   -6.1705    1.8145 H   0  0  0  0  0  0  0  0  0  0  0  0
    5.6501   -5.0702    2.8881 H   0  0  0  0  0  0  0  0  0  0  0  0
    4.6574   -3.5823    4.2622 H   0  0  0  0  0  0  0  0  0  0  0  0
    3.4026   -1.4601    3.3185 H   0  0  0  0  0  0  0  0  0  0  0  0
    6.0169   -0.6108    5.4329 H   0  0  0  0  0  0  0  0  0  0  0  0
    4.7406   -1.8087    5.5765 H   0  0  0  0  0  0  0  0  0  0  0  0
    4.3700   -0.1803    4.9893 H   0  0  0  0  0  0  0  0  0  0  0  0
    1.5894   -2.3221    4.0041 H   0  0  0  0  0  0  0  0  0  0  0  0
    2.2285   -3.2995    5.3360 H   0  0  0  0  0  0  0  0  0  0  0  0
    0.8644   -3.8576    4.3876 H   0  0  0  0  0  0  0  0  0  0  0  0
    1.4120   -3.9805    2.1111 H   0  0  0  0  0  0  0  0  0  0  0  0
  1  2  1  0
  1 29  1  0
  1 30  1  0
  1 31  1  0
  2  3  1  0
  3 13  1  0
  3  4  1  0
  3 32  1  6
  4  5  1  0
  4 33  1  0
  4 34  1  0
  5 23  1  0
  5  6  1  1
  5  7  1  0
  6 35  1  0
  7  8  2  0
  7  9  1  0
  9 10  1  0
  9 36  1  0
  9 37  1  0
 10 11  1  0
 10 38  1  0
 10 39  1  0
 11 21  1  0
 11 12  1  6
 11 13  1  0
 12 40  1  0
 13 14  1  0
 13 41  1  6
 14 28  1  0
 14 15  1  0
 14 42  1  6
 15 16  1  0
 16 17  2  0
 16 18  1  0
 18 26  1  0
 18 19  1  1
 18 20  1  0
 19 43  1  0
 20 28  1  0
 20 21  1  0
 20 44  1  6
 21 22  1  0
 21 45  1  1
 22 23  1  0
 22 26  1  0
 22 46  1  1
 23 24  1  0
 23 47  1  1
 24 25  1  0
 25 48  1  0
 25 49  1  0
 25 50  1  0
 26 27  1  1
 26 28  1  0
 27 51  1  0
 27 52  1  0
 27 53  1  0
 28 54  1  6
M  END
>  <i_m_ct_stereo_status>  (225) 
1

>  <s_m_source_file>  (225) 
/var/tmp/pbs.5076255.sched01/tmpc36l9o9d/84wsylf1cs.sdf

>  <i_m_source_file_index>  (225) 
17

>  <i_lp_mmshare_version>  (225) 
48012

>  <i_f3d_flags>  (225) 
0

>  <s_epik_input>  (225) 
W09IXVtDQEBdMTJbQ0gyXVtDQEBIXShPW0NIM10pW0NASF0zW0NAQF0oW09IXSkoW0NIMl1bQ0gyXUMxPU8pW0NAQEhdNFtDQEhdNVtDQEBdNihbT0hdKVtDQEBdKFtDSDNdKShbQ0BASF00W0NASF0yT1tDSDNdKVtDSF01W0NAQEhdM09DNj1P

>  <s_epik_cmdline>  (225) 
J2VwaWtfcHl0aG9uJywgJy1waHQnLCAnMi4wJywgJy1waCcsICc3LjAnLCAnLXRuJywgJzgnLCAnLW1hJywgJzIwMCcsICctaW1hZScsICc8aW5maWxlLm1hZT4nLCAnLW9tYWUnLCAnPG91dGZpbGUubWFlPic=

>  <r_lp_tautomer_probability>  (225) 
1

>  <r_epik_Ionization_Penalty>  (225) 
9.61937e-08

>  <r_epik_Ionization_Penalty_Charging>  (225) 
0

>  <r_epik_Ionization_Penalty_Neutral>  (225) 
9.61937e-08

>  <r_epik_State_Penalty>  (225) 
-0

>  <r_epik_Charging_Adjusted_Penalty>  (225) 
0

>  <i_epik_Tot_Q>  (225) 
0

>  <i_epik_Tot_abs_Q>  (225) 
0

>  <s_epik_Chemistry_Notes>  (225) 
This compound has an ester and may undergo hydrolysis at high or low pH.

>  <s_lp_Force_Field>  (225) 
OPLS3e

>  <r_lp_Energy>  (225) 
268.103

>  <b_lp_Chiralities_Consistent>  (225) 
1

>  <s_lp_Variant>  (225) 
71:0-1

>  <s_i_glide_gridfile>  (225) 
pfpi4k_grid

>  <i_i_glide_lignum>  (225) 
17

>  <i_i_glide_rotatable_bonds>  (225) 
5

>  <r_i_docking_score>  (225) 
-2.75191

>  <r_i_glide_ligand_efficiency>  (225) 
-0.0982826

>  <r_i_glide_ligand_efficiency_sa>  (225) 
-0.298444

>  <r_i_glide_ligand_efficiency_ln>  (225) 
-0.635222

>  <r_i_glide_gscore>  (225) 
-2.75191

>  <r_i_glide_lipo>  (225) 
-0.313061

>  <r_i_glide_hbond>  (225) 
-0.0621889

>  <r_i_glide_metal>  (225) 
-0

>  <r_i_glide_rewards>  (225) 
-0.896047

>  <r_i_glide_evdw>  (225) 
-20.0154

>  <r_i_glide_ecoul>  (225) 
-3.00421

>  <r_i_glide_erotb>  (225) 
0

>  <r_i_glide_esite>  (225) 
-0.0292152

>  <r_i_glide_emodel>  (225) 
-26.6293

>  <r_i_glide_energy>  (225) 
-23.0196

>  <r_i_glide_einternal>  (225) 
1.49558

>  <r_i_glide_intrahb_reward>  (225) 
-0

>  <i_i_glide_confnum>  (225) 
2

>  <i_i_glide_posenum>  (225) 
34

>  <r_i_glide_eff_state_penalty>  (225) 
0

>  <ligand_id>  (225) 
71

>  <original_smiles>  (225) 
COC1CC2(O)C(=O)CCC3(O)C1C1OC(=O)C4(O)C5C3C(C2OC)C4(C)C15

>  <smiles>  (225) 
[H]OC12C(=O)C([H])([H])C([H])([H])C3(O[H])C([H])(C([H])(OC([H])([H])[H])C1([H])[H])C1([H])OC(=O)C4(O[H])C5([H])C3([H])C([H])(C2([H])OC([H])([H])[H])C4(C([H])([H])[H])C15[H]

$$$$
72:0:0
     RDKit          3D

 80 85  0  0  1  0  0  0  0  0999 V2000
    1.8645   -4.4338    3.8985 C   0  0  0  0  0  0  0  0  0  0  0  0
    2.3883   -3.2511    3.0933 C   0  0  0  0  0  0  0  0  0  0  0  0
    2.0887   -1.9446    3.3420 C   0  0  0  0  0  0  0  0  0  0  0  0
    1.1654   -1.5477    4.4277 C   0  0  0  0  0  0  0  0  0  0  0  0
    0.0506   -2.0171    4.5886 O   0  0  0  0  0  0  0  0  0  0  0  0
    1.6410   -0.3590    5.3306 C   0  0  1  0  0  0  0  0  0  0  0  0
    2.8916   -0.8236    6.1352 C   0  0  0  0  0  0  0  0  0  0  0  0
    4.2155   -0.9816    5.3542 C   0  0  0  0  0  0  0  0  0  0  0  0
    4.4210    0.1339    4.3206 C   0  0  1  0  0  0  0  0  0  0  0  0
    5.6017   -0.0933    3.5851 O   0  0  0  0  0  0  0  0  0  0  0  0
    3.1660    0.4141    3.4538 C   0  0  1  0  0  0  0  0  0  0  0  0
    2.6626   -0.7603    2.5455 C   0  0  1  0  0  0  0  0  0  0  0  0
    3.6001   -1.1528    1.3898 C   0  0  0  0  0  0  0  0  0  0  0  0
    3.2071   -2.5016    0.8121 C   0  0  0  0  0  0  0  0  0  0  0  0
    3.2693   -3.6238    1.8802 C   0  0  1  0  0  0  0  0  0  0  0  0
    4.7208   -3.8900    2.3803 C   0  0  0  0  0  0  0  0  0  0  0  0
    5.6230   -4.4256    1.2489 C   0  0  0  0  0  0  0  0  0  0  0  0
    4.9792   -5.6738    0.6215 C   0  0  1  0  0  0  0  0  0  0  0  0
    5.0325   -6.8761    1.5758 C   0  0  0  0  0  0  0  0  0  0  0  0
    3.5346   -5.3731    0.1817 C   0  0  0  0  0  0  0  0  0  0  0  0
    2.7699   -4.8279    1.2707 O   0  0  0  0  0  0  0  0  0  0  0  0
    1.9682    0.8255    4.3658 C   0  0  2  0  0  0  0  0  0  0  0  0
    1.8471    2.2855    4.9688 C   0  0  1  0  0  0  0  0  0  0  0  0
    2.7358    2.5472    6.2202 C   0  0  0  0  0  0  0  0  0  0  0  0
    2.2998    3.3171    3.8850 C   0  0  0  0  0  0  0  0  0  0  0  0
    1.6236    4.6991    3.8477 C   0  0  0  0  0  0  0  0  0  0  0  0
    0.2506    4.7814    4.5152 C   0  0  0  0  0  0  0  0  0  0  0  0
   -0.5182    3.4419    4.5289 C   0  0  1  0  0  0  0  0  0  0  0  0
   -1.8788    3.7283    5.2022 C   0  0  0  0  0  0  0  0  0  0  0  0
   -0.7836    2.9846    3.0608 C   0  0  0  0  0  0  0  0  0  0  0  0
   -1.4953    1.7799    2.9300 O   0  0  0  0  0  0  0  0  0  0  0  0
    0.3377    2.4670    5.4084 C   0  0  1  0  0  0  0  0  0  0  0  0
   -0.3897    1.1503    5.8113 C   0  0  0  0  0  0  0  0  0  0  0  0
    0.5556    0.0723    6.3556 C   0  0  0  0  0  0  0  0  0  0  0  0
    2.6590   -5.1490    4.1067 H   0  0  0  0  0  0  0  0  0  0  0  0
    1.0785   -4.9620    3.3601 H   0  0  0  0  0  0  0  0  0  0  0  0
    1.4591   -4.1476    4.8694 H   0  0  0  0  0  0  0  0  0  0  0  0
    3.0911   -0.1691    6.9840 H   0  0  0  0  0  0  0  0  0  0  0  0
    2.6827   -1.7979    6.5794 H   0  0  0  0  0  0  0  0  0  0  0  0
    5.0446   -0.9649    6.0631 H   0  0  0  0  0  0  0  0  0  0  0  0
    4.2658   -1.9619    4.8791 H   0  0  0  0  0  0  0  0  0  0  0  0
    4.6532    1.0434    4.8623 H   0  0  0  0  0  0  0  0  0  0  0  0
    5.4767   -0.8760    3.0629 H   0  0  0  0  0  0  0  0  0  0  0  0
    3.4327    1.2082    2.7645 H   0  0  0  0  0  0  0  0  0  0  0  0
    1.7863   -0.3944    2.0085 H   0  0  0  0  0  0  0  0  0  0  0  0
    3.5687   -0.3980    0.6065 H   0  0  0  0  0  0  0  0  0  0  0  0
    4.6427   -1.2116    1.6750 H   0  0  0  0  0  0  0  0  0  0  0  0
    2.1982   -2.4528    0.4038 H   0  0  0  0  0  0  0  0  0  0  0  0
    3.8633   -2.6711   -0.0438 H   0  0  0  0  0  0  0  0  0  0  0  0
    5.1815   -3.0009    2.8150 H   0  0  0  0  0  0  0  0  0  0  0  0
    4.7278   -4.6037    3.2023 H   0  0  0  0  0  0  0  0  0  0  0  0
    5.7782   -3.6602    0.4856 H   0  0  0  0  0  0  0  0  0  0  0  0
    6.6216   -4.6506    1.6319 H   0  0  0  0  0  0  0  0  0  0  0  0
    5.5469   -5.9209   -0.2758 H   0  0  0  0  0  0  0  0  0  0  0  0
    4.4657   -6.6903    2.4854 H   0  0  0  0  0  0  0  0  0  0  0  0
    6.0539   -7.1041    1.8689 H   0  0  0  0  0  0  0  0  0  0  0  0
    4.6023   -7.7638    1.1207 H   0  0  0  0  0  0  0  0  0  0  0  0
    3.5071   -4.7249   -0.6958 H   0  0  0  0  0  0  0  0  0  0  0  0
    3.0463   -6.2925   -0.1500 H   0  0  0  0  0  0  0  0  0  0  0  0
    1.1439    0.8606    3.6569 H   0  0  0  0  0  0  0  0  0  0  0  0
    2.5788    3.5560    6.5935 H   0  0  0  0  0  0  0  0  0  0  0  0
    3.7989    2.4714    6.0330 H   0  0  0  0  0  0  0  0  0  0  0  0
    2.5147    1.9013    7.0612 H   0  0  0  0  0  0  0  0  0  0  0  0
    3.3734    3.4743    3.9737 H   0  0  0  0  0  0  0  0  0  0  0  0
    2.1869    2.8923    2.8898 H   0  0  0  0  0  0  0  0  0  0  0  0
    2.2809    5.4684    4.2493 H   0  0  0  0  0  0  0  0  0  0  0  0
    1.5009    4.9562    2.7973 H   0  0  0  0  0  0  0  0  0  0  0  0
    0.3968    5.1201    5.5408 H   0  0  0  0  0  0  0  0  0  0  0  0
   -0.3320    5.5628    4.0249 H   0  0  0  0  0  0  0  0  0  0  0  0
   -2.5174    2.8422    5.2315 H   0  0  0  0  0  0  0  0  0  0  0  0
   -2.4212    4.4942    4.6459 H   0  0  0  0  0  0  0  0  0  0  0  0
   -1.7496    4.0864    6.2246 H   0  0  0  0  0  0  0  0  0  0  0  0
   -1.3498    3.7527    2.5276 H   0  0  0  0  0  0  0  0  0  0  0  0
    0.1324    2.8530    2.4951 H   0  0  0  0  0  0  0  0  0  0  0  0
   -1.5643    1.5838    2.0024 H   0  0  0  0  0  0  0  0  0  0  0  0
    0.3867    2.9792    6.3669 H   0  0  0  0  0  0  0  0  0  0  0  0
   -1.1135    1.3768    6.5948 H   0  0  0  0  0  0  0  0  0  0  0  0
   -0.9748    0.7085    5.0129 H   0  0  0  0  0  0  0  0  0  0  0  0
   -0.0496   -0.7774    6.6661 H   0  0  0  0  0  0  0  0  0  0  0  0
    0.9877    0.4233    7.2948 H   0  0  0  0  0  0  0  0  0  0  0  0
  1  2  1  0
  1 35  1  0
  1 36  1  0
  1 37  1  0
  2 15  1  0
  2  3  2  0
  3 12  1  0
  3  4  1  0
  4  5  2  0
  4  6  1  0
  6 22  1  0
  6 34  1  1
  6  7  1  0
  7  8  1  0
  7 38  1  0
  7 39  1  0
  8  9  1  0
  8 40  1  0
  8 41  1  0
  9 10  1  0
  9 11  1  0
  9 42  1  1
 10 43  1  0
 11 12  1  0
 11 22  1  0
 11 44  1  6
 12 13  1  0
 12 45  1  6
 13 14  1  0
 13 46  1  0
 13 47  1  0
 14 15  1  0
 14 48  1  0
 14 49  1  0
 15 21  1  6
 15 16  1  0
 16 17  1  0
 16 50  1  0
 16 51  1  0
 17 18  1  0
 17 52  1  0
 17 53  1  0
 18 19  1  0
 18 20  1  0
 18 54  1  6
 19 55  1  0
 19 56  1  0
 19 57  1  0
 20 21  1  0
 20 58  1  0
 20 59  1  0
 22 23  1  0
 22 60  1  6
 23 32  1  0
 23 24  1  1
 23 25  1  0
 24 61  1  0
 24 62  1  0
 24 63  1  0
 25 26  1  0
 25 64  1  0
 25 65  1  0
 26 27  1  0
 26 66  1  0
 26 67  1  0
 27 28  1  0
 27 68  1  0
 27 69  1  0
 28 29  1  1
 28 30  1  0
 28 32  1  0
 29 70  1  0
 29 71  1  0
 29 72  1  0
 30 31  1  0
 30 73  1  0
 30 74  1  0
 31 75  1  0
 32 33  1  0
 32 76  1  1
 33 34  1  0
 33 77  1  0
 33 78  1  0
 34 79  1  0
 34 80  1  0
M  END
>  <i_m_ct_stereo_status>  (226) 
1

>  <s_m_source_file>  (226) 
/var/tmp/pbs.5076255.sched01/tmpc36l9o9d/84wsylf1cs.sdf

>  <i_m_source_file_index>  (226) 
18

>  <i_lp_mmshare_version>  (226) 
48012

>  <i_f3d_flags>  (226) 
0

>  <s_epik_input>  (226) 
TzFbQ0gyXVtDQEhdKFtDSDNdKVtDSDJdW0NIMl1bQ0BdMShbQ0gyXVtDSDJdMilDKFtDSDNdKT1DKEMzPU8pW0NASF0yW0NASF0oW0NASF0oW09IXSlbQ0gyXVtDSDJdNClbQ0BASF0oW0NAQF0zNDUpW0NAXTYoW0NIM10pW0NASF0oW0NIMl1bQ0gyXTUpW0NAXShbQ0gzXSkoW0NIMl1bT0hdKVtDSDJdW0NIMl1bQ0gyXTY=

>  <s_epik_cmdline>  (226) 
J2VwaWtfcHl0aG9uJywgJy1waHQnLCAnMi4wJywgJy1waCcsICc3LjAnLCAnLXRuJywgJzgnLCAnLW1hJywgJzIwMCcsICctaW1hZScsICc8aW5maWxlLm1hZT4nLCAnLW9tYWUnLCAnPG91dGZpbGUubWFlPic=

>  <r_lp_tautomer_probability>  (226) 
1

>  <r_epik_Ionization_Penalty>  (226) 
1.29622e-06

>  <r_epik_Ionization_Penalty_Charging>  (226) 
0

>  <r_epik_Ionization_Penalty_Neutral>  (226) 
1.29622e-06

>  <r_epik_State_Penalty>  (226) 
-0

>  <r_epik_Charging_Adjusted_Penalty>  (226) 
0

>  <i_epik_Tot_Q>  (226) 
0

>  <i_epik_Tot_abs_Q>  (226) 
0

>  <s_lp_Force_Field>  (226) 
OPLS3e

>  <r_lp_Energy>  (226) 
89.5814

>  <b_lp_Chiralities_Consistent>  (226) 
1

>  <s_lp_Variant>  (226) 
72:0-1

>  <s_i_glide_gridfile>  (226) 
pfpi4k_grid

>  <i_i_glide_lignum>  (226) 
18

>  <i_i_glide_rotatable_bonds>  (226) 
3

>  <r_i_docking_score>  (226) 
-1.63131

>  <r_i_glide_ligand_efficiency>  (226) 
-0.0479797

>  <r_i_glide_ligand_efficiency_sa>  (226) 
-0.155436

>  <r_i_glide_ligand_efficiency_ln>  (226) 
-0.360402

>  <r_i_glide_gscore>  (226) 
-1.63131

>  <r_i_glide_lipo>  (226) 
-0.29123

>  <r_i_glide_hbond>  (226) 
0

>  <r_i_glide_metal>  (226) 
-0

>  <r_i_glide_rewards>  (226) 
-0.199883

>  <r_i_glide_evdw>  (226) 
-22.8902

>  <r_i_glide_ecoul>  (226) 
-0.579315

>  <r_i_glide_erotb>  (226) 
0.0912097

>  <r_i_glide_esite>  (226) 
0

>  <r_i_glide_emodel>  (226) 
-25.3254

>  <r_i_glide_energy>  (226) 
-23.4695

>  <r_i_glide_einternal>  (226) 
0.488832

>  <r_i_glide_intrahb_reward>  (226) 
-0

>  <i_i_glide_confnum>  (226) 
2

>  <i_i_glide_posenum>  (226) 
17

>  <r_i_glide_eff_state_penalty>  (226) 
0

>  <ligand_id>  (226) 
72

>  <original_smiles>  (226) 
CC1=C2C(=O)C34CCC(O)C(C2CCC12CCC(C)CO2)C3C1(C)CCCC(C)(CO)C1CC4

>  <smiles>  (226) 
[H]OC([H])([H])C1(C([H])([H])[H])C([H])([H])C([H])([H])C([H])([H])C2(C([H])([H])[H])C3([H])C4([H])C([H])(O[H])C([H])([H])C([H])([H])C3(C(=O)C3=C(C([H])([H])[H])C5(OC([H])([H])C([H])(C([H])([H])[H])C([H])([H])C5([H])[H])C([H])([H])C([H])([H])C34[H])C([H])([H])C([H])([H])C12[H]

$$$$
73:0:0
     RDKit          3D

 74 82  0  0  1  0  0  0  0  0999 V2000
    3.4432  -10.2649    6.1360 C   0  0  0  0  0  0  0  0  0  0  0  0
    2.9865   -9.1114    5.4458 O   0  0  0  0  0  0  0  0  0  0  0  0
    1.8059   -8.5711    6.0219 C   0  0  2  0  0  0  0  0  0  0  0  0
    0.6198   -9.4255    5.8176 O   0  0  0  0  0  0  0  0  0  0  0  0
    0.1506   -8.6027    4.7860 C   0  0  2  0  0  0  0  0  0  0  0  0
   -1.2479   -8.3024    4.7224 O   0  0  0  0  0  0  0  0  0  0  0  0
   -0.7685   -9.1355    3.6364 C   0  0  1  0  0  0  0  0  0  0  0  0
   -0.8837   -8.5859    2.1907 C   0  0  0  0  0  0  0  0  0  0  0  0
    0.4774   -7.9685    1.9290 C   0  0  1  0  0  0  0  0  0  0  0  0
    1.2885   -6.9297    1.1013 C   0  0  1  0  0  0  0  0  0  0  0  0
    0.6566   -5.8877    1.7743 O   0  0  0  0  0  0  0  0  0  0  0  0
    0.5230   -6.7910    2.8675 C   0  0  2  0  0  0  0  0  0  0  0  0
    1.6985   -7.0437    3.7395 C   0  0  2  0  0  0  0  0  0  0  0  0
    1.1600   -7.4907    5.1205 C   0  0  2  0  0  0  0  0  0  0  0  0
    0.5147   -6.3529    5.9287 C   0  0  0  0  0  0  0  0  0  0  0  0
    2.8932   -6.2656    3.1230 C   0  0  2  0  0  0  0  0  0  0  0  0
    4.1118   -6.8144    3.6014 O   0  0  0  0  0  0  0  0  0  0  0  0
    5.0127   -5.6582    3.8231 O   0  0  0  0  0  0  0  0  0  0  0  0
    4.1929   -4.7336    4.4797 C   0  0  1  0  0  0  0  0  0  0  0  0
    3.9540   -5.4135    5.8693 C   0  0  0  0  0  0  0  0  0  0  0  0
    4.9757   -3.4232    4.7340 C   0  0  0  0  0  0  0  0  0  0  0  0
    4.1969   -2.3901    5.5583 C   0  0  0  0  0  0  0  0  0  0  0  0
    2.7071   -2.2178    5.2204 C   0  0  2  0  0  0  0  0  0  0  0  0
    2.0136   -3.4683    5.2671 O   0  0  0  0  0  0  0  0  0  0  0  0
    1.8179   -4.1080    3.9337 O   0  0  0  0  0  0  0  0  0  0  0  0
    3.0165   -4.6972    3.4195 C   0  0  2  0  0  0  0  0  0  0  0  0
    3.3415   -3.7995    2.1170 C   0  0  2  0  0  0  0  0  0  0  0  0
    2.4906   -2.4879    2.0322 C   0  0  0  0  0  0  0  0  0  0  0  0
    3.0247   -1.2905    2.8040 C   0  0  0  0  0  0  0  0  0  0  0  0
    2.3880   -1.1100    4.1855 C   0  0  1  0  0  0  0  0  0  0  0  0
    0.9067   -0.6836    4.1332 C   0  0  0  0  0  0  0  0  0  0  0  0
    3.2558   -4.4292    0.6953 C   0  0  1  0  0  0  0  0  0  0  0  0
    4.0643   -3.6550   -0.3784 C   0  0  0  0  0  0  0  0  0  0  0  0
    3.6592   -5.8917    0.6510 C   0  0  1  0  0  0  0  0  0  0  0  0
    5.0421   -6.0708    0.9009 O   0  0  0  0  0  0  0  0  0  0  0  0
    2.7974   -6.7226    1.5812 C   0  0  2  0  0  0  0  0  0  0  0  0
    4.3441  -10.6582    5.6636 H   0  0  0  0  0  0  0  0  0  0  0  0
    2.6947  -11.0561    6.1225 H   0  0  0  0  0  0  0  0  0  0  0  0
    3.6855  -10.0331    7.1724 H   0  0  0  0  0  0  0  0  0  0  0  0
    1.9111   -8.2737    7.0635 H   0  0  0  0  0  0  0  0  0  0  0  0
   -0.9642  -10.2017    3.6732 H   0  0  0  0  0  0  0  0  0  0  0  0
   -1.0982   -9.4406    1.5469 H   0  0  0  0  0  0  0  0  0  0  0  0
   -1.7220   -7.8901    2.1045 H   0  0  0  0  0  0  0  0  0  0  0  0
    1.1931   -8.7978    2.0085 H   0  0  0  0  0  0  0  0  0  0  0  0
    1.0549   -6.9859    0.0477 H   0  0  0  0  0  0  0  0  0  0  0  0
   -0.4133   -6.5606    3.3647 H   0  0  0  0  0  0  0  0  0  0  0  0
    2.1676   -7.9979    3.5084 H   0  0  0  0  0  0  0  0  0  0  0  0
   -0.1642   -5.7277    5.3516 H   0  0  0  0  0  0  0  0  0  0  0  0
    1.2730   -5.7005    6.3515 H   0  0  0  0  0  0  0  0  0  0  0  0
   -0.0469   -6.7395    6.7802 H   0  0  0  0  0  0  0  0  0  0  0  0
    3.3697   -4.8158    6.5633 H   0  0  0  0  0  0  0  0  0  0  0  0
    4.9036   -5.5862    6.3747 H   0  0  0  0  0  0  0  0  0  0  0  0
    3.4751   -6.3847    5.8153 H   0  0  0  0  0  0  0  0  0  0  0  0
    5.8780   -3.6762    5.2974 H   0  0  0  0  0  0  0  0  0  0  0  0
    5.3717   -2.9794    3.8273 H   0  0  0  0  0  0  0  0  0  0  0  0
    4.2531   -2.6804    6.6043 H   0  0  0  0  0  0  0  0  0  0  0  0
    4.7157   -1.4334    5.4977 H   0  0  0  0  0  0  0  0  0  0  0  0
    2.3338   -1.7346    6.1280 H   0  0  0  0  0  0  0  0  0  0  0  0
    4.3916   -3.5269    2.1575 H   0  0  0  0  0  0  0  0  0  0  0  0
    2.4434   -2.1370    1.0116 H   0  0  0  0  0  0  0  0  0  0  0  0
    1.4341   -2.6527    2.2301 H   0  0  0  0  0  0  0  0  0  0  0  0
    4.1106   -1.3246    2.8801 H   0  0  0  0  0  0  0  0  0  0  0  0
    2.8243   -0.3879    2.2209 H   0  0  0  0  0  0  0  0  0  0  0  0
    2.8881   -0.2122    4.5646 H   0  0  0  0  0  0  0  0  0  0  0  0
    0.2698   -1.5020    3.8110 H   0  0  0  0  0  0  0  0  0  0  0  0
    0.7552    0.1535    3.4478 H   0  0  0  0  0  0  0  0  0  0  0  0
    0.5617   -0.3506    5.1114 H   0  0  0  0  0  0  0  0  0  0  0  0
    2.2158   -4.3976    0.3713 H   0  0  0  0  0  0  0  0  0  0  0  0
    5.1147   -3.5640   -0.1021 H   0  0  0  0  0  0  0  0  0  0  0  0
    3.6900   -2.6507   -0.5640 H   0  0  0  0  0  0  0  0  0  0  0  0
    4.0293   -4.1687   -1.3393 H   0  0  0  0  0  0  0  0  0  0  0  0
    3.5005   -6.2601   -0.3566 H   0  0  0  0  0  0  0  0  0  0  0  0
    5.2185   -5.8434    1.8070 H   0  0  0  0  0  0  0  0  0  0  0  0
    3.2652   -7.7119    1.5321 H   0  0  0  0  0  0  0  0  0  0  0  0
  1  2  1  0
  1 37  1  0
  1 38  1  0
  1 39  1  0
  2  3  1  0
  3 14  1  0
  3  4  1  0
  3 40  1  1
  5  4  1  1
  5  7  1  0
  5 14  1  0
  5  6  1  0
  6  7  1  0
  7  8  1  0
  7 41  1  6
  8  9  1  0
  8 42  1  0
  8 43  1  0
  9 12  1  0
  9 10  1  0
  9 44  1  1
 10 36  1  0
 10 11  1  0
 10 45  1  6
 11 12  1  0
 12 13  1  0
 12 46  1  1
 13 14  1  0
 13 16  1  0
 13 47  1  6
 14 15  1  1
 15 48  1  0
 15 49  1  0
 15 50  1  0
 16 26  1  0
 16 36  1  0
 16 17  1  1
 17 18  1  0
 18 19  1  0
 19 26  1  0
 19 20  1  1
 19 21  1  0
 20 51  1  0
 20 52  1  0
 20 53  1  0
 21 22  1  0
 21 54  1  0
 21 55  1  0
 22 23  1  0
 22 56  1  0
 22 57  1  0
 23 30  1  0
 23 24  1  0
 23 58  1  1
 24 25  1  0
 26 25  1  1
 26 27  1  0
 27 28  1  0
 27 32  1  0
 27 59  1  1
 28 29  1  0
 28 60  1  0
 28 61  1  0
 29 30  1  0
 29 62  1  0
 29 63  1  0
 30 31  1  0
 30 64  1  1
 31 65  1  0
 31 66  1  0
 31 67  1  0
 32 33  1  0
 32 34  1  0
 32 68  1  6
 33 69  1  0
 33 70  1  0
 33 71  1  0
 34 35  1  0
 34 36  1  0
 34 72  1  6
 35 73  1  0
 36 74  1  1
M  END
>  <i_m_ct_stereo_status>  (227) 
1

>  <s_m_source_file>  (227) 
/var/tmp/pbs.5076255.sched01/tmpc36l9o9d/84wsylf1cs.sdf

>  <i_m_source_file_index>  (227) 
19

>  <i_lp_mmshare_version>  (227) 
48012

>  <i_f3d_flags>  (227) 
0

>  <s_epik_input>  (227) 
W0NAQF0xMjNbQ0BASF0oTzIpW0NIMl1bQ0BIXTRbQ0BASF01W0NAQEhdNltDQF03KFtDQEhdKFtDQEhdNE81KVtDQF0zKFtDSDNdKVtDQEBIXShPMSlPW0NIM10pW0NAXTg5W0NAXShPTzcpKFtDSDNdKVtDSDJdW0NIMl1bQ0BIXShPTzgpW0NASF0oW0NIM10pW0NIMl1bQ0gyXVtDQEBIXTlbQ0BASF0oW0NIM10pW0NASF02W09IXQ==

>  <s_epik_cmdline>  (227) 
J2VwaWtfcHl0aG9uJywgJy1waHQnLCAnMi4wJywgJy1waCcsICc3LjAnLCAnLXRuJywgJzgnLCAnLW1hJywgJzIwMCcsICctaW1hZScsICc8aW5maWxlLm1hZT4nLCAnLW9tYWUnLCAnPG91dGZpbGUubWFlPic=

>  <r_lp_tautomer_probability>  (227) 
1

>  <r_epik_Ionization_Penalty>  (227) 
1.96528e-07

>  <r_epik_Ionization_Penalty_Charging>  (227) 
0

>  <r_epik_Ionization_Penalty_Neutral>  (227) 
1.96528e-07

>  <r_epik_State_Penalty>  (227) 
-0

>  <r_epik_Charging_Adjusted_Penalty>  (227) 
0

>  <i_epik_Tot_Q>  (227) 
0

>  <i_epik_Tot_abs_Q>  (227) 
0

>  <s_epik_Chemistry_Notes>  (227) 
This compound contains an acetal/aminal-like group ( X-CH(R)-Y where X, Y are N, S, or O) that may be acid/base labile, releasing an aldehyde.

>  <s_lp_Force_Field>  (227) 
OPLS3e

>  <r_lp_Energy>  (227) 
166.454

>  <b_lp_Chiralities_Consistent>  (227) 
1

>  <s_lp_Variant>  (227) 
73:0-1

>  <s_i_glide_gridfile>  (227) 
pfpi4k_grid

>  <i_i_glide_lignum>  (227) 
19

>  <i_i_glide_rotatable_bonds>  (227) 
2

>  <r_i_docking_score>  (227) 
-1.74747

>  <r_i_glide_ligand_efficiency>  (227) 
-0.0485409

>  <r_i_glide_ligand_efficiency_sa>  (227) 
-0.160278

>  <r_i_glide_ligand_efficiency_ln>  (227) 
-0.381251

>  <r_i_glide_gscore>  (227) 
-1.74747

>  <r_i_glide_lipo>  (227) 
-0.0736054

>  <r_i_glide_hbond>  (227) 
-0.164318

>  <r_i_glide_metal>  (227) 
-0

>  <r_i_glide_rewards>  (227) 
0

>  <r_i_glide_evdw>  (227) 
-19.2426

>  <r_i_glide_ecoul>  (227) 
-3.21477

>  <r_i_glide_erotb>  (227) 
0

>  <r_i_glide_esite>  (227) 
-0.0652036

>  <r_i_glide_emodel>  (227) 
-24.3406

>  <r_i_glide_energy>  (227) 
-22.4574

>  <r_i_glide_einternal>  (227) 
0.158777

>  <r_i_glide_intrahb_reward>  (227) 
-0

>  <i_i_glide_confnum>  (227) 
1

>  <i_i_glide_posenum>  (227) 
13

>  <r_i_glide_eff_state_penalty>  (227) 
0

>  <ligand_id>  (227) 
73

>  <original_smiles>  (227) 
COC1OC23OC2CC2C4OC2C(C13C)C12OOC3(C)CCC5OOC31C(CCC5C)C(C)C(O)C42

>  <smiles>  (227) 
[H]OC1([H])C([H])(C([H])([H])[H])C2([H])C([H])([H])C([H])([H])C([H])(C([H])([H])[H])C3([H])OOC24C(C([H])([H])[H])(OOC42C1([H])C1([H])OC4([H])C1([H])C([H])([H])C1([H])OC15OC([H])(OC([H])([H])[H])C5(C([H])([H])[H])C42[H])C([H])([H])C3([H])[H]

$$$$
73:0:1
     RDKit          3D

 74 82  0  0  1  0  0  0  0  0999 V2000
    8.3577   -6.0888    2.5925 C   0  0  0  0  0  0  0  0  0  0  0  0
    6.9565   -5.8781    2.6518 O   0  0  0  0  0  0  0  0  0  0  0  0
    6.3392   -6.0146    1.3826 C   0  0  2  0  0  0  0  0  0  0  0  0
    6.5951   -4.8686    0.4851 O   0  0  0  0  0  0  0  0  0  0  0  0
    5.2966   -4.3821    0.6702 C   0  0  2  0  0  0  0  0  0  0  0  0
    4.5749   -3.8146   -0.4384 O   0  0  0  0  0  0  0  0  0  0  0  0
    4.9677   -2.8361    0.5780 C   0  0  1  0  0  0  0  0  0  0  0  0
    3.8333   -2.0691    1.3486 C   0  0  0  0  0  0  0  0  0  0  0  0
    3.6658   -2.8495    2.6406 C   0  0  1  0  0  0  0  0  0  0  0  0
    2.7160   -3.1619    3.8430 C   0  0  1  0  0  0  0  0  0  0  0  0
    1.8710   -3.9289    2.9848 O   0  0  0  0  0  0  0  0  0  0  0  0
    3.0635   -4.1538    2.1833 C   0  0  2  0  0  0  0  0  0  0  0  0
    4.0503   -5.1784    2.6470 C   0  0  2  0  0  0  0  0  0  0  0  0
    4.8255   -5.6609    1.3869 C   0  0  2  0  0  0  0  0  0  0  0  0
    3.9927   -6.5781    0.4722 C   0  0  0  0  0  0  0  0  0  0  0  0
    3.5468   -5.7024    4.0270 C   0  0  2  0  0  0  0  0  0  0  0  0
    4.6300   -6.2880    4.7349 O   0  0  0  0  0  0  0  0  0  0  0  0
    4.0682   -7.4987    5.4018 O   0  0  0  0  0  0  0  0  0  0  0  0
    3.2879   -8.1051    4.4049 C   0  0  1  0  0  0  0  0  0  0  0  0
    4.3604   -8.6050    3.3852 C   0  0  0  0  0  0  0  0  0  0  0  0
    2.5583   -9.3358    4.9719 C   0  0  0  0  0  0  0  0  0  0  0  0
    1.7641  -10.1256    3.9203 C   0  0  0  0  0  0  0  0  0  0  0  0
    0.9527   -9.3265    2.8835 C   0  0  2  0  0  0  0  0  0  0  0  0
    1.7761   -8.3506    2.2140 O   0  0  0  0  0  0  0  0  0  0  0  0
    1.7301   -6.9489    2.7964 O   0  0  0  0  0  0  0  0  0  0  0  0
    2.4122   -6.8247    4.0582 C   0  0  2  0  0  0  0  0  0  0  0  0
    1.2063   -6.5325    5.0877 C   0  0  2  0  0  0  0  0  0  0  0  0
   -0.2270   -6.7999    4.5125 C   0  0  0  0  0  0  0  0  0  0  0  0
   -0.7177   -8.2422    4.5680 C   0  0  0  0  0  0  0  0  0  0  0  0
   -0.5169   -9.0271    3.2761 C   0  0  1  0  0  0  0  0  0  0  0  0
   -1.3966   -8.5478    2.1063 C   0  0  0  0  0  0  0  0  0  0  0  0
    1.1078   -5.1399    5.7953 C   0  0  1  0  0  0  0  0  0  0  0  0
    0.2773   -5.1746    7.1087 C   0  0  0  0  0  0  0  0  0  0  0  0
    2.4497   -4.4923    6.0857 C   0  0  1  0  0  0  0  0  0  0  0  0
    3.1778   -5.2042    7.0691 O   0  0  0  0  0  0  0  0  0  0  0  0
    3.2541   -4.3208    4.8095 C   0  0  2  0  0  0  0  0  0  0  0  0
    8.7962   -5.9376    3.5800 H   0  0  0  0  0  0  0  0  0  0  0  0
    8.8520   -5.3957    1.9051 H   0  0  0  0  0  0  0  0  0  0  0  0
    8.5883   -7.1077    2.2792 H   0  0  0  0  0  0  0  0  0  0  0  0
    6.5557   -6.9732    0.8976 H   0  0  0  0  0  0  0  0  0  0  0  0
    5.8127   -2.2243    0.2959 H   0  0  0  0  0  0  0  0  0  0  0  0
    4.1688   -1.0482    1.5544 H   0  0  0  0  0  0  0  0  0  0  0  0
    2.9324   -2.0024    0.7476 H   0  0  0  0  0  0  0  0  0  0  0  0
    4.6398   -2.7868    3.1308 H   0  0  0  0  0  0  0  0  0  0  0  0
    2.2372   -2.3013    4.2919 H   0  0  0  0  0  0  0  0  0  0  0  0
    2.7504   -4.2162    1.1491 H   0  0  0  0  0  0  0  0  0  0  0  0
    4.9247   -4.7202    3.0999 H   0  0  0  0  0  0  0  0  0  0  0  0
    2.9915   -6.2050    0.2690 H   0  0  0  0  0  0  0  0  0  0  0  0
    3.8859   -7.5753    0.8966 H   0  0  0  0  0  0  0  0  0  0  0  0
    4.4826   -6.7209   -0.4928 H   0  0  0  0  0  0  0  0  0  0  0  0
    3.9437   -9.1549    2.5459 H   0  0  0  0  0  0  0  0  0  0  0  0
    5.0425   -9.2983    3.8695 H   0  0  0  0  0  0  0  0  0  0  0  0
    4.9858   -7.8237    2.9660 H   0  0  0  0  0  0  0  0  0  0  0  0
    3.3094  -10.0140    5.3747 H   0  0  0  0  0  0  0  0  0  0  0  0
    1.9420   -9.1170    5.8359 H   0  0  0  0  0  0  0  0  0  0  0  0
    2.4691  -10.7406    3.3587 H   0  0  0  0  0  0  0  0  0  0  0  0
    1.1153  -10.8370    4.4291 H   0  0  0  0  0  0  0  0  0  0  0  0
    0.8170  -10.0434    2.0850 H   0  0  0  0  0  0  0  0  0  0  0  0
    1.3499   -7.1859    5.9367 H   0  0  0  0  0  0  0  0  0  0  0  0
   -0.9711   -6.2456    5.0713 H   0  0  0  0  0  0  0  0  0  0  0  0
   -0.3607   -6.3692    3.5209 H   0  0  0  0  0  0  0  0  0  0  0  0
   -0.2860   -8.7705    5.4155 H   0  0  0  0  0  0  0  0  0  0  0  0
   -1.7853   -8.2339    4.7835 H   0  0  0  0  0  0  0  0  0  0  0  0
   -0.9300  -10.0066    3.5078 H   0  0  0  0  0  0  0  0  0  0  0  0
   -1.0579   -7.5891    1.7185 H   0  0  0  0  0  0  0  0  0  0  0  0
   -2.4417   -8.4450    2.4144 H   0  0  0  0  0  0  0  0  0  0  0  0
   -1.3849   -9.2595    1.2902 H   0  0  0  0  0  0  0  0  0  0  0  0
    0.5860   -4.4604    5.1184 H   0  0  0  0  0  0  0  0  0  0  0  0
    0.6794   -5.8982    7.8163 H   0  0  0  0  0  0  0  0  0  0  0  0
   -0.7718   -5.4189    6.9605 H   0  0  0  0  0  0  0  0  0  0  0  0
    0.2914   -4.2022    7.6026 H   0  0  0  0  0  0  0  0  0  0  0  0
    2.2756   -3.5026    6.5100 H   0  0  0  0  0  0  0  0  0  0  0  0
    3.4133   -6.0598    6.7154 H   0  0  0  0  0  0  0  0  0  0  0  0
    4.2213   -3.9509    5.1608 H   0  0  0  0  0  0  0  0  0  0  0  0
  1  2  1  0
  1 37  1  0
  1 38  1  0
  1 39  1  0
  2  3  1  0
  3 14  1  0
  3  4  1  0
  3 40  1  6
  5  4  1  6
  5  7  1  0
  5 14  1  0
  5  6  1  0
  6  7  1  0
  7  8  1  0
  7 41  1  6
  8  9  1  0
  8 42  1  0
  8 43  1  0
  9 12  1  0
  9 10  1  0
  9 44  1  1
 10 36  1  0
 10 11  1  0
 10 45  1  1
 11 12  1  0
 12 13  1  0
 12 46  1  6
 13 14  1  0
 13 16  1  0
 13 47  1  1
 14 15  1  6
 15 48  1  0
 15 49  1  0
 15 50  1  0
 16 26  1  0
 16 36  1  0
 16 17  1  1
 17 18  1  0
 18 19  1  0
 19 26  1  0
 19 20  1  6
 19 21  1  0
 20 51  1  0
 20 52  1  0
 20 53  1  0
 21 22  1  0
 21 54  1  0
 21 55  1  0
 22 23  1  0
 22 56  1  0
 22 57  1  0
 23 30  1  0
 23 24  1  0
 23 58  1  6
 24 25  1  0
 26 25  1  6
 26 27  1  0
 27 28  1  0
 27 32  1  0
 27 59  1  1
 28 29  1  0
 28 60  1  0
 28 61  1  0
 29 30  1  0
 29 62  1  0
 29 63  1  0
 30 31  1  0
 30 64  1  1
 31 65  1  0
 31 66  1  0
 31 67  1  0
 32 33  1  0
 32 34  1  0
 32 68  1  6
 33 69  1  0
 33 70  1  0
 33 71  1  0
 34 35  1  0
 34 36  1  0
 34 72  1  1
 35 73  1  0
 36 74  1  1
M  END
>  <i_m_ct_stereo_status>  (228) 
1

>  <s_m_source_file>  (228) 
/var/tmp/pbs.5076255.sched01/tmpc36l9o9d/84wsylf1cs.sdf

>  <i_m_source_file_index>  (228) 
19

>  <i_lp_mmshare_version>  (228) 
48012

>  <i_f3d_flags>  (228) 
0

>  <s_epik_input>  (228) 
W0NAQF0xMjNbQ0BASF0oTzIpW0NIMl1bQ0BIXTRbQ0BASF01W0NAQEhdNltDQF03KFtDQEhdKFtDQEhdNE81KVtDQF0zKFtDSDNdKVtDQEBIXShPMSlPW0NIM10pW0NAXTg5W0NAXShPTzcpKFtDSDNdKVtDSDJdW0NIMl1bQ0BIXShPTzgpW0NASF0oW0NIM10pW0NIMl1bQ0gyXVtDQEBIXTlbQ0BASF0oW0NIM10pW0NASF02W09IXQ==

>  <s_epik_cmdline>  (228) 
J2VwaWtfcHl0aG9uJywgJy1waHQnLCAnMi4wJywgJy1waCcsICc3LjAnLCAnLXRuJywgJzgnLCAnLW1hJywgJzIwMCcsICctaW1hZScsICc8aW5maWxlLm1hZT4nLCAnLW9tYWUnLCAnPG91dGZpbGUubWFlPic=

>  <r_lp_tautomer_probability>  (228) 
1

>  <r_epik_Ionization_Penalty>  (228) 
1.96528e-07

>  <r_epik_Ionization_Penalty_Charging>  (228) 
0

>  <r_epik_Ionization_Penalty_Neutral>  (228) 
1.96528e-07

>  <r_epik_State_Penalty>  (228) 
-0

>  <r_epik_Charging_Adjusted_Penalty>  (228) 
0

>  <i_epik_Tot_Q>  (228) 
0

>  <i_epik_Tot_abs_Q>  (228) 
0

>  <s_epik_Chemistry_Notes>  (228) 
This compound contains an acetal/aminal-like group ( X-CH(R)-Y where X, Y are N, S, or O) that may be acid/base labile, releasing an aldehyde.

>  <s_lp_Force_Field>  (228) 
OPLS3e

>  <r_lp_Energy>  (228) 
166.454

>  <b_lp_Chiralities_Consistent>  (228) 
1

>  <s_lp_Variant>  (228) 
73:0-1

>  <s_i_glide_gridfile>  (228) 
pfpi4k_grid

>  <i_i_glide_lignum>  (228) 
19

>  <i_i_glide_rotatable_bonds>  (228) 
2

>  <r_i_docking_score>  (228) 
-1.61001

>  <r_i_glide_ligand_efficiency>  (228) 
-0.0447225

>  <r_i_glide_ligand_efficiency_sa>  (228) 
-0.14767

>  <r_i_glide_ligand_efficiency_ln>  (228) 
-0.35126

>  <r_i_glide_gscore>  (228) 
-1.61001

>  <r_i_glide_lipo>  (228) 
-0.235989

>  <r_i_glide_hbond>  (228) 
0

>  <r_i_glide_metal>  (228) 
-0

>  <r_i_glide_rewards>  (228) 
-0.204427

>  <r_i_glide_evdw>  (228) 
-23.436

>  <r_i_glide_ecoul>  (228) 
0.0147163

>  <r_i_glide_erotb>  (228) 
0

>  <r_i_glide_esite>  (228) 
0

>  <r_i_glide_emodel>  (228) 
-25.4221

>  <r_i_glide_energy>  (228) 
-23.4213

>  <r_i_glide_einternal>  (228) 
0.00173115

>  <r_i_glide_intrahb_reward>  (228) 
-0

>  <i_i_glide_confnum>  (228) 
2

>  <i_i_glide_posenum>  (228) 
6

>  <r_i_glide_eff_state_penalty>  (228) 
0

>  <ligand_id>  (228) 
73

>  <original_smiles>  (228) 
COC1OC23OC2CC2C4OC2C(C13C)C12OOC3(C)CCC5OOC31C(CCC5C)C(C)C(O)C42

>  <smiles>  (228) 
[H]OC1([H])C([H])(C([H])([H])[H])C2([H])C([H])([H])C([H])([H])C([H])(C([H])([H])[H])C3([H])OOC24C(C([H])([H])[H])(OOC42C1([H])C1([H])OC4([H])C1([H])C([H])([H])C1([H])OC15OC([H])(OC([H])([H])[H])C5(C([H])([H])[H])C42[H])C([H])([H])C3([H])[H]

$$$$
73:0:2
     RDKit          3D

 74 82  0  0  1  0  0  0  0  0999 V2000
    8.3073   -6.0616    2.5063 C   0  0  0  0  0  0  0  0  0  0  0  0
    6.9036   -5.8616    2.5994 O   0  0  0  0  0  0  0  0  0  0  0  0
    6.2547   -5.9759    1.3435 C   0  0  2  0  0  0  0  0  0  0  0  0
    6.5026   -4.8015    0.4830 O   0  0  0  0  0  0  0  0  0  0  0  0
    5.1881   -4.3099    0.7171 C   0  0  2  0  0  0  0  0  0  0  0  0
    4.4388   -3.7465   -0.3631 O   0  0  0  0  0  0  0  0  0  0  0  0
    4.8399   -2.7901    0.6423 C   0  0  1  0  0  0  0  0  0  0  0  0
    3.7296   -2.0418    1.4695 C   0  0  0  0  0  0  0  0  0  0  0  0
    3.5876   -2.8617    2.7330 C   0  0  1  0  0  0  0  0  0  0  0  0
    2.6649   -3.2362    3.9467 C   0  0  1  0  0  0  0  0  0  0  0  0
    1.8262   -3.9714    3.0913 O   0  0  0  0  0  0  0  0  0  0  0  0
    2.9865   -4.1692    2.2687 C   0  0  2  0  0  0  0  0  0  0  0  0
    3.9915   -5.1884    2.6688 C   0  0  2  0  0  0  0  0  0  0  0  0
    4.7507   -5.6318    1.3918 C   0  0  2  0  0  0  0  0  0  0  0  0
    3.9066   -6.5158    0.4609 C   0  0  0  0  0  0  0  0  0  0  0  0
    3.5226   -5.7595    4.0459 C   0  0  2  0  0  0  0  0  0  0  0  0
    4.6293   -6.3692    4.6933 O   0  0  0  0  0  0  0  0  0  0  0  0
    4.0980   -7.6015    5.3367 O   0  0  0  0  0  0  0  0  0  0  0  0
    3.2853   -8.1592    4.3498 C   0  0  1  0  0  0  0  0  0  0  0  0
    4.3398   -8.6305    3.2951 C   0  0  0  0  0  0  0  0  0  0  0  0
    2.5791   -9.4256    4.8945 C   0  0  0  0  0  0  0  0  0  0  0  0
    1.7748  -10.1933    3.8340 C   0  0  0  0  0  0  0  0  0  0  0  0
    0.9509   -9.3529    2.8480 C   0  0  2  0  0  0  0  0  0  0  0  0
    1.7526   -8.3639    2.2070 O   0  0  0  0  0  0  0  0  0  0  0  0
    1.6797   -7.0015    2.8224 O   0  0  0  0  0  0  0  0  0  0  0  0
    2.3890   -6.8954    4.0523 C   0  0  2  0  0  0  0  0  0  0  0  0
    1.2104   -6.6382    5.1299 C   0  0  2  0  0  0  0  0  0  0  0  0
   -0.2291   -6.9016    4.5679 C   0  0  0  0  0  0  0  0  0  0  0  0
   -0.7075   -8.3486    4.5894 C   0  0  0  0  0  0  0  0  0  0  0  0
   -0.5116   -9.0897    3.2629 C   0  0  1  0  0  0  0  0  0  0  0  0
   -1.4319   -8.5831    2.1343 C   0  0  0  0  0  0  0  0  0  0  0  0
    1.1070   -5.2709    5.8732 C   0  0  1  0  0  0  0  0  0  0  0  0
    0.3060   -5.3512    7.2017 C   0  0  0  0  0  0  0  0  0  0  0  0
    2.4462   -4.6106    6.1558 C   0  0  1  0  0  0  0  0  0  0  0  0
    3.2000   -5.3539    7.0943 O   0  0  0  0  0  0  0  0  0  0  0  0
    3.2312   -4.4032    4.8690 C   0  0  2  0  0  0  0  0  0  0  0  0
    8.7646   -5.9339    3.4882 H   0  0  0  0  0  0  0  0  0  0  0  0
    8.7755   -5.3488    1.8289 H   0  0  0  0  0  0  0  0  0  0  0  0
    8.5338   -7.0689    2.1620 H   0  0  0  0  0  0  0  0  0  0  0  0
    6.4702   -6.9050    0.8344 H   0  0  0  0  0  0  0  0  0  0  0  0
    5.6847   -2.1536    0.3690 H   0  0  0  0  0  0  0  0  0  0  0  0
    4.0590   -1.0257    1.6957 H   0  0  0  0  0  0  0  0  0  0  0  0
    2.8090   -1.9640    0.8797 H   0  0  0  0  0  0  0  0  0  0  0  0
    4.5715   -2.8076    3.2169 H   0  0  0  0  0  0  0  0  0  0  0  0
    2.1967   -2.3762    4.4303 H   0  0  0  0  0  0  0  0  0  0  0  0
    2.6604   -4.1915    1.2269 H   0  0  0  0  0  0  0  0  0  0  0  0
    4.8670   -4.7401    3.1330 H   0  0  0  0  0  0  0  0  0  0  0  0
    2.8971   -6.1460    0.2880 H   0  0  0  0  0  0  0  0  0  0  0  0
    3.8128   -7.5300    0.8542 H   0  0  0  0  0  0  0  0  0  0  0  0
    4.3786   -6.6258   -0.5162 H   0  0  0  0  0  0  0  0  0  0  0  0
    3.9176   -9.1622    2.4447 H   0  0  0  0  0  0  0  0  0  0  0  0
    5.0406   -9.3361    3.7492 H   0  0  0  0  0  0  0  0  0  0  0  0
    4.9540   -7.8342    2.8920 H   0  0  0  0  0  0  0  0  0  0  0  0
    3.3492  -10.1098    5.2711 H   0  0  0  0  0  0  0  0  0  0  0  0
    1.9757   -9.2379    5.7795 H   0  0  0  0  0  0  0  0  0  0  0  0
    2.4729  -10.7817    3.2445 H   0  0  0  0  0  0  0  0  0  0  0  0
    1.1397  -10.9247    4.3380 H   0  0  0  0  0  0  0  0  0  0  0  0
    0.7938  -10.0730    2.0268 H   0  0  0  0  0  0  0  0  0  0  0  0
    1.3834   -7.3175    5.9566 H   0  0  0  0  0  0  0  0  0  0  0  0
   -0.9665   -6.3722    5.1565 H   0  0  0  0  0  0  0  0  0  0  0  0
   -0.3876   -6.4452    3.5961 H   0  0  0  0  0  0  0  0  0  0  0  0
   -0.2534   -8.9022    5.4118 H   0  0  0  0  0  0  0  0  0  0  0  0
   -1.7755   -8.3590    4.8262 H   0  0  0  0  0  0  0  0  0  0  0  0
   -0.9212  -10.0810    3.4755 H   0  0  0  0  0  0  0  0  0  0  0  0
   -1.1101   -7.6138    1.7670 H   0  0  0  0  0  0  0  0  0  0  0  0
   -2.4722   -8.5048    2.4644 H   0  0  0  0  0  0  0  0  0  0  0  0
   -1.4284   -9.2762    1.2958 H   0  0  0  0  0  0  0  0  0  0  0  0
    0.5677   -4.5795    5.2254 H   0  0  0  0  0  0  0  0  0  0  0  0
    0.7234   -6.0975    7.8791 H   0  0  0  0  0  0  0  0  0  0  0  0
   -0.7428   -5.6018    7.0627 H   0  0  0  0  0  0  0  0  0  0  0  0
    0.3190   -4.3947    7.7239 H   0  0  0  0  0  0  0  0  0  0  0  0
    2.2713   -3.6339    6.6077 H   0  0  0  0  0  0  0  0  0  0  0  0
    2.6963   -5.4244    7.8943 H   0  0  0  0  0  0  0  0  0  0  0  0
    4.2048   -4.0545    5.2202 H   0  0  0  0  0  0  0  0  0  0  0  0
  1  2  1  0
  1 37  1  0
  1 38  1  0
  1 39  1  0
  2  3  1  0
  3 14  1  0
  3  4  1  0
  3 40  1  6
  5  4  1  6
  5  7  1  0
  5 14  1  0
  5  6  1  0
  6  7  1  0
  7  8  1  0
  7 41  1  6
  8  9  1  0
  8 42  1  0
  8 43  1  0
  9 12  1  0
  9 10  1  0
  9 44  1  1
 10 36  1  0
 10 11  1  0
 10 45  1  1
 11 12  1  0
 12 13  1  0
 12 46  1  6
 13 14  1  0
 13 16  1  0
 13 47  1  1
 14 15  1  6
 15 48  1  0
 15 49  1  0
 15 50  1  0
 16 26  1  0
 16 36  1  0
 16 17  1  1
 17 18  1  0
 18 19  1  0
 19 26  1  0
 19 20  1  6
 19 21  1  0
 20 51  1  0
 20 52  1  0
 20 53  1  0
 21 22  1  0
 21 54  1  0
 21 55  1  0
 22 23  1  0
 22 56  1  0
 22 57  1  0
 23 30  1  0
 23 24  1  0
 23 58  1  6
 24 25  1  0
 26 25  1  6
 26 27  1  0
 27 28  1  0
 27 32  1  0
 27 59  1  1
 28 29  1  0
 28 60  1  0
 28 61  1  0
 29 30  1  0
 29 62  1  0
 29 63  1  0
 30 31  1  0
 30 64  1  1
 31 65  1  0
 31 66  1  0
 31 67  1  0
 32 33  1  0
 32 34  1  0
 32 68  1  6
 33 69  1  0
 33 70  1  0
 33 71  1  0
 34 35  1  0
 34 36  1  0
 34 72  1  1
 35 73  1  0
 36 74  1  1
M  END
>  <i_m_ct_stereo_status>  (229) 
1

>  <s_m_source_file>  (229) 
/var/tmp/pbs.5076255.sched01/tmpc36l9o9d/84wsylf1cs.sdf

>  <i_m_source_file_index>  (229) 
19

>  <i_lp_mmshare_version>  (229) 
48012

>  <i_f3d_flags>  (229) 
0

>  <s_epik_input>  (229) 
W0NAQF0xMjNbQ0BASF0oTzIpW0NIMl1bQ0BIXTRbQ0BASF01W0NAQEhdNltDQF03KFtDQEhdKFtDQEhdNE81KVtDQF0zKFtDSDNdKVtDQEBIXShPMSlPW0NIM10pW0NAXTg5W0NAXShPTzcpKFtDSDNdKVtDSDJdW0NIMl1bQ0BIXShPTzgpW0NASF0oW0NIM10pW0NIMl1bQ0gyXVtDQEBIXTlbQ0BASF0oW0NIM10pW0NASF02W09IXQ==

>  <s_epik_cmdline>  (229) 
J2VwaWtfcHl0aG9uJywgJy1waHQnLCAnMi4wJywgJy1waCcsICc3LjAnLCAnLXRuJywgJzgnLCAnLW1hJywgJzIwMCcsICctaW1hZScsICc8aW5maWxlLm1hZT4nLCAnLW9tYWUnLCAnPG91dGZpbGUubWFlPic=

>  <r_lp_tautomer_probability>  (229) 
1

>  <r_epik_Ionization_Penalty>  (229) 
1.96528e-07

>  <r_epik_Ionization_Penalty_Charging>  (229) 
0

>  <r_epik_Ionization_Penalty_Neutral>  (229) 
1.96528e-07

>  <r_epik_State_Penalty>  (229) 
-0

>  <r_epik_Charging_Adjusted_Penalty>  (229) 
0

>  <i_epik_Tot_Q>  (229) 
0

>  <i_epik_Tot_abs_Q>  (229) 
0

>  <s_epik_Chemistry_Notes>  (229) 
This compound contains an acetal/aminal-like group ( X-CH(R)-Y where X, Y are N, S, or O) that may be acid/base labile, releasing an aldehyde.

>  <s_lp_Force_Field>  (229) 
OPLS3e

>  <r_lp_Energy>  (229) 
166.454

>  <b_lp_Chiralities_Consistent>  (229) 
1

>  <s_lp_Variant>  (229) 
73:0-1

>  <s_i_glide_gridfile>  (229) 
pfpi4k_grid

>  <i_i_glide_lignum>  (229) 
19

>  <i_i_glide_rotatable_bonds>  (229) 
2

>  <r_i_docking_score>  (229) 
-1.5601

>  <r_i_glide_ligand_efficiency>  (229) 
-0.043336

>  <r_i_glide_ligand_efficiency_sa>  (229) 
-0.143092

>  <r_i_glide_ligand_efficiency_ln>  (229) 
-0.340371

>  <r_i_glide_gscore>  (229) 
-1.5601

>  <r_i_glide_lipo>  (229) 
-0.238355

>  <r_i_glide_hbond>  (229) 
0

>  <r_i_glide_metal>  (229) 
-0

>  <r_i_glide_rewards>  (229) 
-0.191308

>  <r_i_glide_evdw>  (229) 
-23.2937

>  <r_i_glide_ecoul>  (229) 
0.228362

>  <r_i_glide_erotb>  (229) 
0

>  <r_i_glide_esite>  (229) 
0

>  <r_i_glide_emodel>  (229) 
-24.6954

>  <r_i_glide_energy>  (229) 
-23.0654

>  <r_i_glide_einternal>  (229) 
0.330863

>  <r_i_glide_intrahb_reward>  (229) 
-0

>  <i_i_glide_confnum>  (229) 
1

>  <i_i_glide_posenum>  (229) 
12

>  <r_i_glide_eff_state_penalty>  (229) 
0

>  <ligand_id>  (229) 
73

>  <original_smiles>  (229) 
COC1OC23OC2CC2C4OC2C(C13C)C12OOC3(C)CCC5OOC31C(CCC5C)C(C)C(O)C42

>  <smiles>  (229) 
[H]OC1([H])C([H])(C([H])([H])[H])C2([H])C([H])([H])C([H])([H])C([H])(C([H])([H])[H])C3([H])OOC24C(C([H])([H])[H])(OOC42C1([H])C1([H])OC4([H])C1([H])C([H])([H])C1([H])OC15OC([H])(OC([H])([H])[H])C5(C([H])([H])[H])C42[H])C([H])([H])C3([H])[H]

$$$$
74:0:0
     RDKit          3D

 29 34  0  0  1  0  0  0  0  0999 V2000
   -5.5574   -7.9946   -6.9110 C   0  0  0  0  0  0  0  0  0  0  0  0
   -6.7379   -8.5928   -6.1412 C   0  0  2  0  0  0  0  0  0  0  0  0
   -5.8558   -9.8453   -6.2197 C   0  0  0  0  0  0  0  0  0  0  0  0
   -5.8018   -9.3135   -7.6610 C   0  0  1  0  0  0  0  0  0  0  0  0
   -7.2007   -9.3947   -8.2606 C   0  0  1  0  0  0  0  0  0  0  0  0
   -7.9489   -8.8115   -7.0306 C   0  0  2  0  0  0  0  0  0  0  0  0
   -8.6846   -7.5601   -7.5398 C   0  0  2  0  0  0  0  0  0  0  0  0
   -9.9933   -7.8676   -8.3181 C   0  0  2  0  0  0  0  0  0  0  0  0
  -10.1352   -9.1776   -9.1529 C   0  0  0  0  0  0  0  0  0  0  0  0
   -8.9609   -8.6849  -10.0400 C   0  0  1  0  0  0  0  0  0  0  0  0
   -9.3460   -7.2916   -9.5725 C   0  0  2  0  0  0  0  0  0  0  0  0
   -8.0522   -7.1650   -8.8524 C   0  0  2  0  0  0  0  0  0  0  0  0
   -7.5316   -8.4696   -9.4370 C   0  0  1  0  0  0  0  0  0  0  0  0
   -4.6121   -7.9040   -6.3672 H   0  0  0  0  0  0  0  0  0  0  0  0
   -5.7944   -7.0900   -7.4613 H   0  0  0  0  0  0  0  0  0  0  0  0
   -6.9016   -8.1816   -5.1438 H   0  0  0  0  0  0  0  0  0  0  0  0
   -4.9263   -9.8396   -5.6420 H   0  0  0  0  0  0  0  0  0  0  0  0
   -6.4138  -10.7744   -6.1124 H   0  0  0  0  0  0  0  0  0  0  0  0
   -4.9728   -9.6730   -8.2647 H   0  0  0  0  0  0  0  0  0  0  0  0
   -7.5024  -10.4292   -8.4569 H   0  0  0  0  0  0  0  0  0  0  0  0
   -8.6447   -9.5339   -6.5961 H   0  0  0  0  0  0  0  0  0  0  0  0
   -8.7755   -6.7111   -6.8595 H   0  0  0  0  0  0  0  0  0  0  0  0
  -10.8983   -7.3462   -8.0220 H   0  0  0  0  0  0  0  0  0  0  0  0
   -9.9264  -10.0847   -8.5859 H   0  0  0  0  0  0  0  0  0  0  0  0
  -11.0747   -9.2403   -9.6854 H   0  0  0  0  0  0  0  0  0  0  0  0
   -9.0300   -8.8146  -11.1182 H   0  0  0  0  0  0  0  0  0  0  0  0
   -9.7950   -6.5264  -10.2005 H   0  0  0  0  0  0  0  0  0  0  0  0
   -7.4979   -6.2333   -8.9507 H   0  0  0  0  0  0  0  0  0  0  0  0
   -6.7690   -8.2782  -10.1837 H   0  0  0  0  0  0  0  0  0  0  0  0
  1  4  1  0
  1  2  1  0
  1 14  1  0
  1 15  1  0
  2  6  1  0
  2  3  1  0
  2 16  1  1
  3  4  1  0
  3 17  1  0
  3 18  1  0
  4  5  1  0
  4 19  1  6
  5 13  1  0
  5  6  1  0
  5 20  1  6
  6  7  1  0
  6 21  1  1
  7 12  1  0
  7  8  1  0
  7 22  1  1
  8 11  1  0
  8  9  1  0
  8 23  1  1
  9 10  1  0
  9 24  1  0
  9 25  1  0
 10 13  1  0
 10 11  1  0
 10 26  1  6
 11 12  1  0
 11 27  1  6
 12 13  1  0
 12 28  1  1
 13 29  1  6
M  END
>  <i_m_ct_stereo_status>  (230) 
1

>  <s_m_source_file>  (230) 
/var/tmp/pbs.5076255.sched01/tmpc36l9o9d/84wsylf1cs.sdf

>  <i_m_source_file_index>  (230) 
20

>  <i_lp_mmshare_version>  (230) 
48012

>  <i_f3d_flags>  (230) 
0

>  <s_epik_input>  (230) 
W0NIMl0xW0NAQEhdKFtDSDJdMilbQ0BASF0oW0NASF0zW0NASF0xMilbQ0BIXTRbQ0BASF01W0NASF02W0NAQEhdKFtDSDJdNSlbQ0BASF0zW0NAQEhdNDY=

>  <s_epik_cmdline>  (230) 
J2VwaWtfcHl0aG9uJywgJy1waHQnLCAnMi4wJywgJy1waCcsICc3LjAnLCAnLXRuJywgJzgnLCAnLW1hJywgJzIwMCcsICctaW1hZScsICc8aW5maWxlLm1hZT4nLCAnLW9tYWUnLCAnPG91dGZpbGUubWFlPic=

>  <r_lp_tautomer_probability>  (230) 
1

>  <r_epik_Ionization_Penalty>  (230) 
0

>  <r_epik_Ionization_Penalty_Charging>  (230) 
0

>  <r_epik_Ionization_Penalty_Neutral>  (230) 
0

>  <r_epik_State_Penalty>  (230) 
-0

>  <r_epik_Charging_Adjusted_Penalty>  (230) 
0

>  <i_epik_Tot_Q>  (230) 
0

>  <i_epik_Tot_abs_Q>  (230) 
0

>  <s_lp_Force_Field>  (230) 
OPLS3e

>  <r_lp_Energy>  (230) 
84.6664

>  <b_lp_Chiralities_Consistent>  (230) 
1

>  <s_lp_Variant>  (230) 
74:0-1

>  <s_i_glide_gridfile>  (230) 
pfpi4k_grid

>  <i_i_glide_lignum>  (230) 
20

>  <i_i_glide_rotatable_bonds>  (230) 
0

>  <r_i_docking_score>  (230) 
-4.79382

>  <r_i_glide_ligand_efficiency>  (230) 
-0.368756

>  <r_i_glide_ligand_efficiency_sa>  (230) 
-0.867068

>  <r_i_glide_ligand_efficiency_ln>  (230) 
-1.34471

>  <r_i_glide_gscore>  (230) 
-4.79382

>  <r_i_glide_lipo>  (230) 
-1.58239

>  <r_i_glide_hbond>  (230) 
0

>  <r_i_glide_metal>  (230) 
-0

>  <r_i_glide_rewards>  (230) 
-2.53037

>  <r_i_glide_evdw>  (230) 
-13.6903

>  <r_i_glide_ecoul>  (230) 
0.0230264

>  <r_i_glide_erotb>  (230) 
0

>  <r_i_glide_esite>  (230) 
0

>  <r_i_glide_emodel>  (230) 
-19.7107

>  <r_i_glide_energy>  (230) 
-13.6672

>  <r_i_glide_einternal>  (230) 
0

>  <r_i_glide_intrahb_reward>  (230) 
-0

>  <i_i_glide_confnum>  (230) 
1

>  <i_i_glide_posenum>  (230) 
40

>  <r_i_glide_eff_state_penalty>  (230) 
0

>  <ligand_id>  (230) 
74

>  <original_smiles>  (230) 
C1C2CC1C1C2C2C3CC4C3C2C41

>  <smiles>  (230) 
[H]C1([H])C2([H])C([H])([H])C1([H])C1([H])C2([H])C2([H])C3([H])C([H])([H])C4([H])C3([H])C2([H])C41[H]

$$$$
74:0:1
     RDKit          3D

 29 34  0  0  1  0  0  0  0  0999 V2000
    5.8362   -2.6942    1.0066 C   0  0  0  0  0  0  0  0  0  0  0  0
    5.8675   -1.3130    0.3333 C   0  0  2  0  0  0  0  0  0  0  0  0
    5.0113   -0.9451    1.5543 C   0  0  0  0  0  0  0  0  0  0  0  0
    4.3633   -2.2630    1.0909 C   0  0  1  0  0  0  0  0  0  0  0  0
    3.7606   -2.0216   -0.2878 C   0  0  1  0  0  0  0  0  0  0  0  0
    4.9686   -1.2638   -0.8966 C   0  0  2  0  0  0  0  0  0  0  0  0
    5.4167   -2.0668   -2.1102 C   0  0  2  0  0  0  0  0  0  0  0  0
    4.5134   -1.8680   -3.3732 C   0  0  2  0  0  0  0  0  0  0  0  0
    3.0086   -1.5465   -3.2232 C   0  0  0  0  0  0  0  0  0  0  0  0
    2.8197   -2.9195   -2.5403 C   0  0  1  0  0  0  0  0  0  0  0  0
    4.0843   -3.3199   -3.2772 C   0  0  2  0  0  0  0  0  0  0  0  0
    4.8047   -3.4520   -1.9788 C   0  0  2  0  0  0  0  0  0  0  0  0
    3.5194   -3.2382   -1.1797 C   0  0  1  0  0  0  0  0  0  0  0  0
    6.3735   -2.7917    1.9582 H   0  0  0  0  0  0  0  0  0  0  0  0
    6.0403   -3.5413    0.3573 H   0  0  0  0  0  0  0  0  0  0  0  0
    6.8435   -0.8314    0.2805 H   0  0  0  0  0  0  0  0  0  0  0  0
    5.5071   -0.9421    2.5344 H   0  0  0  0  0  0  0  0  0  0  0  0
    4.3863   -0.0667    1.4053 H   0  0  0  0  0  0  0  0  0  0  0  0
    3.7540   -2.7788    1.8318 H   0  0  0  0  0  0  0  0  0  0  0  0
    2.8777   -1.3798   -0.2198 H   0  0  0  0  0  0  0  0  0  0  0  0
    4.6983   -0.2418   -1.1620 H   0  0  0  0  0  0  0  0  0  0  0  0
    6.4799   -2.1010   -2.3194 H   0  0  0  0  0  0  0  0  0  0  0  0
    4.9905   -1.5893   -4.3111 H   0  0  0  0  0  0  0  0  0  0  0  0
    2.7801   -0.6988   -2.5805 H   0  0  0  0  0  0  0  0  0  0  0  0
    2.4804   -1.4747   -4.1725 H   0  0  0  0  0  0  0  0  0  0  0  0
    1.9395   -3.5161   -2.7972 H   0  0  0  0  0  0  0  0  0  0  0  0
    4.1235   -4.0503   -4.0920 H   0  0  0  0  0  0  0  0  0  0  0  0
    5.4248   -4.3293   -1.8202 H   0  0  0  0  0  0  0  0  0  0  0  0
    3.1516   -4.1496   -0.7107 H   0  0  0  0  0  0  0  0  0  0  0  0
  1  4  1  0
  1  2  1  0
  1 14  1  0
  1 15  1  0
  2  6  1  0
  2  3  1  0
  2 16  1  6
  3  4  1  0
  3 17  1  0
  3 18  1  0
  4  5  1  0
  4 19  1  1
  5 13  1  0
  5  6  1  0
  5 20  1  1
  6  7  1  0
  6 21  1  6
  7 12  1  0
  7  8  1  0
  7 22  1  6
  8 11  1  0
  8  9  1  0
  8 23  1  6
  9 10  1  0
  9 24  1  0
  9 25  1  0
 10 13  1  0
 10 11  1  0
 10 26  1  6
 11 12  1  0
 11 27  1  6
 12 13  1  0
 12 28  1  6
 13 29  1  1
M  END
>  <i_m_ct_stereo_status>  (231) 
1

>  <s_m_source_file>  (231) 
/var/tmp/pbs.5076255.sched01/tmpc36l9o9d/84wsylf1cs.sdf

>  <i_m_source_file_index>  (231) 
20

>  <i_lp_mmshare_version>  (231) 
48012

>  <i_f3d_flags>  (231) 
0

>  <s_epik_input>  (231) 
W0NIMl0xW0NAQEhdKFtDSDJdMilbQ0BASF0oW0NASF0zW0NASF0xMilbQ0BIXTRbQ0BASF01W0NASF02W0NAQEhdKFtDSDJdNSlbQ0BASF0zW0NAQEhdNDY=

>  <s_epik_cmdline>  (231) 
J2VwaWtfcHl0aG9uJywgJy1waHQnLCAnMi4wJywgJy1waCcsICc3LjAnLCAnLXRuJywgJzgnLCAnLW1hJywgJzIwMCcsICctaW1hZScsICc8aW5maWxlLm1hZT4nLCAnLW9tYWUnLCAnPG91dGZpbGUubWFlPic=

>  <r_lp_tautomer_probability>  (231) 
1

>  <r_epik_Ionization_Penalty>  (231) 
0

>  <r_epik_Ionization_Penalty_Charging>  (231) 
0

>  <r_epik_Ionization_Penalty_Neutral>  (231) 
0

>  <r_epik_State_Penalty>  (231) 
-0

>  <r_epik_Charging_Adjusted_Penalty>  (231) 
0

>  <i_epik_Tot_Q>  (231) 
0

>  <i_epik_Tot_abs_Q>  (231) 
0

>  <s_lp_Force_Field>  (231) 
OPLS3e

>  <r_lp_Energy>  (231) 
84.6664

>  <b_lp_Chiralities_Consistent>  (231) 
1

>  <s_lp_Variant>  (231) 
74:0-1

>  <s_i_glide_gridfile>  (231) 
pfpi4k_grid

>  <i_i_glide_lignum>  (231) 
20

>  <i_i_glide_rotatable_bonds>  (231) 
0

>  <r_i_docking_score>  (231) 
-3.9076

>  <r_i_glide_ligand_efficiency>  (231) 
-0.300584

>  <r_i_glide_ligand_efficiency_sa>  (231) 
-0.706774

>  <r_i_glide_ligand_efficiency_ln>  (231) 
-1.09612

>  <r_i_glide_gscore>  (231) 
-3.9076

>  <r_i_glide_lipo>  (231) 
-0.587888

>  <r_i_glide_hbond>  (231) 
0

>  <r_i_glide_metal>  (231) 
-0

>  <r_i_glide_rewards>  (231) 
-2.23455

>  <r_i_glide_evdw>  (231) 
-20.7143

>  <r_i_glide_ecoul>  (231) 
-0.32963

>  <r_i_glide_erotb>  (231) 
0

>  <r_i_glide_esite>  (231) 
0

>  <r_i_glide_emodel>  (231) 
-25.993

>  <r_i_glide_energy>  (231) 
-21.0439

>  <r_i_glide_einternal>  (231) 
0

>  <r_i_glide_intrahb_reward>  (231) 
-0

>  <i_i_glide_confnum>  (231) 
2

>  <i_i_glide_posenum>  (231) 
1

>  <r_i_glide_eff_state_penalty>  (231) 
0

>  <ligand_id>  (231) 
74

>  <original_smiles>  (231) 
C1C2CC1C1C2C2C3CC4C3C2C41

>  <smiles>  (231) 
[H]C1([H])C2([H])C([H])([H])C1([H])C1([H])C2([H])C2([H])C3([H])C([H])([H])C4([H])C3([H])C2([H])C41[H]

$$$$
74:0:2
     RDKit          3D

 29 34  0  0  1  0  0  0  0  0999 V2000
    5.5361   -3.2115    0.6922 C   0  0  0  0  0  0  0  0  0  0  0  0
    6.4270   -3.3086   -0.5591 C   0  0  2  0  0  0  0  0  0  0  0  0
    7.1469   -2.1592    0.1593 C   0  0  0  0  0  0  0  0  0  0  0  0
    5.6750   -1.7327    0.2892 C   0  0  1  0  0  0  0  0  0  0  0  0
    5.1389   -1.4771   -1.1151 C   0  0  1  0  0  0  0  0  0  0  0  0
    5.7424   -2.7348   -1.7946 C   0  0  2  0  0  0  0  0  0  0  0  0
    4.5612   -3.5243   -2.3630 C   0  0  2  0  0  0  0  0  0  0  0  0
    3.9532   -2.9480   -3.6882 C   0  0  2  0  0  0  0  0  0  0  0  0
    4.0011   -1.4278   -3.9816 C   0  0  0  0  0  0  0  0  0  0  0  0
    3.1183   -1.1940   -2.7225 C   0  0  1  0  0  0  0  0  0  0  0  0
    2.6646   -2.6379   -2.9356 C   0  0  2  0  0  0  0  0  0  0  0  0
    3.3159   -3.0253   -1.6533 C   0  0  2  0  0  0  0  0  0  0  0  0
    3.6303   -1.5832   -1.3024 C   0  0  1  0  0  0  0  0  0  0  0  0
    5.9915   -3.5113    1.6499 H   0  0  0  0  0  0  0  0  0  0  0  0
    4.5461   -3.6476    0.6183 H   0  0  0  0  0  0  0  0  0  0  0  0
    6.9953   -4.2291   -0.6687 H   0  0  0  0  0  0  0  0  0  0  0  0
    7.6934   -2.4043    1.0763 H   0  0  0  0  0  0  0  0  0  0  0  0
    7.7527   -1.5231   -0.4821 H   0  0  0  0  0  0  0  0  0  0  0  0
    5.4465   -1.0018    1.0652 H   0  0  0  0  0  0  0  0  0  0  0  0
    5.5262   -0.5455   -1.5310 H   0  0  0  0  0  0  0  0  0  0  0  0
    6.4693   -2.4831   -2.5711 H   0  0  0  0  0  0  0  0  0  0  0  0
    4.6542   -4.6178   -2.3768 H   0  0  0  0  0  0  0  0  0  0  0  0
    3.8044   -3.6424   -4.5180 H   0  0  0  0  0  0  0  0  0  0  0  0
    4.9853   -0.9898   -3.9057 H   0  0  0  0  0  0  0  0  0  0  0  0
    3.5046   -1.1373   -4.9038 H   0  0  0  0  0  0  0  0  0  0  0  0
    2.3092   -0.4624   -2.7783 H   0  0  0  0  0  0  0  0  0  0  0  0
    1.6653   -2.9385   -3.2612 H   0  0  0  0  0  0  0  0  0  0  0  0
    2.7518   -3.6630   -0.9782 H   0  0  0  0  0  0  0  0  0  0  0  0
    3.0138   -1.1634   -0.4895 H   0  0  0  0  0  0  0  0  0  0  0  0
  1  4  1  0
  1  2  1  0
  1 14  1  0
  1 15  1  0
  2  6  1  0
  2  3  1  0
  2 16  1  6
  3  4  1  0
  3 17  1  0
  3 18  1  0
  4  5  1  0
  4 19  1  1
  5 13  1  0
  5  6  1  0
  5 20  1  6
  6  7  1  0
  6 21  1  6
  7 12  1  0
  7  8  1  0
  7 22  1  6
  8 11  1  0
  8  9  1  0
  8 23  1  6
  9 10  1  0
  9 24  1  0
  9 25  1  0
 10 13  1  0
 10 11  1  0
 10 26  1  1
 11 12  1  0
 11 27  1  6
 12 13  1  0
 12 28  1  1
 13 29  1  1
M  END
>  <i_m_ct_stereo_status>  (232) 
1

>  <s_m_source_file>  (232) 
/var/tmp/pbs.5076255.sched01/tmpc36l9o9d/84wsylf1cs.sdf

>  <i_m_source_file_index>  (232) 
20

>  <i_lp_mmshare_version>  (232) 
48012

>  <i_f3d_flags>  (232) 
0

>  <s_epik_input>  (232) 
W0NIMl0xW0NAQEhdKFtDSDJdMilbQ0BASF0oW0NASF0zW0NASF0xMilbQ0BIXTRbQ0BASF01W0NASF02W0NAQEhdKFtDSDJdNSlbQ0BASF0zW0NAQEhdNDY=

>  <s_epik_cmdline>  (232) 
J2VwaWtfcHl0aG9uJywgJy1waHQnLCAnMi4wJywgJy1waCcsICc3LjAnLCAnLXRuJywgJzgnLCAnLW1hJywgJzIwMCcsICctaW1hZScsICc8aW5maWxlLm1hZT4nLCAnLW9tYWUnLCAnPG91dGZpbGUubWFlPic=

>  <r_lp_tautomer_probability>  (232) 
1

>  <r_epik_Ionization_Penalty>  (232) 
0

>  <r_epik_Ionization_Penalty_Charging>  (232) 
0

>  <r_epik_Ionization_Penalty_Neutral>  (232) 
0

>  <r_epik_State_Penalty>  (232) 
-0

>  <r_epik_Charging_Adjusted_Penalty>  (232) 
0

>  <i_epik_Tot_Q>  (232) 
0

>  <i_epik_Tot_abs_Q>  (232) 
0

>  <s_lp_Force_Field>  (232) 
OPLS3e

>  <r_lp_Energy>  (232) 
84.6664

>  <b_lp_Chiralities_Consistent>  (232) 
1

>  <s_lp_Variant>  (232) 
74:0-1

>  <s_i_glide_gridfile>  (232) 
pfpi4k_grid

>  <i_i_glide_lignum>  (232) 
20

>  <i_i_glide_rotatable_bonds>  (232) 
0

>  <r_i_docking_score>  (232) 
-3.65698

>  <r_i_glide_ligand_efficiency>  (232) 
-0.281306

>  <r_i_glide_ligand_efficiency_sa>  (232) 
-0.661445

>  <r_i_glide_ligand_efficiency_ln>  (232) 
-1.02582

>  <r_i_glide_gscore>  (232) 
-3.65698

>  <r_i_glide_lipo>  (232) 
-0.46479

>  <r_i_glide_hbond>  (232) 
0

>  <r_i_glide_metal>  (232) 
-0

>  <r_i_glide_rewards>  (232) 
-2.23455

>  <r_i_glide_evdw>  (232) 
-20.9639

>  <r_i_glide_ecoul>  (232) 
0.603716

>  <r_i_glide_erotb>  (232) 
0

>  <r_i_glide_esite>  (232) 
0

>  <r_i_glide_emodel>  (232) 
-25.0234

>  <r_i_glide_energy>  (232) 
-20.3602

>  <r_i_glide_einternal>  (232) 
0

>  <r_i_glide_intrahb_reward>  (232) 
-0

>  <i_i_glide_confnum>  (232) 
1

>  <i_i_glide_posenum>  (232) 
9

>  <r_i_glide_eff_state_penalty>  (232) 
0

>  <ligand_id>  (232) 
74

>  <original_smiles>  (232) 
C1C2CC1C1C2C2C3CC4C3C2C41

>  <smiles>  (232) 
[H]C1([H])C2([H])C([H])([H])C1([H])C1([H])C2([H])C2([H])C3([H])C([H])([H])C4([H])C3([H])C2([H])C41[H]

$$$$
75:0:0
     RDKit          3D

 22 24  0  0  1  0  0  0  0  0999 V2000
    3.1605   -0.8844   -4.1674 C   0  0  0  0  0  0  0  0  0  0  0  0
    3.6763   -1.7768   -3.0545 C   0  0  0  0  0  0  0  0  0  0  0  0
    2.8562   -2.6784   -2.3582 C   0  0  0  0  0  0  0  0  0  0  0  0
    3.4517   -3.4573   -1.3396 C   0  0  0  0  0  0  0  0  0  0  0  0
    4.8388   -3.3352   -1.1042 C   0  0  0  0  0  0  0  0  0  0  0  0
    5.4802   -4.1100   -0.1018 C   0  0  0  0  0  0  0  0  0  0  0  0
    6.8592   -3.9250    0.0771 C   0  0  0  0  0  0  0  0  0  0  0  0
    7.7963   -4.4909    0.9603 C   0  0  0  0  0  0  0  0  0  0  0  0
    8.9963   -3.9573    0.7311 N   0  0  0  0  0  0  0  0  0  0  0  0
    8.8034   -3.0623   -0.3019 N   0  0  0  0  0  0  0  0  0  0  0  0
    7.5010   -3.0238   -0.7646 C   0  0  0  0  0  0  0  0  0  0  0  0
    6.9390   -2.2832   -1.7437 N   0  0  0  0  0  0  0  0  0  0  0  0
    5.6050   -2.4265   -1.8970 C   0  0  0  0  0  0  0  0  0  0  0  0
    4.9886   -1.6572   -2.8108 N   0  0  0  0  0  0  0  0  0  0  0  0
    2.1150   -1.0735   -4.3658 H   0  0  0  0  0  0  0  0  0  0  0  0
    3.6858   -1.0731   -5.1020 H   0  0  0  0  0  0  0  0  0  0  0  0
    3.2939    0.1673   -3.9125 H   0  0  0  0  0  0  0  0  0  0  0  0
    1.7969   -2.7661   -2.5745 H   0  0  0  0  0  0  0  0  0  0  0  0
    2.8554   -4.1616   -0.7778 H   0  0  0  0  0  0  0  0  0  0  0  0
    4.9635   -4.8258    0.5125 H   0  0  0  0  0  0  0  0  0  0  0  0
    7.5644   -5.2496    1.6973 H   0  0  0  0  0  0  0  0  0  0  0  0
    9.5729   -2.5200   -0.6950 H   0  0  0  0  0  0  0  0  0  0  0  0
  1  2  1  0
  1 15  1  0
  1 16  1  0
  1 17  1  0
  2 14  2  0
  2  3  1  0
  3  4  2  0
  3 18  1  0
  4  5  1  0
  4 19  1  0
  5 13  2  0
  5  6  1  0
  6  7  2  0
  6 20  1  0
  7 11  1  0
  7  8  1  0
  8  9  2  0
  8 21  1  0
  9 10  1  0
 10 11  1  0
 10 22  1  0
 11 12  2  0
 12 13  1  0
 13 14  1  0
M  END
>  <i_m_ct_stereo_status>  (233) 
1

>  <s_m_source_file>  (233) 
/var/tmp/pbs.5076255.sched01/tmpc36l9o9d/84wsylf1cs.sdf

>  <i_m_source_file_index>  (233) 
22

>  <i_lp_mmshare_version>  (233) 
48012

>  <i_f3d_flags>  (233) 
0

>  <s_epik_input>  (233) 
W2NIXTFbY0hdYyhbQ0gzXSluYyhjMTIpW25IXWMzYyhbY0hdMilbY0hdbm4z

>  <s_epik_cmdline>  (233) 
J2VwaWtfcHl0aG9uJywgJy1waHQnLCAnMi4wJywgJy1waCcsICc3LjAnLCAnLXRuJywgJzgnLCAnLW1hJywgJzIwMCcsICctaW1hZScsICc8aW5maWxlLm1hZT4nLCAnLW9tYWUnLCAnPG91dGZpbGUubWFlPic=

>  <r_epik_Ionization_Penalty>  (233) 
6.159e-06

>  <r_epik_Ionization_Penalty_Charging>  (233) 
0

>  <r_epik_Ionization_Penalty_Neutral>  (233) 
6.159e-06

>  <r_epik_State_Penalty>  (233) 
0.209234

>  <r_epik_Charging_Adjusted_Penalty>  (233) 
0.209234

>  <i_epik_Tot_Q>  (233) 
0

>  <i_epik_Tot_abs_Q>  (233) 
0

>  <s_lp_Force_Field>  (233) 
OPLS3e

>  <r_lp_Energy>  (233) 
17.0022

>  <b_lp_Chiralities_Consistent>  (233) 
1

>  <s_lp_Variant>  (233) 
75:0-1

>  <s_i_glide_gridfile>  (233) 
pfpi4k_grid

>  <i_i_glide_lignum>  (233) 
22

>  <i_i_glide_rotatable_bonds>  (233) 
0

>  <r_i_docking_score>  (233) 
-5.02517

>  <r_i_glide_ligand_efficiency>  (233) 
-0.358941

>  <r_i_glide_ligand_efficiency_sa>  (233) 
-0.865098

>  <r_i_glide_ligand_efficiency_ln>  (233) 
-1.3809

>  <r_i_glide_gscore>  (233) 
-5.02517

>  <r_i_glide_lipo>  (233) 
-0.601181

>  <r_i_glide_hbond>  (233) 
-0.323405

>  <r_i_glide_metal>  (233) 
-0

>  <r_i_glide_rewards>  (233) 
-2.20946

>  <r_i_glide_evdw>  (233) 
-19.5389

>  <r_i_glide_ecoul>  (233) 
-5.79443

>  <r_i_glide_erotb>  (233) 
0

>  <r_i_glide_esite>  (233) 
-0.0450089

>  <r_i_glide_emodel>  (233) 
-34.6939

>  <r_i_glide_energy>  (233) 
-25.3333

>  <r_i_glide_einternal>  (233) 
0

>  <r_i_glide_intrahb_reward>  (233) 
-0

>  <i_i_glide_confnum>  (233) 
2

>  <i_i_glide_posenum>  (233) 
9

>  <r_i_glide_eff_state_penalty>  (233) 
0

>  <ligand_id>  (233) 
75

>  <original_smiles>  (233) 
Cc1ccc2cc3cnnc-3[nH]c2n1

>  <smiles>  (233) 
[H]c1c(C([H])([H])[H])nc2nc3c(c([H])nn3[H])c([H])c2c1[H]

$$$$
75:0:1
     RDKit          3D

 22 24  0  0  1  0  0  0  0  0999 V2000
    0.1757   -8.1486    2.1178 C   0  0  0  0  0  0  0  0  0  0  0  0
    1.4608   -7.4917    1.6363 C   0  0  0  0  0  0  0  0  0  0  0  0
    2.7083   -8.1323    1.7472 C   0  0  0  0  0  0  0  0  0  0  0  0
    3.8528   -7.4535    1.2743 C   0  0  0  0  0  0  0  0  0  0  0  0
    3.7053   -6.1691    0.7030 C   0  0  0  0  0  0  0  0  0  0  0  0
    4.8216   -5.4506    0.1925 C   0  0  0  0  0  0  0  0  0  0  0  0
    4.6002   -4.1822   -0.3680 C   0  0  0  0  0  0  0  0  0  0  0  0
    5.4293   -3.2047   -0.9478 C   0  0  0  0  0  0  0  0  0  0  0  0
    4.6926   -2.1535   -1.3204 N   0  0  0  0  0  0  0  0  0  0  0  0
    3.3978   -2.4822   -0.9669 N   0  0  0  0  0  0  0  0  0  0  0  0
    3.2964   -3.7299   -0.3842 C   0  0  0  0  0  0  0  0  0  0  0  0
    2.2137   -4.3814    0.0799 N   0  0  0  0  0  0  0  0  0  0  0  0
    2.4062   -5.5974    0.6197 C   0  0  0  0  0  0  0  0  0  0  0  0
    1.3280   -6.2651    1.0854 N   0  0  0  0  0  0  0  0  0  0  0  0
    0.3515   -9.1415    2.5312 H   0  0  0  0  0  0  0  0  0  0  0  0
   -0.5345   -8.2513    1.2980 H   0  0  0  0  0  0  0  0  0  0  0  0
   -0.2963   -7.5414    2.8882 H   0  0  0  0  0  0  0  0  0  0  0  0
    2.7900   -9.1274    2.1720 H   0  0  0  0  0  0  0  0  0  0  0  0
    4.8302   -7.9265    1.3330 H   0  0  0  0  0  0  0  0  0  0  0  0
    5.8302   -5.8379    0.2136 H   0  0  0  0  0  0  0  0  0  0  0  0
    6.5030   -3.3058   -1.0561 H   0  0  0  0  0  0  0  0  0  0  0  0
    2.6008   -1.8549   -1.1089 H   0  0  0  0  0  0  0  0  0  0  0  0
  1  2  1  0
  1 15  1  0
  1 16  1  0
  1 17  1  0
  2 14  2  0
  2  3  1  0
  3  4  2  0
  3 18  1  0
  4  5  1  0
  4 19  1  0
  5 13  2  0
  5  6  1  0
  6  7  2  0
  6 20  1  0
  7 11  1  0
  7  8  1  0
  8  9  2  0
  8 21  1  0
  9 10  1  0
 10 11  1  0
 10 22  1  0
 11 12  2  0
 12 13  1  0
 13 14  1  0
M  END
>  <i_m_ct_stereo_status>  (234) 
1

>  <s_m_source_file>  (234) 
/var/tmp/pbs.5076255.sched01/tmpc36l9o9d/84wsylf1cs.sdf

>  <i_m_source_file_index>  (234) 
22

>  <i_lp_mmshare_version>  (234) 
48012

>  <i_f3d_flags>  (234) 
0

>  <s_epik_input>  (234) 
W2NIXTFbY0hdYyhbQ0gzXSluYyhjMTIpW25IXWMzYyhbY0hdMilbY0hdbm4z

>  <s_epik_cmdline>  (234) 
J2VwaWtfcHl0aG9uJywgJy1waHQnLCAnMi4wJywgJy1waCcsICc3LjAnLCAnLXRuJywgJzgnLCAnLW1hJywgJzIwMCcsICctaW1hZScsICc8aW5maWxlLm1hZT4nLCAnLW9tYWUnLCAnPG91dGZpbGUubWFlPic=

>  <r_epik_Ionization_Penalty>  (234) 
6.159e-06

>  <r_epik_Ionization_Penalty_Charging>  (234) 
0

>  <r_epik_Ionization_Penalty_Neutral>  (234) 
6.159e-06

>  <r_epik_State_Penalty>  (234) 
0.209234

>  <r_epik_Charging_Adjusted_Penalty>  (234) 
0.209234

>  <i_epik_Tot_Q>  (234) 
0

>  <i_epik_Tot_abs_Q>  (234) 
0

>  <s_lp_Force_Field>  (234) 
OPLS3e

>  <r_lp_Energy>  (234) 
17.0022

>  <b_lp_Chiralities_Consistent>  (234) 
1

>  <s_lp_Variant>  (234) 
75:0-1

>  <s_i_glide_gridfile>  (234) 
pfpi4k_grid

>  <i_i_glide_lignum>  (234) 
22

>  <i_i_glide_rotatable_bonds>  (234) 
0

>  <r_i_docking_score>  (234) 
-4.34174

>  <r_i_glide_ligand_efficiency>  (234) 
-0.310124

>  <r_i_glide_ligand_efficiency_sa>  (234) 
-0.747443

>  <r_i_glide_ligand_efficiency_ln>  (234) 
-1.19309

>  <r_i_glide_gscore>  (234) 
-4.34174

>  <r_i_glide_lipo>  (234) 
-0.240879

>  <r_i_glide_hbond>  (234) 
-0.248889

>  <r_i_glide_metal>  (234) 
-0

>  <r_i_glide_rewards>  (234) 
-2.1532

>  <r_i_glide_evdw>  (234) 
-16.7491

>  <r_i_glide_ecoul>  (234) 
-5.08202

>  <r_i_glide_erotb>  (234) 
0

>  <r_i_glide_esite>  (234) 
-0.0990128

>  <r_i_glide_emodel>  (234) 
-29.9014

>  <r_i_glide_energy>  (234) 
-21.8311

>  <r_i_glide_einternal>  (234) 
0

>  <r_i_glide_intrahb_reward>  (234) 
-0

>  <i_i_glide_confnum>  (234) 
2

>  <i_i_glide_posenum>  (234) 
39

>  <r_i_glide_eff_state_penalty>  (234) 
0

>  <ligand_id>  (234) 
75

>  <original_smiles>  (234) 
Cc1ccc2cc3cnnc-3[nH]c2n1

>  <smiles>  (234) 
[H]c1c(C([H])([H])[H])nc2nc3c(c([H])nn3[H])c([H])c2c1[H]

$$$$
75:0:2
     RDKit          3D

 22 24  0  0  1  0  0  0  0  0999 V2000
    4.7156   -4.4081    0.1091 C   0  0  0  0  0  0  0  0  0  0  0  0
    3.6775   -4.7576    1.1579 C   0  0  0  0  0  0  0  0  0  0  0  0
    3.6381   -4.1329    2.4173 C   0  0  0  0  0  0  0  0  0  0  0  0
    2.6344   -4.5379    3.3193 C   0  0  0  0  0  0  0  0  0  0  0  0
    1.7217   -5.5385    2.9285 C   0  0  0  0  0  0  0  0  0  0  0  0
    0.7068   -5.9709    3.8121 C   0  0  0  0  0  0  0  0  0  0  0  0
   -0.1752   -6.9592    3.3617 C   0  0  0  0  0  0  0  0  0  0  0  0
   -1.2788   -7.5901    3.9483 C   0  0  0  0  0  0  0  0  0  0  0  0
   -1.8047   -8.4439    3.0806 N   0  0  0  0  0  0  0  0  0  0  0  0
   -0.9852   -8.3783    1.9752 N   0  0  0  0  0  0  0  0  0  0  0  0
    0.0288   -7.4437    2.0763 C   0  0  0  0  0  0  0  0  0  0  0  0
    0.9626   -7.0541    1.1847 N   0  0  0  0  0  0  0  0  0  0  0  0
    1.8331   -6.1179    1.6183 C   0  0  0  0  0  0  0  0  0  0  0  0
    2.8046   -5.7031    0.7845 N   0  0  0  0  0  0  0  0  0  0  0  0
    5.4003   -3.6337    0.4562 H   0  0  0  0  0  0  0  0  0  0  0  0
    4.2236   -4.0624   -0.7990 H   0  0  0  0  0  0  0  0  0  0  0  0
    5.2913   -5.2942   -0.1533 H   0  0  0  0  0  0  0  0  0  0  0  0
    4.3559   -3.3689    2.6885 H   0  0  0  0  0  0  0  0  0  0  0  0
    2.5693   -4.0766    4.2954 H   0  0  0  0  0  0  0  0  0  0  0  0
    0.5658   -5.5566    4.8018 H   0  0  0  0  0  0  0  0  0  0  0  0
   -1.6720   -7.3976    4.9386 H   0  0  0  0  0  0  0  0  0  0  0  0
   -1.1054   -8.9844    1.1702 H   0  0  0  0  0  0  0  0  0  0  0  0
  1  2  1  0
  1 15  1  0
  1 16  1  0
  1 17  1  0
  2 14  2  0
  2  3  1  0
  3  4  2  0
  3 18  1  0
  4  5  1  0
  4 19  1  0
  5 13  2  0
  5  6  1  0
  6  7  2  0
  6 20  1  0
  7 11  1  0
  7  8  1  0
  8  9  2  0
  8 21  1  0
  9 10  1  0
 10 11  1  0
 10 22  1  0
 11 12  2  0
 12 13  1  0
 13 14  1  0
M  END
>  <i_m_ct_stereo_status>  (235) 
1

>  <s_m_source_file>  (235) 
/var/tmp/pbs.5076255.sched01/tmpc36l9o9d/84wsylf1cs.sdf

>  <i_m_source_file_index>  (235) 
22

>  <i_lp_mmshare_version>  (235) 
48012

>  <i_f3d_flags>  (235) 
0

>  <s_epik_input>  (235) 
W2NIXTFbY0hdYyhbQ0gzXSluYyhjMTIpW25IXWMzYyhbY0hdMilbY0hdbm4z

>  <s_epik_cmdline>  (235) 
J2VwaWtfcHl0aG9uJywgJy1waHQnLCAnMi4wJywgJy1waCcsICc3LjAnLCAnLXRuJywgJzgnLCAnLW1hJywgJzIwMCcsICctaW1hZScsICc8aW5maWxlLm1hZT4nLCAnLW9tYWUnLCAnPG91dGZpbGUubWFlPic=

>  <r_epik_Ionization_Penalty>  (235) 
6.159e-06

>  <r_epik_Ionization_Penalty_Charging>  (235) 
0

>  <r_epik_Ionization_Penalty_Neutral>  (235) 
6.159e-06

>  <r_epik_State_Penalty>  (235) 
0.209234

>  <r_epik_Charging_Adjusted_Penalty>  (235) 
0.209234

>  <i_epik_Tot_Q>  (235) 
0

>  <i_epik_Tot_abs_Q>  (235) 
0

>  <s_lp_Force_Field>  (235) 
OPLS3e

>  <r_lp_Energy>  (235) 
17.0022

>  <b_lp_Chiralities_Consistent>  (235) 
1

>  <s_lp_Variant>  (235) 
75:0-1

>  <s_i_glide_gridfile>  (235) 
pfpi4k_grid

>  <i_i_glide_lignum>  (235) 
22

>  <i_i_glide_rotatable_bonds>  (235) 
0

>  <r_i_docking_score>  (235) 
-3.9102

>  <r_i_glide_ligand_efficiency>  (235) 
-0.2793

>  <r_i_glide_ligand_efficiency_sa>  (235) 
-0.673153

>  <r_i_glide_ligand_efficiency_ln>  (235) 
-1.07451

>  <r_i_glide_gscore>  (235) 
-3.9102

>  <r_i_glide_lipo>  (235) 
-0.0392242

>  <r_i_glide_hbond>  (235) 
-0.260632

>  <r_i_glide_metal>  (235) 
-0

>  <r_i_glide_rewards>  (235) 
-2.1532

>  <r_i_glide_evdw>  (235) 
-17.7137

>  <r_i_glide_ecoul>  (235) 
-2.6835

>  <r_i_glide_erotb>  (235) 
0

>  <r_i_glide_esite>  (235) 
-0.16894

>  <r_i_glide_emodel>  (235) 
-27.6802

>  <r_i_glide_energy>  (235) 
-20.3972

>  <r_i_glide_einternal>  (235) 
0

>  <r_i_glide_intrahb_reward>  (235) 
-0

>  <i_i_glide_confnum>  (235) 
1

>  <i_i_glide_posenum>  (235) 
23

>  <r_i_glide_eff_state_penalty>  (235) 
0

>  <ligand_id>  (235) 
75

>  <original_smiles>  (235) 
Cc1ccc2cc3cnnc-3[nH]c2n1

>  <smiles>  (235) 
[H]c1c(C([H])([H])[H])nc2nc3c(c([H])nn3[H])c([H])c2c1[H]

$$$$
75:1:0
     RDKit          3D

 22 24  0  0  1  0  0  0  0  0999 V2000
    2.7096   -3.8555   -0.8162 C   0  0  0  0  0  0  0  0  0  0  0  0
    2.6852   -5.0676    0.0840 C   0  0  0  0  0  0  0  0  0  0  0  0
    3.8550   -5.7295    0.4893 C   0  0  0  0  0  0  0  0  0  0  0  0
    3.7248   -6.8587    1.3231 C   0  0  0  0  0  0  0  0  0  0  0  0
    2.4312   -7.2570    1.7268 C   0  0  0  0  0  0  0  0  0  0  0  0
    2.2349   -8.3724    2.5660 C   0  0  0  0  0  0  0  0  0  0  0  0
    0.9038   -8.6598    2.9019 C   0  0  0  0  0  0  0  0  0  0  0  0
    0.3937   -9.6654    3.6942 C   0  0  0  0  0  0  0  0  0  0  0  0
   -0.9736   -9.4601    3.6754 N   0  0  0  0  0  0  0  0  0  0  0  0
   -1.3301   -8.3635    2.9194 N   0  0  0  0  0  0  0  0  0  0  0  0
   -0.1555   -7.8857    2.4509 C   0  0  0  0  0  0  0  0  0  0  0  0
    0.0468   -6.8129    1.6786 N   0  0  0  0  0  0  0  0  0  0  0  0
    1.3017   -6.5136    1.2795 C   0  0  0  0  0  0  0  0  0  0  0  0
    1.4557   -5.4671    0.4535 N   0  0  0  0  0  0  0  0  0  0  0  0
    3.7218   -3.5995   -1.1061 H   0  0  0  0  0  0  0  0  0  0  0  0
    2.2613   -2.9932   -0.3169 H   0  0  0  0  0  0  0  0  0  0  0  0
    2.1307   -4.0394   -1.7207 H   0  0  0  0  0  0  0  0  0  0  0  0
    4.8195   -5.3940    0.1467 H   0  0  0  0  0  0  0  0  0  0  0  0
    4.6091   -7.4031    1.6405 H   0  0  0  0  0  0  0  0  0  0  0  0
    3.0661   -8.9741    2.9466 H   0  0  0  0  0  0  0  0  0  0  0  0
    0.8091  -10.4817    4.2733 H   0  0  0  0  0  0  0  0  0  0  0  0
   -1.6148  -10.0349    4.2296 H   0  0  0  0  0  0  0  0  0  0  0  0
  1  2  1  0
  1 15  1  0
  1 16  1  0
  1 17  1  0
  2 14  2  0
  2  3  1  0
  3  4  2  0
  3 18  1  0
  4  5  1  0
  4 19  1  0
  5 13  2  0
  5  6  1  0
  6  7  2  0
  6 20  1  0
  7 11  1  0
  7  8  1  0
  8  9  2  0
  8 21  1  0
  9 10  1  0
  9 22  1  0
 10 11  2  0
 11 12  1  0
 12 13  1  0
 13 14  1  0
M  CHG  2   9   1  12  -1
M  END
>  <i_m_ct_stereo_status>  (236) 
1

>  <s_m_source_file>  (236) 
/var/tmp/pbs.5076255.sched01/tmpc36l9o9d/84wsylf1cs.sdf

>  <i_m_source_file_index>  (236) 
23

>  <i_lp_mmshare_version>  (236) 
48012

>  <i_f3d_flags>  (236) 
0

>  <s_epik_input>  (236) 
W2NIXTFbY0hdYyhbQ0gzXSluYyhjMTIpW25IXWMzYyhbY0hdMilbY0hdbm4z

>  <s_epik_cmdline>  (236) 
J2VwaWtfcHl0aG9uJywgJy1waHQnLCAnMi4wJywgJy1waCcsICc3LjAnLCAnLXRuJywgJzgnLCAnLW1hJywgJzIwMCcsICctaW1hZScsICc8aW5maWxlLm1hZT4nLCAnLW9tYWUnLCAnPG91dGZpbGUubWFlPic=

>  <r_epik_Ionization_Penalty>  (236) 
9.75096e-05

>  <r_epik_Ionization_Penalty_Charging>  (236) 
9.67404e-05

>  <r_epik_Ionization_Penalty_Neutral>  (236) 
7.69192e-07

>  <r_epik_State_Penalty>  (236) 
0.718244

>  <r_epik_Charging_Adjusted_Penalty>  (236) 
0.718341

>  <i_epik_Tot_Q>  (236) 
0

>  <i_epik_Tot_abs_Q>  (236) 
2

>  <s_lp_Force_Field>  (236) 
OPLS3e

>  <r_lp_Energy>  (236) 
18.5822

>  <b_lp_Chiralities_Consistent>  (236) 
1

>  <s_lp_Variant>  (236) 
75:0-2

>  <s_i_glide_gridfile>  (236) 
pfpi4k_grid

>  <i_i_glide_lignum>  (236) 
23

>  <i_i_glide_rotatable_bonds>  (236) 
0

>  <r_i_docking_score>  (236) 
-6.40981

>  <r_i_glide_ligand_efficiency>  (236) 
-0.457843

>  <r_i_glide_ligand_efficiency_sa>  (236) 
-1.10347

>  <r_i_glide_ligand_efficiency_ln>  (236) 
-1.76139

>  <r_i_glide_gscore>  (236) 
-6.40981

>  <r_i_glide_lipo>  (236) 
-0.113589

>  <r_i_glide_hbond>  (236) 
-0.378304

>  <r_i_glide_metal>  (236) 
-0

>  <r_i_glide_rewards>  (236) 
-2.4532

>  <r_i_glide_evdw>  (236) 
-10.8077

>  <r_i_glide_ecoul>  (236) 
-18.0126

>  <r_i_glide_erotb>  (236) 
0

>  <r_i_glide_esite>  (236) 
-0.222436

>  <r_i_glide_emodel>  (236) 
-50.8859

>  <r_i_glide_energy>  (236) 
-28.8203

>  <r_i_glide_einternal>  (236) 
0

>  <r_i_glide_intrahb_reward>  (236) 
-0

>  <i_i_glide_confnum>  (236) 
2

>  <i_i_glide_posenum>  (236) 
38

>  <r_i_glide_eff_state_penalty>  (236) 
0

>  <ligand_id>  (236) 
75

>  <original_smiles>  (236) 
Cc1ccc2cc3cnnc-3[nH]c2n1

>  <smiles>  (236) 
[H]c1c(C([H])([H])[H])nc2[n-]c3n[n+]([H])c([H])c-3c([H])c2c1[H]

$$$$
75:1:1
     RDKit          3D

 22 24  0  0  1  0  0  0  0  0999 V2000
   -1.4551   -4.0083    7.5035 C   0  0  0  0  0  0  0  0  0  0  0  0
   -0.7244   -3.2974    6.3838 C   0  0  0  0  0  0  0  0  0  0  0  0
    0.3388   -3.8987    5.6876 C   0  0  0  0  0  0  0  0  0  0  0  0
    0.9351   -3.1718    4.6433 C   0  0  0  0  0  0  0  0  0  0  0  0
    0.4423   -1.8798    4.3403 C   0  0  0  0  0  0  0  0  0  0  0  0
    1.0187   -1.1174    3.2988 C   0  0  0  0  0  0  0  0  0  0  0  0
    0.4664    0.1460    3.0520 C   0  0  0  0  0  0  0  0  0  0  0  0
    0.8035    1.0948    2.0955 C   0  0  0  0  0  0  0  0  0  0  0  0
   -0.0937    2.1349    2.3018 N   0  0  0  0  0  0  0  0  0  0  0  0
   -0.9442    1.8640    3.3607 N   0  0  0  0  0  0  0  0  0  0  0  0
   -0.5978    0.6228    3.8005 C   0  0  0  0  0  0  0  0  0  0  0  0
   -1.1401   -0.1172    4.7899 N   0  0  0  0  0  0  0  0  0  0  0  0
   -0.6472   -1.3456    5.0838 C   0  0  0  0  0  0  0  0  0  0  0  0
   -1.2023   -2.0763    6.0822 N   0  0  0  0  0  0  0  0  0  0  0  0
   -1.0475   -4.9979    7.6857 H   0  0  0  0  0  0  0  0  0  0  0  0
   -2.5168   -4.0930    7.2629 H   0  0  0  0  0  0  0  0  0  0  0  0
   -1.3596   -3.4477    8.4297 H   0  0  0  0  0  0  0  0  0  0  0  0
    0.6805   -4.8915    5.9442 H   0  0  0  0  0  0  0  0  0  0  0  0
    1.7556   -3.5989    4.0788 H   0  0  0  0  0  0  0  0  0  0  0  0
    1.8402   -1.4708    2.6848 H   0  0  0  0  0  0  0  0  0  0  0  0
    1.5547    1.1387    1.3198 H   0  0  0  0  0  0  0  0  0  0  0  0
   -0.1010    3.0185    1.7787 H   0  0  0  0  0  0  0  0  0  0  0  0
  1  2  1  0
  1 15  1  0
  1 16  1  0
  1 17  1  0
  2 14  2  0
  2  3  1  0
  3  4  2  0
  3 18  1  0
  4  5  1  0
  4 19  1  0
  5 13  2  0
  5  6  1  0
  6  7  2  0
  6 20  1  0
  7 11  1  0
  7  8  1  0
  8  9  2  0
  8 21  1  0
  9 10  1  0
  9 22  1  0
 10 11  2  0
 11 12  1  0
 12 13  1  0
 13 14  1  0
M  CHG  2   9   1  12  -1
M  END
>  <i_m_ct_stereo_status>  (237) 
1

>  <s_m_source_file>  (237) 
/var/tmp/pbs.5076255.sched01/tmpc36l9o9d/84wsylf1cs.sdf

>  <i_m_source_file_index>  (237) 
23

>  <i_lp_mmshare_version>  (237) 
48012

>  <i_f3d_flags>  (237) 
0

>  <s_epik_input>  (237) 
W2NIXTFbY0hdYyhbQ0gzXSluYyhjMTIpW25IXWMzYyhbY0hdMilbY0hdbm4z

>  <s_epik_cmdline>  (237) 
J2VwaWtfcHl0aG9uJywgJy1waHQnLCAnMi4wJywgJy1waCcsICc3LjAnLCAnLXRuJywgJzgnLCAnLW1hJywgJzIwMCcsICctaW1hZScsICc8aW5maWxlLm1hZT4nLCAnLW9tYWUnLCAnPG91dGZpbGUubWFlPic=

>  <r_epik_Ionization_Penalty>  (237) 
9.75096e-05

>  <r_epik_Ionization_Penalty_Charging>  (237) 
9.67404e-05

>  <r_epik_Ionization_Penalty_Neutral>  (237) 
7.69192e-07

>  <r_epik_State_Penalty>  (237) 
0.718244

>  <r_epik_Charging_Adjusted_Penalty>  (237) 
0.718341

>  <i_epik_Tot_Q>  (237) 
0

>  <i_epik_Tot_abs_Q>  (237) 
2

>  <s_lp_Force_Field>  (237) 
OPLS3e

>  <r_lp_Energy>  (237) 
18.5822

>  <b_lp_Chiralities_Consistent>  (237) 
1

>  <s_lp_Variant>  (237) 
75:0-2

>  <s_i_glide_gridfile>  (237) 
pfpi4k_grid

>  <i_i_glide_lignum>  (237) 
23

>  <i_i_glide_rotatable_bonds>  (237) 
0

>  <r_i_docking_score>  (237) 
-5.20111

>  <r_i_glide_ligand_efficiency>  (237) 
-0.371508

>  <r_i_glide_ligand_efficiency_sa>  (237) 
-0.895386

>  <r_i_glide_ligand_efficiency_ln>  (237) 
-1.42925

>  <r_i_glide_gscore>  (237) 
-5.20111

>  <r_i_glide_lipo>  (237) 
-0.0345856

>  <r_i_glide_hbond>  (237) 
-0.2

>  <r_i_glide_metal>  (237) 
-0

>  <r_i_glide_rewards>  (237) 
-2.4532

>  <r_i_glide_evdw>  (237) 
-13.4387

>  <r_i_glide_ecoul>  (237) 
-11.2596

>  <r_i_glide_erotb>  (237) 
0

>  <r_i_glide_esite>  (237) 
-0.152439

>  <r_i_glide_emodel>  (237) 
-42.679

>  <r_i_glide_energy>  (237) 
-24.6984

>  <r_i_glide_einternal>  (237) 
0

>  <r_i_glide_intrahb_reward>  (237) 
-0

>  <i_i_glide_confnum>  (237) 
1

>  <i_i_glide_posenum>  (237) 
20

>  <r_i_glide_eff_state_penalty>  (237) 
0

>  <ligand_id>  (237) 
75

>  <original_smiles>  (237) 
Cc1ccc2cc3cnnc-3[nH]c2n1

>  <smiles>  (237) 
[H]c1c(C([H])([H])[H])nc2[n-]c3n[n+]([H])c([H])c-3c([H])c2c1[H]

$$$$
75:1:2
     RDKit          3D

 22 24  0  0  1  0  0  0  0  0999 V2000
   -2.3265   -8.1597    3.2860 C   0  0  0  0  0  0  0  0  0  0  0  0
   -0.8813   -8.0991    2.9014 C   0  0  0  0  0  0  0  0  0  0  0  0
    0.0158   -9.1127    3.2778 C   0  0  0  0  0  0  0  0  0  0  0  0
    1.3518   -8.9905    2.8686 C   0  0  0  0  0  0  0  0  0  0  0  0
    1.7177   -7.8727    2.0971 C   0  0  0  0  0  0  0  0  0  0  0  0
    3.0600   -7.6976    1.6742 C   0  0  0  0  0  0  0  0  0  0  0  0
    3.3320   -6.5490    0.9158 C   0  0  0  0  0  0  0  0  0  0  0  0
    4.5110   -6.0926    0.3374 C   0  0  0  0  0  0  0  0  0  0  0  0
    4.1418   -4.9204   -0.3001 N   0  0  0  0  0  0  0  0  0  0  0  0
    2.8195   -4.6079   -0.1013 N   0  0  0  0  0  0  0  0  0  0  0  0
    2.3250   -5.6499    0.5985 C   0  0  0  0  0  0  0  0  0  0  0  0
    1.0456   -5.8561    0.9638 N   0  0  0  0  0  0  0  0  0  0  0  0
    0.7286   -6.9103    1.7385 C   0  0  0  0  0  0  0  0  0  0  0  0
   -0.5447   -7.0192    2.1768 N   0  0  0  0  0  0  0  0  0  0  0  0
   -2.5604   -9.0462    3.8720 H   0  0  0  0  0  0  0  0  0  0  0  0
   -2.9165   -8.1644    2.3694 H   0  0  0  0  0  0  0  0  0  0  0  0
   -2.5768   -7.2706    3.8631 H   0  0  0  0  0  0  0  0  0  0  0  0
   -0.3169   -9.9448    3.8729 H   0  0  0  0  0  0  0  0  0  0  0  0
    2.0717   -9.7389    3.1578 H   0  0  0  0  0  0  0  0  0  0  0  0
    3.8454   -8.4025    1.9088 H   0  0  0  0  0  0  0  0  0  0  0  0
    5.5241   -6.4655    0.2990 H   0  0  0  0  0  0  0  0  0  0  0  0
    4.7435   -4.3254   -0.8545 H   0  0  0  0  0  0  0  0  0  0  0  0
  1  2  1  0
  1 15  1  0
  1 16  1  0
  1 17  1  0
  2 14  2  0
  2  3  1  0
  3  4  2  0
  3 18  1  0
  4  5  1  0
  4 19  1  0
  5 13  2  0
  5  6  1  0
  6  7  2  0
  6 20  1  0
  7 11  1  0
  7  8  1  0
  8  9  2  0
  8 21  1  0
  9 10  1  0
  9 22  1  0
 10 11  2  0
 11 12  1  0
 12 13  1  0
 13 14  1  0
M  CHG  2   9   1  12  -1
M  END
>  <i_m_ct_stereo_status>  (238) 
1

>  <s_m_source_file>  (238) 
/var/tmp/pbs.5076255.sched01/tmpc36l9o9d/84wsylf1cs.sdf

>  <i_m_source_file_index>  (238) 
23

>  <i_lp_mmshare_version>  (238) 
48012

>  <i_f3d_flags>  (238) 
0

>  <s_epik_input>  (238) 
W2NIXTFbY0hdYyhbQ0gzXSluYyhjMTIpW25IXWMzYyhbY0hdMilbY0hdbm4z

>  <s_epik_cmdline>  (238) 
J2VwaWtfcHl0aG9uJywgJy1waHQnLCAnMi4wJywgJy1waCcsICc3LjAnLCAnLXRuJywgJzgnLCAnLW1hJywgJzIwMCcsICctaW1hZScsICc8aW5maWxlLm1hZT4nLCAnLW9tYWUnLCAnPG91dGZpbGUubWFlPic=

>  <r_epik_Ionization_Penalty>  (238) 
9.75096e-05

>  <r_epik_Ionization_Penalty_Charging>  (238) 
9.67404e-05

>  <r_epik_Ionization_Penalty_Neutral>  (238) 
7.69192e-07

>  <r_epik_State_Penalty>  (238) 
0.718244

>  <r_epik_Charging_Adjusted_Penalty>  (238) 
0.718341

>  <i_epik_Tot_Q>  (238) 
0

>  <i_epik_Tot_abs_Q>  (238) 
2

>  <s_lp_Force_Field>  (238) 
OPLS3e

>  <r_lp_Energy>  (238) 
18.5822

>  <b_lp_Chiralities_Consistent>  (238) 
1

>  <s_lp_Variant>  (238) 
75:0-2

>  <s_i_glide_gridfile>  (238) 
pfpi4k_grid

>  <i_i_glide_lignum>  (238) 
23

>  <i_i_glide_rotatable_bonds>  (238) 
0

>  <r_i_docking_score>  (238) 
-5.01174

>  <r_i_glide_ligand_efficiency>  (238) 
-0.357981

>  <r_i_glide_ligand_efficiency_sa>  (238) 
-0.862786

>  <r_i_glide_ligand_efficiency_ln>  (238) 
-1.37721

>  <r_i_glide_gscore>  (238) 
-5.01174

>  <r_i_glide_lipo>  (238) 
-0.164514

>  <r_i_glide_hbond>  (238) 
-0.347807

>  <r_i_glide_metal>  (238) 
-0

>  <r_i_glide_rewards>  (238) 
-2.1532

>  <r_i_glide_evdw>  (238) 
-14.4984

>  <r_i_glide_ecoul>  (238) 
-9.79954

>  <r_i_glide_erotb>  (238) 
0

>  <r_i_glide_esite>  (238) 
-0.151364

>  <r_i_glide_emodel>  (238) 
-41.5468

>  <r_i_glide_energy>  (238) 
-24.2979

>  <r_i_glide_einternal>  (238) 
0

>  <r_i_glide_intrahb_reward>  (238) 
-0

>  <i_i_glide_confnum>  (238) 
1

>  <i_i_glide_posenum>  (238) 
25

>  <r_i_glide_eff_state_penalty>  (238) 
0

>  <ligand_id>  (238) 
75

>  <original_smiles>  (238) 
Cc1ccc2cc3cnnc-3[nH]c2n1

>  <smiles>  (238) 
[H]c1c(C([H])([H])[H])nc2[n-]c3n[n+]([H])c([H])c-3c([H])c2c1[H]

$$$$
76:0:0
     RDKit          3D

 86 93  0  0  1  0  0  0  0  0999 V2000
    4.7145   -0.6806   -0.2403 C   0  0  0  0  0  0  0  0  0  0  0  0
    4.0481   -1.9181    0.3989 C   0  0  2  0  0  0  0  0  0  0  0  0
    4.1020   -1.8538    1.9251 C   0  0  0  0  0  0  0  0  0  0  0  0
    3.3515   -3.0532    2.5341 C   0  0  2  0  0  0  0  0  0  0  0  0
    3.5323   -3.0059    3.9376 O   0  0  0  0  0  0  0  0  0  0  0  0
    2.3831   -3.0850    4.7880 C   0  0  2  0  0  0  0  0  0  0  0  0
    1.3024   -2.0214    4.4967 C   0  0  1  0  0  0  0  0  0  0  0  0
    0.5128   -2.2045    5.6791 O   0  0  0  0  0  0  0  0  0  0  0  0
    1.3603   -1.8046    6.7486 C   0  0  2  0  0  0  0  0  0  0  0  0
    1.0194   -2.4325    8.1194 C   0  0  0  0  0  0  0  0  0  0  0  0
    0.9549   -0.2808    6.7050 C   0  0  1  0  0  0  0  0  0  0  0  0
    1.5102    0.6562    7.8048 C   0  0  0  0  0  0  0  0  0  0  0  0
    1.2289    0.2550    5.4124 O   0  0  0  0  0  0  0  0  0  0  0  0
    2.0172   -0.6135    4.6122 C   0  0  1  0  0  0  0  0  0  0  0  0
    3.2624   -0.9310    5.4500 C   0  0  0  0  0  0  0  0  0  0  0  0
    2.7316   -2.2383    6.0807 C   0  0  2  0  0  0  0  0  0  0  0  0
    1.9255   -4.6420    4.8405 C   0  0  1  0  0  0  0  0  0  0  0  0
    1.5673   -5.0094    6.3102 C   0  0  0  0  0  0  0  0  0  0  0  0
    0.6264   -4.8966    4.0312 C   0  0  0  0  0  0  0  0  0  0  0  0
    0.2303   -6.3704    3.7314 C   0  0  0  0  0  0  0  0  0  0  0  0
    1.1186   -7.5105    4.3114 C   0  0  2  0  0  0  0  0  0  0  0  0
    2.6115   -7.1287    4.6158 C   0  0  1  0  0  0  0  0  0  0  0  0
    3.4853   -8.3591    4.2023 C   0  0  0  0  0  0  0  0  0  0  0  0
    2.4199   -9.4499    4.1959 C   0  0  2  0  0  0  0  0  0  0  0  0
    2.5481  -10.8637    3.6331 C   0  0  0  0  0  0  0  0  0  0  0  0
    1.0485  -11.2554    3.5104 C   0  0  1  0  0  0  0  0  0  0  0  0
    0.6645  -12.2102    4.4868 O   0  0  0  0  0  0  0  0  0  0  0  0
    0.2129   -9.9621    3.7088 C   0  0  0  0  0  0  0  0  0  0  0  0
    1.2243   -8.8280    3.4966 C   0  0  1  0  0  0  0  0  0  0  0  0
    1.4252   -8.6109    1.9712 C   0  0  0  0  0  0  0  0  0  0  0  0
    3.0115   -5.6579    4.2406 C   0  0  1  0  0  0  0  0  0  0  0  0
    3.2488   -5.5749    2.6830 C   0  0  0  0  0  0  0  0  0  0  0  0
    3.9948   -4.3624    2.0442 C   0  0  1  0  0  0  0  0  0  0  0  0
    4.0438   -4.4317    0.5586 N   0  0  2  0  0  0  0  0  0  0  0  0
    4.5870   -5.6587   -0.0024 C   0  0  0  0  0  0  0  0  0  0  0  0
    4.6718   -3.2524   -0.0521 C   0  0  0  0  0  0  0  0  0  0  0  0
    5.7674   -0.5987    0.0280 H   0  0  0  0  0  0  0  0  0  0  0  0
    4.2131    0.2285    0.0989 H   0  0  0  0  0  0  0  0  0  0  0  0
    4.6342   -0.7028   -1.3261 H   0  0  0  0  0  0  0  0  0  0  0  0
    3.0021   -1.9035    0.0829 H   0  0  0  0  0  0  0  0  0  0  0  0
    5.1413   -1.8645    2.2686 H   0  0  0  0  0  0  0  0  0  0  0  0
    3.6768   -0.9125    2.2727 H   0  0  0  0  0  0  0  0  0  0  0  0
    2.3114   -3.0123    2.2308 H   0  0  0  0  0  0  0  0  0  0  0  0
    0.7168   -2.1420    3.5845 H   0  0  0  0  0  0  0  0  0  0  0  0
    1.2434   -1.7572    8.9453 H   0  0  0  0  0  0  0  0  0  0  0  0
    1.6027   -3.3214    8.3269 H   0  0  0  0  0  0  0  0  0  0  0  0
   -0.0399   -2.6873    8.1783 H   0  0  0  0  0  0  0  0  0  0  0  0
   -0.1342   -0.2212    6.8113 H   0  0  0  0  0  0  0  0  0  0  0  0
    1.0796    0.4328    8.7821 H   0  0  0  0  0  0  0  0  0  0  0  0
    1.2370    1.6871    7.5826 H   0  0  0  0  0  0  0  0  0  0  0  0
    2.5948    0.6214    7.9093 H   0  0  0  0  0  0  0  0  0  0  0  0
    2.2541   -0.1519    3.6493 H   0  0  0  0  0  0  0  0  0  0  0  0
    4.1639   -1.0507    4.8427 H   0  0  0  0  0  0  0  0  0  0  0  0
    3.5307   -0.1606    6.1628 H   0  0  0  0  0  0  0  0  0  0  0  0
    3.4583   -2.7027    6.7520 H   0  0  0  0  0  0  0  0  0  0  0  0
    1.1871   -6.0139    6.4565 H   0  0  0  0  0  0  0  0  0  0  0  0
    0.7216   -4.4298    6.6535 H   0  0  0  0  0  0  0  0  0  0  0  0
    2.4114   -4.8934    6.9917 H   0  0  0  0  0  0  0  0  0  0  0  0
   -0.2011   -4.3984    4.5244 H   0  0  0  0  0  0  0  0  0  0  0  0
    0.7139   -4.3934    3.0667 H   0  0  0  0  0  0  0  0  0  0  0  0
   -0.7797   -6.5348    4.1130 H   0  0  0  0  0  0  0  0  0  0  0  0
    0.1194   -6.4753    2.6620 H   0  0  0  0  0  0  0  0  0  0  0  0
    0.6743   -7.7803    5.2635 H   0  0  0  0  0  0  0  0  0  0  0  0
    2.7181   -7.1901    5.7025 H   0  0  0  0  0  0  0  0  0  0  0  0
    3.9488   -8.3020    3.2185 H   0  0  0  0  0  0  0  0  0  0  0  0
    4.2779   -8.5683    4.9260 H   0  0  0  0  0  0  0  0  0  0  0  0
    2.1576   -9.6057    5.2539 H   0  0  0  0  0  0  0  0  0  0  0  0
    3.0300  -10.8540    2.6513 H   0  0  0  0  0  0  0  0  0  0  0  0
    3.1189  -11.5282    4.2721 H   0  0  0  0  0  0  0  0  0  0  0  0
    0.8517  -11.6886    2.5332 H   0  0  0  0  0  0  0  0  0  0  0  0
    0.9009  -11.9157    5.3395 H   0  0  0  0  0  0  0  0  0  0  0  0
   -0.6293   -9.9158    3.0230 H   0  0  0  0  0  0  0  0  0  0  0  0
   -0.1850   -9.9202    4.7219 H   0  0  0  0  0  0  0  0  0  0  0  0
    1.6321   -9.5397    1.4488 H   0  0  0  0  0  0  0  0  0  0  0  0
    2.2414   -7.9400    1.7326 H   0  0  0  0  0  0  0  0  0  0  0  0
    0.5196   -8.2230    1.5022 H   0  0  0  0  0  0  0  0  0  0  0  0
    3.9623   -5.4599    4.7317 H   0  0  0  0  0  0  0  0  0  0  0  0
    3.8779   -6.4130    2.4255 H   0  0  0  0  0  0  0  0  0  0  0  0
    2.3224   -5.7317    2.1403 H   0  0  0  0  0  0  0  0  0  0  0  0
    5.0265   -4.3853    2.4192 H   0  0  0  0  0  0  0  0  0  0  0  0
    5.6108   -5.8416    0.3641 H   0  0  0  0  0  0  0  0  0  0  0  0
    4.6478   -5.6138   -1.0978 H   0  0  0  0  0  0  0  0  0  0  0  0
    3.9891   -6.5467    0.2261 H   0  0  0  0  0  0  0  0  0  0  0  0
    4.6130   -3.3041   -1.1447 H   0  0  0  0  0  0  0  0  0  0  0  0
    5.7521   -3.2433    0.1947 H   0  0  0  0  0  0  0  0  0  0  0  0
    3.0671   -4.3940    0.2400 H   0  0  0  0  0  0  0  0  0  0  0  0
  1  2  1  0
  1 37  1  0
  1 38  1  0
  1 39  1  0
  2 36  1  0
  2  3  1  0
  2 40  1  1
  3  4  1  0
  3 41  1  0
  3 42  1  0
  4 33  1  0
  4  5  1  0
  4 43  1  1
  6  5  1  6
  6 16  1  0
  6  7  1  0
  6 17  1  0
  7 14  1  0
  7  8  1  0
  7 44  1  6
  8  9  1  0
  9 16  1  0
  9 10  1  1
  9 11  1  0
 10 45  1  0
 10 46  1  0
 10 47  1  0
 11 12  1  0
 11 13  1  0
 11 48  1  1
 12 49  1  0
 12 50  1  0
 12 51  1  0
 13 14  1  0
 14 15  1  0
 14 52  1  6
 15 16  1  0
 15 53  1  0
 15 54  1  0
 16 55  1  1
 17 31  1  0
 17 18  1  1
 17 19  1  0
 18 56  1  0
 18 57  1  0
 18 58  1  0
 19 20  1  0
 19 59  1  0
 19 60  1  0
 20 21  1  0
 20 61  1  0
 20 62  1  0
 21 29  1  0
 21 22  1  0
 21 63  1  1
 22 23  1  0
 22 31  1  0
 22 64  1  1
 23 24  1  0
 23 65  1  0
 23 66  1  0
 24 29  1  0
 24 25  1  0
 24 67  1  1
 25 26  1  0
 25 68  1  0
 25 69  1  0
 26 27  1  0
 26 28  1  0
 26 70  1  6
 27 71  1  0
 28 29  1  0
 28 72  1  0
 28 73  1  0
 29 30  1  6
 30 74  1  0
 30 75  1  0
 30 76  1  0
 31 32  1  0
 31 77  1  1
 32 33  1  0
 32 78  1  0
 32 79  1  0
 33 34  1  0
 33 80  1  1
 34 35  1  0
 34 36  1  0
 34 86  1  6
 35 81  1  0
 35 82  1  0
 35 83  1  0
 36 84  1  0
 36 85  1  0
M  CHG  1  34   1
M  END
>  <i_m_ct_stereo_status>  (239) 
1

>  <s_m_source_file>  (239) 
/var/tmp/pbs.5076255.sched01/tmpc36l9o9d/84wsylf1cs.sdf

>  <i_m_source_file_index>  (239) 
24

>  <i_lp_mmshare_version>  (239) 
48012

>  <i_f3d_flags>  (239) 
0

>  <s_epik_input>  (239) 
W0NIM11OMVtDSDJdW0NASF0oW0NIM10pW0NIMl1bQ0BIXShPMilbQ0BIXTFbQ0gyXVtDQEhdKFtDQEhdM1tDQEBIXShbQ0gyXVtDSDJdNClbQ0BAXTUoW0NIM10pW0NASF0oW0NIMl0zKVtDSDJdW0NAQEhdKFtPSF0pW0NIMl01KVtDQEBdNChbQ0gzXSlbQ0BdMjZbQ0BASF03W0NASF04T1tDQEhdKFtDSDNdKVtDQF0oTzcpKFtDSDNdKVtDQEBIXTZbQ0gyXTg=

>  <s_epik_cmdline>  (239) 
J2VwaWtfcHl0aG9uJywgJy1waHQnLCAnMi4wJywgJy1waCcsICc3LjAnLCAnLXRuJywgJzgnLCAnLW1hJywgJzIwMCcsICctaW1hZScsICc8aW5maWxlLm1hZT4nLCAnLW9tYWUnLCAnPG91dGZpbGUubWFlPic=

>  <r_epik_Ionization_Penalty>  (239) 
0.00224937

>  <r_epik_Ionization_Penalty_Charging>  (239) 
0.00224725

>  <r_epik_Ionization_Penalty_Neutral>  (239) 
2.11923e-06

>  <r_epik_State_Penalty>  (239) 
0.00154725

>  <r_epik_Charging_Adjusted_Penalty>  (239) 
0.0037945

>  <i_epik_Tot_Q>  (239) 
1

>  <i_epik_Tot_abs_Q>  (239) 
1

>  <s_lp_Force_Field>  (239) 
OPLS3e

>  <r_lp_Energy>  (239) 
149.841

>  <b_lp_Chiralities_Consistent>  (239) 
1

>  <s_lp_Variant>  (239) 
76:0-1

>  <s_i_glide_gridfile>  (239) 
pfpi4k_grid

>  <i_i_glide_lignum>  (239) 
24

>  <i_i_glide_rotatable_bonds>  (239) 
1

>  <r_i_docking_score>  (239) 
-2.05567

>  <r_i_glide_ligand_efficiency>  (239) 
-0.0571019

>  <r_i_glide_ligand_efficiency_sa>  (239) 
-0.188546

>  <r_i_glide_ligand_efficiency_ln>  (239) 
-0.448491

>  <r_i_glide_gscore>  (239) 
-2.05567

>  <r_i_glide_lipo>  (239) 
-0.270789

>  <r_i_glide_hbond>  (239) 
-0.0321713

>  <r_i_glide_metal>  (239) 
-0

>  <r_i_glide_rewards>  (239) 
0

>  <r_i_glide_evdw>  (239) 
-21.4696

>  <r_i_glide_ecoul>  (239) 
-4.52818

>  <r_i_glide_erotb>  (239) 
0

>  <r_i_glide_esite>  (239) 
0

>  <r_i_glide_emodel>  (239) 
-28.9562

>  <r_i_glide_energy>  (239) 
-25.9978

>  <r_i_glide_einternal>  (239) 
0.0350853

>  <r_i_glide_intrahb_reward>  (239) 
-0

>  <i_i_glide_confnum>  (239) 
2

>  <i_i_glide_posenum>  (239) 
5

>  <r_i_glide_eff_state_penalty>  (239) 
0

>  <ligand_id>  (239) 
76

>  <original_smiles>  (239) 
CC1CC2OC3(C4OC5(C)C(C)OC4CC53)C3(C)CCC4C(CC5CC(O)CC54C)C3CC2N(C)C1

>  <smiles>  (239) 
[H]OC1([H])C([H])([H])C2([H])C([H])([H])C3([H])C([H])(C([H])([H])C([H])([H])C4(C([H])([H])[H])C3([H])C([H])([H])C3([H])C([H])(OC45C4([H])OC6(C([H])([H])[H])C([H])(C([H])([H])[H])OC4([H])C([H])([H])C65[H])C([H])([H])C([H])(C([H])([H])[H])C([H])([H])[N+]3([H])C([H])([H])[H])C2(C([H])([H])[H])C1([H])[H]

$$$$
76:0:1
     RDKit          3D

 86 93  0  0  1  0  0  0  0  0999 V2000
    6.8124   -2.0729    9.5010 C   0  0  0  0  0  0  0  0  0  0  0  0
    5.9323   -2.7740    8.4488 C   0  0  2  0  0  0  0  0  0  0  0  0
    4.7685   -1.8782    8.0111 C   0  0  0  0  0  0  0  0  0  0  0  0
    3.9599   -2.5726    6.9001 C   0  0  2  0  0  0  0  0  0  0  0  0
    2.8358   -1.7584    6.6185 O   0  0  0  0  0  0  0  0  0  0  0  0
    2.5678   -1.3884    5.2637 C   0  0  2  0  0  0  0  0  0  0  0  0
    3.7456   -0.6845    4.5535 C   0  0  1  0  0  0  0  0  0  0  0  0
    3.0278   -0.2140    3.4057 O   0  0  0  0  0  0  0  0  0  0  0  0
    2.0913    0.7278    3.9092 C   0  0  2  0  0  0  0  0  0  0  0  0
    0.8420    0.9441    3.0260 C   0  0  0  0  0  0  0  0  0  0  0  0
    3.0536    1.9698    3.8263 C   0  0  1  0  0  0  0  0  0  0  0  0
    2.4891    3.3699    4.1577 C   0  0  0  0  0  0  0  0  0  0  0  0
    4.2217    1.7249    4.6171 O   0  0  0  0  0  0  0  0  0  0  0  0
    4.1093    0.5720    5.4391 C   0  0  1  0  0  0  0  0  0  0  0  0
    2.8345    0.7938    6.2634 C   0  0  0  0  0  0  0  0  0  0  0  0
    1.8713    0.0343    5.3239 C   0  0  2  0  0  0  0  0  0  0  0  0
    1.9042   -2.6770    4.5349 C   0  0  1  0  0  0  0  0  0  0  0  0
    0.7177   -2.1855    3.6600 C   0  0  0  0  0  0  0  0  0  0  0  0
    2.8839   -3.3664    3.5435 C   0  0  0  0  0  0  0  0  0  0  0  0
    2.4992   -4.7751    3.0024 C   0  0  0  0  0  0  0  0  0  0  0  0
    1.1375   -5.3883    3.4324 C   0  0  2  0  0  0  0  0  0  0  0  0
    0.5423   -4.8650    4.7826 C   0  0  1  0  0  0  0  0  0  0  0  0
   -0.1106   -6.0940    5.4989 C   0  0  0  0  0  0  0  0  0  0  0  0
   -0.2758   -7.0332    4.3055 C   0  0  2  0  0  0  0  0  0  0  0  0
   -0.6158   -8.5175    4.3502 C   0  0  0  0  0  0  0  0  0  0  0  0
   -0.1664   -8.9693    2.9342 C   0  0  1  0  0  0  0  0  0  0  0  0
   -1.2792   -9.2292    2.0970 O   0  0  0  0  0  0  0  0  0  0  0  0
    0.6611   -7.7994    2.3233 C   0  0  0  0  0  0  0  0  0  0  0  0
    1.0341   -6.9360    3.5382 C   0  0  1  0  0  0  0  0  0  0  0  0
    2.2468   -7.5829    4.2611 C   0  0  0  0  0  0  0  0  0  0  0  0
    1.4378   -3.8238    5.5467 C   0  0  1  0  0  0  0  0  0  0  0  0
    2.5882   -4.6013    6.2927 C   0  0  0  0  0  0  0  0  0  0  0  0
    3.4170   -3.9115    7.4120 C   0  0  1  0  0  0  0  0  0  0  0  0
    4.5150   -4.7877    7.9250 N   0  0  2  0  0  0  0  0  0  0  0  0
    4.1049   -6.1066    8.3904 C   0  0  0  0  0  0  0  0  0  0  0  0
    5.3537   -4.1155    8.9340 C   0  0  0  0  0  0  0  0  0  0  0  0
    6.2519   -1.8360   10.4096 H   0  0  0  0  0  0  0  0  0  0  0  0
    7.2134   -1.1369    9.1054 H   0  0  0  0  0  0  0  0  0  0  0  0
    7.6644   -2.6952    9.7855 H   0  0  0  0  0  0  0  0  0  0  0  0
    6.5688   -2.9634    7.5807 H   0  0  0  0  0  0  0  0  0  0  0  0
    4.1106   -1.6750    8.8619 H   0  0  0  0  0  0  0  0  0  0  0  0
    5.1445   -0.9166    7.6788 H   0  0  0  0  0  0  0  0  0  0  0  0
    4.6017   -2.7319    6.0379 H   0  0  0  0  0  0  0  0  0  0  0  0
    4.6039   -1.2993    4.2843 H   0  0  0  0  0  0  0  0  0  0  0  0
    0.4748    1.9661    3.0850 H   0  0  0  0  0  0  0  0  0  0  0  0
    0.0014    0.3279    3.3289 H   0  0  0  0  0  0  0  0  0  0  0  0
    1.0692    0.7423    1.9782 H   0  0  0  0  0  0  0  0  0  0  0  0
    3.4059    2.0430    2.7966 H   0  0  0  0  0  0  0  0  0  0  0  0
    1.7874    3.7072    3.3956 H   0  0  0  0  0  0  0  0  0  0  0  0
    3.3032    4.0960    4.1590 H   0  0  0  0  0  0  0  0  0  0  0  0
    1.9919    3.4326    5.1224 H   0  0  0  0  0  0  0  0  0  0  0  0
    5.0030    0.4399    6.0524 H   0  0  0  0  0  0  0  0  0  0  0  0
    2.9078    0.3897    7.2735 H   0  0  0  0  0  0  0  0  0  0  0  0
    2.5856    1.8392    6.4153 H   0  0  0  0  0  0  0  0  0  0  0  0
    0.8451    0.0313    5.6896 H   0  0  0  0  0  0  0  0  0  0  0  0
    0.2419   -2.9587    3.0759 H   0  0  0  0  0  0  0  0  0  0  0  0
    1.0672   -1.5318    2.8688 H   0  0  0  0  0  0  0  0  0  0  0  0
   -0.0674   -1.7010    4.2375 H   0  0  0  0  0  0  0  0  0  0  0  0
    3.0717   -2.7111    2.6911 H   0  0  0  0  0  0  0  0  0  0  0  0
    3.8559   -3.4711    4.0231 H   0  0  0  0  0  0  0  0  0  0  0  0
    2.4978   -4.7240    1.9111 H   0  0  0  0  0  0  0  0  0  0  0  0
    3.3181   -5.4463    3.2245 H   0  0  0  0  0  0  0  0  0  0  0  0
    0.4372   -5.1044    2.6554 H   0  0  0  0  0  0  0  0  0  0  0  0
   -0.3546   -4.3070    4.5192 H   0  0  0  0  0  0  0  0  0  0  0  0
    0.5005   -6.5726    6.2592 H   0  0  0  0  0  0  0  0  0  0  0  0
   -1.0681   -5.8464    5.9583 H   0  0  0  0  0  0  0  0  0  0  0  0
   -1.0717   -6.5967    3.6945 H   0  0  0  0  0  0  0  0  0  0  0  0
   -0.0439   -9.0384    5.1222 H   0  0  0  0  0  0  0  0  0  0  0  0
   -1.6719   -8.7000    4.5466 H   0  0  0  0  0  0  0  0  0  0  0  0
    0.4368   -9.8755    3.0074 H   0  0  0  0  0  0  0  0  0  0  0  0
   -0.9502   -9.4902    1.2424 H   0  0  0  0  0  0  0  0  0  0  0  0
    1.5365   -8.1580    1.7797 H   0  0  0  0  0  0  0  0  0  0  0  0
    0.0525   -7.2308    1.6212 H   0  0  0  0  0  0  0  0  0  0  0  0
    2.1000   -8.6436    4.4503 H   0  0  0  0  0  0  0  0  0  0  0  0
    2.4681   -7.1281    5.2220 H   0  0  0  0  0  0  0  0  0  0  0  0
    3.1493   -7.5286    3.6526 H   0  0  0  0  0  0  0  0  0  0  0  0
    0.8042   -3.3678    6.3052 H   0  0  0  0  0  0  0  0  0  0  0  0
    2.1142   -5.4265    6.8044 H   0  0  0  0  0  0  0  0  0  0  0  0
    3.2710   -5.0513    5.5815 H   0  0  0  0  0  0  0  0  0  0  0  0
    2.7349   -3.7011    8.2431 H   0  0  0  0  0  0  0  0  0  0  0  0
    3.3506   -6.0315    9.1859 H   0  0  0  0  0  0  0  0  0  0  0  0
    4.9502   -6.6663    8.8063 H   0  0  0  0  0  0  0  0  0  0  0  0
    3.6966   -6.7373    7.5953 H   0  0  0  0  0  0  0  0  0  0  0  0
    6.1928   -4.7605    9.2221 H   0  0  0  0  0  0  0  0  0  0  0  0
    4.7691   -3.9449    9.8503 H   0  0  0  0  0  0  0  0  0  0  0  0
    5.1329   -4.9511    7.1286 H   0  0  0  0  0  0  0  0  0  0  0  0
  1  2  1  0
  1 37  1  0
  1 38  1  0
  1 39  1  0
  2 36  1  0
  2  3  1  0
  2 40  1  6
  3  4  1  0
  3 41  1  0
  3 42  1  0
  4 33  1  0
  4  5  1  0
  4 43  1  6
  6  5  1  1
  6 16  1  0
  6  7  1  0
  6 17  1  0
  7 14  1  0
  7  8  1  0
  7 44  1  6
  8  9  1  0
  9 16  1  0
  9 10  1  6
  9 11  1  0
 10 45  1  0
 10 46  1  0
 10 47  1  0
 11 12  1  0
 11 13  1  0
 11 48  1  6
 12 49  1  0
 12 50  1  0
 12 51  1  0
 13 14  1  0
 14 15  1  0
 14 52  1  1
 15 16  1  0
 15 53  1  0
 15 54  1  0
 16 55  1  1
 17 31  1  0
 17 18  1  6
 17 19  1  0
 18 56  1  0
 18 57  1  0
 18 58  1  0
 19 20  1  0
 19 59  1  0
 19 60  1  0
 20 21  1  0
 20 61  1  0
 20 62  1  0
 21 29  1  0
 21 22  1  0
 21 63  1  6
 22 23  1  0
 22 31  1  0
 22 64  1  6
 23 24  1  0
 23 65  1  0
 23 66  1  0
 24 29  1  0
 24 25  1  0
 24 67  1  6
 25 26  1  0
 25 68  1  0
 25 69  1  0
 26 27  1  0
 26 28  1  0
 26 70  1  1
 27 71  1  0
 28 29  1  0
 28 72  1  0
 28 73  1  0
 29 30  1  1
 30 74  1  0
 30 75  1  0
 30 76  1  0
 31 32  1  0
 31 77  1  1
 32 33  1  0
 32 78  1  0
 32 79  1  0
 33 34  1  0
 33 80  1  1
 34 35  1  0
 34 36  1  0
 34 86  1  6
 35 81  1  0
 35 82  1  0
 35 83  1  0
 36 84  1  0
 36 85  1  0
M  CHG  1  34   1
M  END
>  <i_m_ct_stereo_status>  (240) 
1

>  <s_m_source_file>  (240) 
/var/tmp/pbs.5076255.sched01/tmpc36l9o9d/84wsylf1cs.sdf

>  <i_m_source_file_index>  (240) 
24

>  <i_lp_mmshare_version>  (240) 
48012

>  <i_f3d_flags>  (240) 
0

>  <s_epik_input>  (240) 
W0NIM11OMVtDSDJdW0NASF0oW0NIM10pW0NIMl1bQ0BIXShPMilbQ0BIXTFbQ0gyXVtDQEhdKFtDQEhdM1tDQEBIXShbQ0gyXVtDSDJdNClbQ0BAXTUoW0NIM10pW0NASF0oW0NIMl0zKVtDSDJdW0NAQEhdKFtPSF0pW0NIMl01KVtDQEBdNChbQ0gzXSlbQ0BdMjZbQ0BASF03W0NASF04T1tDQEhdKFtDSDNdKVtDQF0oTzcpKFtDSDNdKVtDQEBIXTZbQ0gyXTg=

>  <s_epik_cmdline>  (240) 
J2VwaWtfcHl0aG9uJywgJy1waHQnLCAnMi4wJywgJy1waCcsICc3LjAnLCAnLXRuJywgJzgnLCAnLW1hJywgJzIwMCcsICctaW1hZScsICc8aW5maWxlLm1hZT4nLCAnLW9tYWUnLCAnPG91dGZpbGUubWFlPic=

>  <r_epik_Ionization_Penalty>  (240) 
0.00224937

>  <r_epik_Ionization_Penalty_Charging>  (240) 
0.00224725

>  <r_epik_Ionization_Penalty_Neutral>  (240) 
2.11923e-06

>  <r_epik_State_Penalty>  (240) 
0.00154725

>  <r_epik_Charging_Adjusted_Penalty>  (240) 
0.0037945

>  <i_epik_Tot_Q>  (240) 
1

>  <i_epik_Tot_abs_Q>  (240) 
1

>  <s_lp_Force_Field>  (240) 
OPLS3e

>  <r_lp_Energy>  (240) 
149.841

>  <b_lp_Chiralities_Consistent>  (240) 
1

>  <s_lp_Variant>  (240) 
76:0-1

>  <s_i_glide_gridfile>  (240) 
pfpi4k_grid

>  <i_i_glide_lignum>  (240) 
24

>  <i_i_glide_rotatable_bonds>  (240) 
1

>  <r_i_docking_score>  (240) 
-1.94869

>  <r_i_glide_ligand_efficiency>  (240) 
-0.0541304

>  <r_i_glide_ligand_efficiency_sa>  (240) 
-0.178734

>  <r_i_glide_ligand_efficiency_ln>  (240) 
-0.425152

>  <r_i_glide_gscore>  (240) 
-1.94869

>  <r_i_glide_lipo>  (240) 
-0.0332919

>  <r_i_glide_hbond>  (240) 
-0.32

>  <r_i_glide_metal>  (240) 
-0

>  <r_i_glide_rewards>  (240) 
0

>  <r_i_glide_evdw>  (240) 
-17.7358

>  <r_i_glide_ecoul>  (240) 
-4.72406

>  <r_i_glide_erotb>  (240) 
0

>  <r_i_glide_esite>  (240) 
0

>  <r_i_glide_emodel>  (240) 
-25.143

>  <r_i_glide_energy>  (240) 
-22.4599

>  <r_i_glide_einternal>  (240) 
0.319725

>  <r_i_glide_intrahb_reward>  (240) 
-0

>  <i_i_glide_confnum>  (240) 
1

>  <i_i_glide_posenum>  (240) 
2

>  <r_i_glide_eff_state_penalty>  (240) 
0

>  <ligand_id>  (240) 
76

>  <original_smiles>  (240) 
CC1CC2OC3(C4OC5(C)C(C)OC4CC53)C3(C)CCC4C(CC5CC(O)CC54C)C3CC2N(C)C1

>  <smiles>  (240) 
[H]OC1([H])C([H])([H])C2([H])C([H])([H])C3([H])C([H])(C([H])([H])C([H])([H])C4(C([H])([H])[H])C3([H])C([H])([H])C3([H])C([H])(OC45C4([H])OC6(C([H])([H])[H])C([H])(C([H])([H])[H])OC4([H])C([H])([H])C65[H])C([H])([H])C([H])(C([H])([H])[H])C([H])([H])[N+]3([H])C([H])([H])[H])C2(C([H])([H])[H])C1([H])[H]

$$$$
76:0:2
     RDKit          3D

 86 93  0  0  1  0  0  0  0  0999 V2000
    8.9415   -3.5293   -0.4632 C   0  0  0  0  0  0  0  0  0  0  0  0
    7.7912   -4.3880    0.0942 C   0  0  2  0  0  0  0  0  0  0  0  0
    7.1188   -3.7397    1.2841 C   0  0  0  0  0  0  0  0  0  0  0  0
    5.9146   -4.5728    1.7521 C   0  0  2  0  0  0  0  0  0  0  0  0
    5.4086   -3.9693    2.9269 O   0  0  0  0  0  0  0  0  0  0  0  0
    4.0136   -3.6711    3.0128 C   0  0  2  0  0  0  0  0  0  0  0  0
    3.4858   -2.7841    1.8622 C   0  0  1  0  0  0  0  0  0  0  0  0
    2.2107   -2.4700    2.4389 O   0  0  0  0  0  0  0  0  0  0  0  0
    2.5070   -1.6885    3.5868 C   0  0  2  0  0  0  0  0  0  0  0  0
    1.4207   -1.7129    4.6839 C   0  0  0  0  0  0  0  0  0  0  0  0
    2.5324   -0.3000    2.8388 C   0  0  1  0  0  0  0  0  0  0  0  0
    2.6964    0.9827    3.6854 C   0  0  0  0  0  0  0  0  0  0  0  0
    3.5202   -0.3230    1.8015 O   0  0  0  0  0  0  0  0  0  0  0  0
    4.3616   -1.4669    1.8691 C   0  0  1  0  0  0  0  0  0  0  0  0
    4.9430   -1.4559    3.2887 C   0  0  0  0  0  0  0  0  0  0  0  0
    3.8932   -2.3878    3.9332 C   0  0  2  0  0  0  0  0  0  0  0  0
    3.2466   -5.0686    3.3215 C   0  0  1  0  0  0  0  0  0  0  0  0
    2.1575   -4.8123    4.4024 C   0  0  0  0  0  0  0  0  0  0  0  0
    2.4769   -5.5963    2.0772 C   0  0  0  0  0  0  0  0  0  0  0  0
    1.9420   -7.0575    2.1226 C   0  0  0  0  0  0  0  0  0  0  0  0
    2.1651   -7.8862    3.4190 C   0  0  2  0  0  0  0  0  0  0  0  0
    3.3679   -7.4540    4.3248 C   0  0  1  0  0  0  0  0  0  0  0  0
    4.0296   -8.7662    4.8651 C   0  0  0  0  0  0  0  0  0  0  0  0
    2.8728   -9.7383    4.6577 C   0  0  2  0  0  0  0  0  0  0  0  0
    2.9297  -11.2570    4.7440 C   0  0  0  0  0  0  0  0  0  0  0  0
    1.6267  -11.6206    3.9813 C   0  0  1  0  0  0  0  0  0  0  0  0
    0.6206  -12.1065    4.8366 O   0  0  0  0  0  0  0  0  0  0  0  0
    1.1118  -10.3447    3.2722 C   0  0  0  0  0  0  0  0  0  0  0  0
    2.3318   -9.4207    3.2707 C   0  0  1  0  0  0  0  0  0  0  0  0
    3.2770   -9.8382    2.1060 C   0  0  0  0  0  0  0  0  0  0  0  0
    4.2205   -6.2619    3.7592 C   0  0  1  0  0  0  0  0  0  0  0  0
    5.1911   -6.8145    2.6459 C   0  0  0  0  0  0  0  0  0  0  0  0
    6.3963   -5.9710    2.1594 C   0  0  1  0  0  0  0  0  0  0  0  0
    7.1404   -6.6237    1.0377 N   0  0  2  0  0  0  0  0  0  0  0  0
    7.6031   -7.9963    1.2951 C   0  0  0  0  0  0  0  0  0  0  0  0
    8.2511   -5.8005    0.5135 C   0  0  0  0  0  0  0  0  0  0  0  0
    9.7378   -3.3609    0.2676 H   0  0  0  0  0  0  0  0  0  0  0  0
    8.5810   -2.5469   -0.7721 H   0  0  0  0  0  0  0  0  0  0  0  0
    9.3817   -3.9931   -1.3490 H   0  0  0  0  0  0  0  0  0  0  0  0
    7.0028   -4.4303   -0.6473 H   0  0  0  0  0  0  0  0  0  0  0  0
    7.8533   -3.7328    2.0809 H   0  0  0  0  0  0  0  0  0  0  0  0
    6.8346   -2.7175    1.0457 H   0  0  0  0  0  0  0  0  0  0  0  0
    5.1823   -4.6383    0.9506 H   0  0  0  0  0  0  0  0  0  0  0  0
    3.3974   -3.2480    0.8807 H   0  0  0  0  0  0  0  0  0  0  0  0
    1.3703   -0.7725    5.2271 H   0  0  0  0  0  0  0  0  0  0  0  0
    1.6114   -2.4619    5.4468 H   0  0  0  0  0  0  0  0  0  0  0  0
    0.4384   -1.8965    4.2488 H   0  0  0  0  0  0  0  0  0  0  0  0
    1.5798   -0.1819    2.3179 H   0  0  0  0  0  0  0  0  0  0  0  0
    1.8129    1.1753    4.2930 H   0  0  0  0  0  0  0  0  0  0  0  0
    2.8065    1.8468    3.0273 H   0  0  0  0  0  0  0  0  0  0  0  0
    3.5577    0.9674    4.3492 H   0  0  0  0  0  0  0  0  0  0  0  0
    5.1276   -1.4306    1.0944 H   0  0  0  0  0  0  0  0  0  0  0  0
    5.9638   -1.8273    3.3046 H   0  0  0  0  0  0  0  0  0  0  0  0
    5.0101   -0.4696    3.7383 H   0  0  0  0  0  0  0  0  0  0  0  0
    4.0821   -2.5621    4.9928 H   0  0  0  0  0  0  0  0  0  0  0  0
    1.5360   -5.6660    4.6454 H   0  0  0  0  0  0  0  0  0  0  0  0
    1.4073   -4.1245    4.0340 H   0  0  0  0  0  0  0  0  0  0  0  0
    2.5777   -4.4540    5.3409 H   0  0  0  0  0  0  0  0  0  0  0  0
    1.6480   -4.9284    1.8492 H   0  0  0  0  0  0  0  0  0  0  0  0
    3.1250   -5.5276    1.2054 H   0  0  0  0  0  0  0  0  0  0  0  0
    0.8681   -7.0369    1.9323 H   0  0  0  0  0  0  0  0  0  0  0  0
    2.3430   -7.5740    1.2592 H   0  0  0  0  0  0  0  0  0  0  0  0
    1.2657   -7.7478    4.0209 H   0  0  0  0  0  0  0  0  0  0  0  0
    2.9285   -7.0795    5.2507 H   0  0  0  0  0  0  0  0  0  0  0  0
    4.9015   -9.1172    4.3214 H   0  0  0  0  0  0  0  0  0  0  0  0
    4.3062   -8.6894    5.9181 H   0  0  0  0  0  0  0  0  0  0  0  0
    2.1155   -9.4569    5.3967 H   0  0  0  0  0  0  0  0  0  0  0  0
    3.8070  -11.6539    4.2282 H   0  0  0  0  0  0  0  0  0  0  0  0
    2.9596  -11.6327    5.7674 H   0  0  0  0  0  0  0  0  0  0  0  0
    1.8603  -12.3530    3.2157 H   0  0  0  0  0  0  0  0  0  0  0  0
    0.7421  -11.7723    5.7142 H   0  0  0  0  0  0  0  0  0  0  0  0
    0.7451  -10.5687    2.2695 H   0  0  0  0  0  0  0  0  0  0  0  0
    0.2862   -9.9070    3.8340 H   0  0  0  0  0  0  0  0  0  0  0  0
    3.4837  -10.9052    2.1060 H   0  0  0  0  0  0  0  0  0  0  0  0
    4.2426   -9.3432    2.1328 H   0  0  0  0  0  0  0  0  0  0  0  0
    2.8286   -9.6472    1.1311 H   0  0  0  0  0  0  0  0  0  0  0  0
    4.8397   -5.9073    4.5834 H   0  0  0  0  0  0  0  0  0  0  0  0
    5.6563   -7.7023    3.0516 H   0  0  0  0  0  0  0  0  0  0  0  0
    4.6295   -7.1531    1.7791 H   0  0  0  0  0  0  0  0  0  0  0  0
    7.0955   -5.8652    2.9973 H   0  0  0  0  0  0  0  0  0  0  0  0
    8.2525   -8.0357    2.1741 H   0  0  0  0  0  0  0  0  0  0  0  0
    8.1860   -8.3737    0.4492 H   0  0  0  0  0  0  0  0  0  0  0  0
    6.7776   -8.6988    1.4333 H   0  0  0  0  0  0  0  0  0  0  0  0
    8.7079   -6.2938   -0.3489 H   0  0  0  0  0  0  0  0  0  0  0  0
    9.0444   -5.7359    1.2702 H   0  0  0  0  0  0  0  0  0  0  0  0
    6.4740   -6.6873    0.2726 H   0  0  0  0  0  0  0  0  0  0  0  0
  1  2  1  0
  1 37  1  0
  1 38  1  0
  1 39  1  0
  2 36  1  0
  2  3  1  0
  2 40  1  6
  3  4  1  0
  3 41  1  0
  3 42  1  0
  4 33  1  0
  4  5  1  0
  4 43  1  6
  6  5  1  6
  6 16  1  0
  6  7  1  0
  6 17  1  0
  7 14  1  0
  7  8  1  0
  7 44  1  6
  8  9  1  0
  9 16  1  0
  9 10  1  1
  9 11  1  0
 10 45  1  0
 10 46  1  0
 10 47  1  0
 11 12  1  0
 11 13  1  0
 11 48  1  6
 12 49  1  0
 12 50  1  0
 12 51  1  0
 13 14  1  0
 14 15  1  0
 14 52  1  6
 15 16  1  0
 15 53  1  0
 15 54  1  0
 16 55  1  1
 17 31  1  0
 17 18  1  1
 17 19  1  0
 18 56  1  0
 18 57  1  0
 18 58  1  0
 19 20  1  0
 19 59  1  0
 19 60  1  0
 20 21  1  0
 20 61  1  0
 20 62  1  0
 21 29  1  0
 21 22  1  0
 21 63  1  1
 22 23  1  0
 22 31  1  0
 22 64  1  1
 23 24  1  0
 23 65  1  0
 23 66  1  0
 24 29  1  0
 24 25  1  0
 24 67  1  1
 25 26  1  0
 25 68  1  0
 25 69  1  0
 26 27  1  0
 26 28  1  0
 26 70  1  6
 27 71  1  0
 28 29  1  0
 28 72  1  0
 28 73  1  0
 29 30  1  6
 30 74  1  0
 30 75  1  0
 30 76  1  0
 31 32  1  0
 31 77  1  1
 32 33  1  0
 32 78  1  0
 32 79  1  0
 33 34  1  0
 33 80  1  1
 34 35  1  0
 34 36  1  0
 34 86  1  6
 35 81  1  0
 35 82  1  0
 35 83  1  0
 36 84  1  0
 36 85  1  0
M  CHG  1  34   1
M  END
>  <i_m_ct_stereo_status>  (241) 
1

>  <s_m_source_file>  (241) 
/var/tmp/pbs.5076255.sched01/tmpc36l9o9d/84wsylf1cs.sdf

>  <i_m_source_file_index>  (241) 
24

>  <i_lp_mmshare_version>  (241) 
48012

>  <i_f3d_flags>  (241) 
0

>  <s_epik_input>  (241) 
W0NIM11OMVtDSDJdW0NASF0oW0NIM10pW0NIMl1bQ0BIXShPMilbQ0BIXTFbQ0gyXVtDQEhdKFtDQEhdM1tDQEBIXShbQ0gyXVtDSDJdNClbQ0BAXTUoW0NIM10pW0NASF0oW0NIMl0zKVtDSDJdW0NAQEhdKFtPSF0pW0NIMl01KVtDQEBdNChbQ0gzXSlbQ0BdMjZbQ0BASF03W0NASF04T1tDQEhdKFtDSDNdKVtDQF0oTzcpKFtDSDNdKVtDQEBIXTZbQ0gyXTg=

>  <s_epik_cmdline>  (241) 
J2VwaWtfcHl0aG9uJywgJy1waHQnLCAnMi4wJywgJy1waCcsICc3LjAnLCAnLXRuJywgJzgnLCAnLW1hJywgJzIwMCcsICctaW1hZScsICc8aW5maWxlLm1hZT4nLCAnLW9tYWUnLCAnPG91dGZpbGUubWFlPic=

>  <r_epik_Ionization_Penalty>  (241) 
0.00224937

>  <r_epik_Ionization_Penalty_Charging>  (241) 
0.00224725

>  <r_epik_Ionization_Penalty_Neutral>  (241) 
2.11923e-06

>  <r_epik_State_Penalty>  (241) 
0.00154725

>  <r_epik_Charging_Adjusted_Penalty>  (241) 
0.0037945

>  <i_epik_Tot_Q>  (241) 
1

>  <i_epik_Tot_abs_Q>  (241) 
1

>  <s_lp_Force_Field>  (241) 
OPLS3e

>  <r_lp_Energy>  (241) 
149.841

>  <b_lp_Chiralities_Consistent>  (241) 
1

>  <s_lp_Variant>  (241) 
76:0-1

>  <s_i_glide_gridfile>  (241) 
pfpi4k_grid

>  <i_i_glide_lignum>  (241) 
24

>  <i_i_glide_rotatable_bonds>  (241) 
1

>  <r_i_docking_score>  (241) 
-1.93755

>  <r_i_glide_ligand_efficiency>  (241) 
-0.0538208

>  <r_i_glide_ligand_efficiency_sa>  (241) 
-0.177712

>  <r_i_glide_ligand_efficiency_ln>  (241) 
-0.422721

>  <r_i_glide_gscore>  (241) 
-1.93755

>  <r_i_glide_lipo>  (241) 
-0.546905

>  <r_i_glide_hbond>  (241) 
-0.122837

>  <r_i_glide_metal>  (241) 
-0

>  <r_i_glide_rewards>  (241) 
0

>  <r_i_glide_evdw>  (241) 
-19.2832

>  <r_i_glide_ecoul>  (241) 
-2.02431

>  <r_i_glide_erotb>  (241) 
0

>  <r_i_glide_esite>  (241) 
0

>  <r_i_glide_emodel>  (241) 
-23.0833

>  <r_i_glide_energy>  (241) 
-21.3075

>  <r_i_glide_einternal>  (241) 
0.582475

>  <r_i_glide_intrahb_reward>  (241) 
-0

>  <i_i_glide_confnum>  (241) 
1

>  <i_i_glide_posenum>  (241) 
26

>  <r_i_glide_eff_state_penalty>  (241) 
0

>  <ligand_id>  (241) 
76

>  <original_smiles>  (241) 
CC1CC2OC3(C4OC5(C)C(C)OC4CC53)C3(C)CCC4C(CC5CC(O)CC54C)C3CC2N(C)C1

>  <smiles>  (241) 
[H]OC1([H])C([H])([H])C2([H])C([H])([H])C3([H])C([H])(C([H])([H])C([H])([H])C4(C([H])([H])[H])C3([H])C([H])([H])C3([H])C([H])(OC45C4([H])OC6(C([H])([H])[H])C([H])(C([H])([H])[H])OC4([H])C([H])([H])C65[H])C([H])([H])C([H])(C([H])([H])[H])C([H])([H])[N+]3([H])C([H])([H])[H])C2(C([H])([H])[H])C1([H])[H]

$$$$
77:0:0
     RDKit          3D

 86 91  0  0  1  0  0  0  0  0999 V2000
    1.6537    3.9568    3.5464 C   0  0  0  0  0  0  0  0  0  0  0  0
    0.7443    3.0921    4.4506 C   0  0  2  0  0  0  0  0  0  0  0  0
    0.9731    3.3597    5.9420 C   0  0  0  0  0  0  0  0  0  0  0  0
    2.3886    2.9552    6.3573 C   0  0  0  0  0  0  0  0  0  0  0  0
    2.8343    1.5085    5.9767 C   0  0  1  0  0  0  0  0  0  0  0  0
    4.3809    1.5913    5.8887 C   0  0  0  0  0  0  0  0  0  0  0  0
    2.4157    0.5187    7.0810 C   0  0  0  0  0  0  0  0  0  0  0  0
    2.9991   -0.8814    6.8405 C   0  0  0  0  0  0  0  0  0  0  0  0
    2.5741   -1.5563    5.4885 C   0  0  1  0  0  0  0  0  0  0  0  0
    1.1686   -2.1329    5.7873 C   0  0  0  0  0  0  0  0  0  0  0  0
    2.3997   -0.5203    4.3444 C   0  0  0  0  0  0  0  0  0  0  0  0
    2.2982   -0.9683    3.0827 C   0  0  0  0  0  0  0  0  0  0  0  0
    2.3258   -2.4249    2.6863 C   0  0  1  0  0  0  0  0  0  0  0  0
    2.6360   -2.4819    1.3009 O   0  0  0  0  0  0  0  0  0  0  0  0
    3.3508   -3.2499    3.5286 C   0  0  2  0  0  0  0  0  0  0  0  0
    3.4156   -4.8317    3.2952 C   0  0  2  0  0  0  0  0  0  0  0  0
    4.9059   -5.2078    3.0436 C   0  0  0  0  0  0  0  0  0  0  0  0
    2.6075   -5.3791    2.0612 C   0  0  0  0  0  0  0  0  0  0  0  0
    2.1996   -6.7695    2.5311 C   0  0  2  0  0  0  0  0  0  0  0  0
    1.1896   -7.5830    1.9673 O   0  0  0  0  0  0  0  0  0  0  0  0
    0.9558   -8.6141    2.9525 C   0  0  0  0  0  0  0  0  0  0  0  0
   -0.5498   -8.9470    2.9600 C   0  0  0  0  0  0  0  0  0  0  0  0
    1.7647   -9.8694    2.5732 C   0  0  0  0  0  0  0  0  0  0  0  0
    1.4562   -8.0034    4.2995 C   0  0  0  0  0  0  0  0  0  0  0  0
    1.7035   -6.5429    3.9347 C   0  0  2  0  0  0  0  0  0  0  0  0
    0.3761   -5.7461    4.0124 C   0  0  0  0  0  0  0  0  0  0  0  0
    2.9029   -5.7382    4.4863 C   0  0  2  0  0  0  0  0  0  0  0  0
    2.6785   -5.0367    5.8265 C   0  0  0  0  0  0  0  0  0  0  0  0
    3.6752   -3.8988    6.0439 C   0  0  0  0  0  0  0  0  0  0  0  0
    3.5989   -2.7177    5.0206 C   0  0  2  0  0  0  0  0  0  0  0  0
    5.0495   -2.1446    5.0178 C   0  0  0  0  0  0  0  0  0  0  0  0
    2.2685    1.0023    4.6062 C   0  0  1  0  0  0  0  0  0  0  0  0
    0.8753    1.5800    4.1672 C   0  0  1  0  0  0  0  0  0  0  0  0
   -0.3667    0.8176    4.6756 C   0  0  0  0  0  0  0  0  0  0  0  0
    2.7133    3.7262    3.6627 H   0  0  0  0  0  0  0  0  0  0  0  0
    1.5231    5.0198    3.7588 H   0  0  0  0  0  0  0  0  0  0  0  0
    1.4137    3.8053    2.4919 H   0  0  0  0  0  0  0  0  0  0  0  0
   -0.2776    3.3979    4.2153 H   0  0  0  0  0  0  0  0  0  0  0  0
    0.8194    4.4173    6.1579 H   0  0  0  0  0  0  0  0  0  0  0  0
    0.2394    2.8287    6.5441 H   0  0  0  0  0  0  0  0  0  0  0  0
    3.0654    3.6871    5.9158 H   0  0  0  0  0  0  0  0  0  0  0  0
    2.4971    3.1065    7.4317 H   0  0  0  0  0  0  0  0  0  0  0  0
    4.8326    0.6807    5.5050 H   0  0  0  0  0  0  0  0  0  0  0  0
    4.8254    1.8016    6.8625 H   0  0  0  0  0  0  0  0  0  0  0  0
    4.6960    2.3837    5.2084 H   0  0  0  0  0  0  0  0  0  0  0  0
    2.7584    0.8777    8.0517 H   0  0  0  0  0  0  0  0  0  0  0  0
    1.3316    0.4697    7.1549 H   0  0  0  0  0  0  0  0  0  0  0  0
    4.0710   -0.7861    6.9519 H   0  0  0  0  0  0  0  0  0  0  0  0
    2.7187   -1.5130    7.6845 H   0  0  0  0  0  0  0  0  0  0  0  0
    1.1647   -2.7749    6.6652 H   0  0  0  0  0  0  0  0  0  0  0  0
    0.7591   -2.6974    4.9559 H   0  0  0  0  0  0  0  0  0  0  0  0
    0.4564   -1.3486    6.0184 H   0  0  0  0  0  0  0  0  0  0  0  0
    2.1410   -0.2564    2.2856 H   0  0  0  0  0  0  0  0  0  0  0  0
    1.3149   -2.8043    2.8163 H   0  0  0  0  0  0  0  0  0  0  0  0
    2.0751   -1.8868    0.8212 H   0  0  0  0  0  0  0  0  0  0  0  0
    4.2401   -2.9147    2.9963 H   0  0  0  0  0  0  0  0  0  0  0  0
    5.0382   -6.2702    2.8317 H   0  0  0  0  0  0  0  0  0  0  0  0
    5.5315   -4.9867    3.9082 H   0  0  0  0  0  0  0  0  0  0  0  0
    5.3193   -4.6712    2.1882 H   0  0  0  0  0  0  0  0  0  0  0  0
    1.7063   -4.8129    1.8480 H   0  0  0  0  0  0  0  0  0  0  0  0
    3.1911   -5.4092    1.1401 H   0  0  0  0  0  0  0  0  0  0  0  0
    3.1065   -7.3789    2.5304 H   0  0  0  0  0  0  0  0  0  0  0  0
   -0.7711   -9.7429    3.6718 H   0  0  0  0  0  0  0  0  0  0  0  0
   -0.8808   -9.2857    1.9778 H   0  0  0  0  0  0  0  0  0  0  0  0
   -1.1645   -8.0921    3.2332 H   0  0  0  0  0  0  0  0  0  0  0  0
    1.6037  -10.6755    3.2887 H   0  0  0  0  0  0  0  0  0  0  0  0
    2.8368   -9.6789    2.5347 H   0  0  0  0  0  0  0  0  0  0  0  0
    1.4652  -10.2414    1.5972 H   0  0  0  0  0  0  0  0  0  0  0  0
    0.7411   -8.1216    5.1132 H   0  0  0  0  0  0  0  0  0  0  0  0
    2.3861   -8.4754    4.6182 H   0  0  0  0  0  0  0  0  0  0  0  0
   -0.3379   -6.0794    3.2660 H   0  0  0  0  0  0  0  0  0  0  0  0
    0.5260   -4.6822    3.8428 H   0  0  0  0  0  0  0  0  0  0  0  0
   -0.1000   -5.8575    4.9870 H   0  0  0  0  0  0  0  0  0  0  0  0
    3.6801   -6.4765    4.6927 H   0  0  0  0  0  0  0  0  0  0  0  0
    1.6618   -4.6933    5.9358 H   0  0  0  0  0  0  0  0  0  0  0  0
    2.7982   -5.7719    6.6228 H   0  0  0  0  0  0  0  0  0  0  0  0
    3.5786   -3.5344    7.0640 H   0  0  0  0  0  0  0  0  0  0  0  0
    4.6670   -4.3523    6.0272 H   0  0  0  0  0  0  0  0  0  0  0  0
    5.7597   -2.8501    4.5860 H   0  0  0  0  0  0  0  0  0  0  0  0
    5.4511   -1.9547    6.0126 H   0  0  0  0  0  0  0  0  0  0  0  0
    5.1271   -1.2315    4.4291 H   0  0  0  0  0  0  0  0  0  0  0  0
    2.9420    1.4307    3.8637 H   0  0  0  0  0  0  0  0  0  0  0  0
    0.8188    1.4832    3.0819 H   0  0  0  0  0  0  0  0  0  0  0  0
   -0.4168    0.7748    5.7625 H   0  0  0  0  0  0  0  0  0  0  0  0
   -0.3944   -0.1988    4.2869 H   0  0  0  0  0  0  0  0  0  0  0  0
   -1.2857    1.2961    4.3333 H   0  0  0  0  0  0  0  0  0  0  0  0
  1  2  1  0
  1 35  1  0
  1 36  1  0
  1 37  1  0
  2 33  1  0
  2  3  1  0
  2 38  1  6
  3  4  1  0
  3 39  1  0
  3 40  1  0
  4  5  1  0
  4 41  1  0
  4 42  1  0
  5 32  1  0
  5  6  1  6
  5  7  1  0
  6 43  1  0
  6 44  1  0
  6 45  1  0
  7  8  1  0
  7 46  1  0
  7 47  1  0
  8  9  1  0
  8 48  1  0
  8 49  1  0
  9 30  1  0
  9 10  1  1
  9 11  1  0
 10 50  1  0
 10 51  1  0
 10 52  1  0
 11 12  2  0
 11 32  1  0
 12 13  1  0
 12 53  1  0
 13 14  1  0
 13 15  1  0
 13 54  1  6
 14 55  1  0
 15 30  1  0
 15 16  1  0
 15 56  1  6
 16 27  1  0
 16 17  1  6
 16 18  1  0
 17 57  1  0
 17 58  1  0
 17 59  1  0
 18 19  1  0
 18 60  1  0
 18 61  1  0
 19 25  1  0
 19 20  1  0
 19 62  1  1
 20 21  1  0
 21 22  1  0
 21 23  1  0
 21 24  1  0
 22 63  1  0
 22 64  1  0
 22 65  1  0
 23 66  1  0
 23 67  1  0
 23 68  1  0
 24 25  1  0
 24 69  1  0
 24 70  1  0
 25 26  1  6
 25 27  1  0
 26 71  1  0
 26 72  1  0
 26 73  1  0
 27 28  1  0
 27 74  1  1
 28 29  1  0
 28 75  1  0
 28 76  1  0
 29 30  1  0
 29 77  1  0
 29 78  1  0
 30 31  1  6
 31 79  1  0
 31 80  1  0
 31 81  1  0
 32 33  1  0
 32 82  1  6
 33 34  1  0
 33 83  1  6
 34 84  1  0
 34 85  1  0
 34 86  1  0
M  END
>  <i_m_ct_stereo_status>  (242) 
1

>  <s_m_source_file>  (242) 
/var/tmp/pbs.5076255.sched01/tmpc36l9o9d/84wsylf1cs.sdf

>  <i_m_source_file_index>  (242) 
25

>  <i_lp_mmshare_version>  (242) 
48012

>  <i_f3d_flags>  (242) 
0

>  <s_epik_input>  (242) 
W0NIMl0xW0NIMl1bQ0BASF0oW0NIM10pW0NASF0oW0NIM10pW0NAQEhdKFtDQEBdMTJbQ0gzXSlDPTNbQ0BdKFtDSDNdKShbQ0gyXVtDSDJdMilbQ0BdNChbQ0gzXSlbQ0BIXShbQ0BASF0oW0NIXTMpW09IXSlbQ0BAXTUoW0NIM10pW0NAQEhdKFtDSDJdW0NIMl00KVtDQEBdNihbQ0gzXSlbQ0BIXShbQ0gyXTUpT0MoW0NIM10pKFtDSDNdKVtDSDJdNg==

>  <s_epik_cmdline>  (242) 
J2VwaWtfcHl0aG9uJywgJy1waHQnLCAnMi4wJywgJy1waCcsICc3LjAnLCAnLXRuJywgJzgnLCAnLW1hJywgJzIwMCcsICctaW1hZScsICc8aW5maWxlLm1hZT4nLCAnLW9tYWUnLCAnPG91dGZpbGUubWFlPic=

>  <r_lp_tautomer_probability>  (242) 
1

>  <r_epik_Ionization_Penalty>  (242) 
1.02358e-06

>  <r_epik_Ionization_Penalty_Charging>  (242) 
0

>  <r_epik_Ionization_Penalty_Neutral>  (242) 
1.02358e-06

>  <r_epik_State_Penalty>  (242) 
-0

>  <r_epik_Charging_Adjusted_Penalty>  (242) 
0

>  <i_epik_Tot_Q>  (242) 
0

>  <i_epik_Tot_abs_Q>  (242) 
0

>  <s_lp_Force_Field>  (242) 
OPLS3e

>  <r_lp_Energy>  (242) 
111.637

>  <b_lp_Chiralities_Consistent>  (242) 
1

>  <s_lp_Variant>  (242) 
77:0-1

>  <s_i_glide_gridfile>  (242) 
pfpi4k_grid

>  <i_i_glide_lignum>  (242) 
25

>  <i_i_glide_rotatable_bonds>  (242) 
1

>  <r_i_docking_score>  (242) 
-1.93205

>  <r_i_glide_ligand_efficiency>  (242) 
-0.0568251

>  <r_i_glide_ligand_efficiency_sa>  (242) 
-0.184091

>  <r_i_glide_ligand_efficiency_ln>  (242) 
-0.426845

>  <r_i_glide_gscore>  (242) 
-1.93205

>  <r_i_glide_lipo>  (242) 
-0.125016

>  <r_i_glide_hbond>  (242) 
-0.0593218

>  <r_i_glide_metal>  (242) 
-0

>  <r_i_glide_rewards>  (242) 
-0.21304

>  <r_i_glide_evdw>  (242) 
-24.4349

>  <r_i_glide_ecoul>  (242) 
-2.08621

>  <r_i_glide_erotb>  (242) 
0

>  <r_i_glide_esite>  (242) 
0

>  <r_i_glide_emodel>  (242) 
-29.5067

>  <r_i_glide_energy>  (242) 
-26.5211

>  <r_i_glide_einternal>  (242) 
0.452003

>  <r_i_glide_intrahb_reward>  (242) 
-0

>  <i_i_glide_confnum>  (242) 
2

>  <i_i_glide_posenum>  (242) 
4

>  <r_i_glide_eff_state_penalty>  (242) 
0

>  <ligand_id>  (242) 
77

>  <original_smiles>  (242) 
CC1CCC2(C)CCC3(C)C(=CC(O)C4C5(C)CC6OC(C)(C)CC6(C)C5CCC43C)C2C1C

>  <smiles>  (242) 
[H]OC1([H])C([H])=C2C3([H])C([H])(C([H])([H])[H])C([H])(C([H])([H])[H])C([H])([H])C([H])([H])C3(C([H])([H])[H])C([H])([H])C([H])([H])C2(C([H])([H])[H])C2(C([H])([H])[H])C([H])([H])C([H])([H])C3([H])C4(C([H])([H])[H])C([H])([H])C(C([H])([H])[H])(C([H])([H])[H])OC4([H])C([H])([H])C3(C([H])([H])[H])C12[H]

$$$$
77:0:1
     RDKit          3D

 86 91  0  0  1  0  0  0  0  0999 V2000
    2.2506    3.6611    2.8732 C   0  0  0  0  0  0  0  0  0  0  0  0
    1.1489    2.9204    3.6624 C   0  0  2  0  0  0  0  0  0  0  0  0
    1.1270    3.3133    5.1423 C   0  0  0  0  0  0  0  0  0  0  0  0
    2.4221    2.8884    5.8371 C   0  0  0  0  0  0  0  0  0  0  0  0
    2.8429    1.3952    5.6624 C   0  0  1  0  0  0  0  0  0  0  0  0
    4.3835    1.4035    5.8494 C   0  0  0  0  0  0  0  0  0  0  0  0
    2.1789    0.5307    6.7512 C   0  0  0  0  0  0  0  0  0  0  0  0
    2.7136   -0.9090    6.7374 C   0  0  0  0  0  0  0  0  0  0  0  0
    2.4966   -1.6880    5.3928 C   0  0  1  0  0  0  0  0  0  0  0  0
    1.0275   -2.1731    5.4788 C   0  0  0  0  0  0  0  0  0  0  0  0
    2.5857   -0.7562    4.1537 C   0  0  0  0  0  0  0  0  0  0  0  0
    2.6799   -1.3186    2.9377 C   0  0  0  0  0  0  0  0  0  0  0  0
    2.6946   -2.8060    2.6838 C   0  0  1  0  0  0  0  0  0  0  0  0
    3.2526   -3.0108    1.3990 O   0  0  0  0  0  0  0  0  0  0  0  0
    3.5061   -3.5885    3.7588 C   0  0  2  0  0  0  0  0  0  0  0  0
    3.5137   -5.1849    3.6664 C   0  0  2  0  0  0  0  0  0  0  0  0
    5.0008   -5.6455    3.7183 C   0  0  0  0  0  0  0  0  0  0  0  0
    2.9020   -5.8081    2.3549 C   0  0  0  0  0  0  0  0  0  0  0  0
    2.3402   -7.1311    2.8580 C   0  0  2  0  0  0  0  0  0  0  0  0
    1.4012   -7.9506    2.1901 O   0  0  0  0  0  0  0  0  0  0  0  0
    0.9355   -8.8746    3.1980 C   0  0  0  0  0  0  0  0  0  0  0  0
   -0.5643   -9.1335    2.9594 C   0  0  0  0  0  0  0  0  0  0  0  0
    1.7203  -10.1960    3.0713 C   0  0  0  0  0  0  0  0  0  0  0  0
    1.2250   -8.1625    4.5577 C   0  0  0  0  0  0  0  0  0  0  0  0
    1.6169   -6.7529    4.1231 C   0  0  2  0  0  0  0  0  0  0  0  0
    0.3474   -5.8930    3.8859 C   0  0  0  0  0  0  0  0  0  0  0  0
    2.7466   -5.9546    4.8152 C   0  0  2  0  0  0  0  0  0  0  0  0
    2.3326   -5.1231    6.0309 C   0  0  0  0  0  0  0  0  0  0  0  0
    3.3418   -4.0138    6.3319 C   0  0  0  0  0  0  0  0  0  0  0  0
    3.5204   -2.9300    5.2187 C   0  0  2  0  0  0  0  0  0  0  0  0
    4.9842   -2.4229    5.4286 C   0  0  0  0  0  0  0  0  0  0  0  0
    2.4981    0.7891    4.2583 C   0  0  1  0  0  0  0  0  0  0  0  0
    1.2393    1.3842    3.5304 C   0  0  1  0  0  0  0  0  0  0  0  0
   -0.1151    0.7257    3.8684 C   0  0  0  0  0  0  0  0  0  0  0  0
    3.2587    3.3969    3.1949 H   0  0  0  0  0  0  0  0  0  0  0  0
    2.1453    4.7434    2.9682 H   0  0  0  0  0  0  0  0  0  0  0  0
    2.1862    3.4288    1.8088 H   0  0  0  0  0  0  0  0  0  0  0  0
    0.2061    3.2489    3.2189 H   0  0  0  0  0  0  0  0  0  0  0  0
    1.0012    4.3926    5.2361 H   0  0  0  0  0  0  0  0  0  0  0  0
    0.2678    2.8729    5.6436 H   0  0  0  0  0  0  0  0  0  0  0  0
    3.2070    3.5473    5.4653 H   0  0  0  0  0  0  0  0  0  0  0  0
    2.3500    3.1338    6.8972 H   0  0  0  0  0  0  0  0  0  0  0  0
    4.8411    0.4428    5.6307 H   0  0  0  0  0  0  0  0  0  0  0  0
    4.6608    1.6830    6.8668 H   0  0  0  0  0  0  0  0  0  0  0  0
    4.8625    2.1151    5.1756 H   0  0  0  0  0  0  0  0  0  0  0  0
    2.3654    0.9621    7.7350 H   0  0  0  0  0  0  0  0  0  0  0  0
    1.0975    0.5350    6.6325 H   0  0  0  0  0  0  0  0  0  0  0  0
    3.7530   -0.8499    7.0321 H   0  0  0  0  0  0  0  0  0  0  0  0
    2.2523   -1.4472    7.5659 H   0  0  0  0  0  0  0  0  0  0  0  0
    0.8304   -2.7307    6.3914 H   0  0  0  0  0  0  0  0  0  0  0  0
    0.7365   -2.7926    4.6364 H   0  0  0  0  0  0  0  0  0  0  0  0
    0.3324   -1.3410    5.5116 H   0  0  0  0  0  0  0  0  0  0  0  0
    2.7051   -0.6889    2.0596 H   0  0  0  0  0  0  0  0  0  0  0  0
    1.6568   -3.1313    2.6524 H   0  0  0  0  0  0  0  0  0  0  0  0
    3.2332   -3.9317    1.1994 H   0  0  0  0  0  0  0  0  0  0  0  0
    4.4933   -3.3403    3.3711 H   0  0  0  0  0  0  0  0  0  0  0  0
    5.1066   -6.7274    3.6227 H   0  0  0  0  0  0  0  0  0  0  0  0
    5.4762   -5.3724    4.6604 H   0  0  0  0  0  0  0  0  0  0  0  0
    5.5900   -5.2072    2.9113 H   0  0  0  0  0  0  0  0  0  0  0  0
    2.0796   -5.2352    1.9351 H   0  0  0  0  0  0  0  0  0  0  0  0
    3.6355   -5.9536    1.5611 H   0  0  0  0  0  0  0  0  0  0  0  0
    3.1970   -7.7743    3.0720 H   0  0  0  0  0  0  0  0  0  0  0  0
   -0.9565   -9.8539    3.6779 H   0  0  0  0  0  0  0  0  0  0  0  0
   -0.7388   -9.5503    1.9692 H   0  0  0  0  0  0  0  0  0  0  0  0
   -1.1657   -8.2319    3.0476 H   0  0  0  0  0  0  0  0  0  0  0  0
    1.3894  -10.9261    3.8099 H   0  0  0  0  0  0  0  0  0  0  0  0
    2.7913  -10.0546    3.2145 H   0  0  0  0  0  0  0  0  0  0  0  0
    1.5810  -10.6382    2.0866 H   0  0  0  0  0  0  0  0  0  0  0  0
    0.3730   -8.1746    5.2369 H   0  0  0  0  0  0  0  0  0  0  0  0
    2.0556   -8.6413    5.0778 H   0  0  0  0  0  0  0  0  0  0  0  0
   -0.2406   -6.2580    3.0483 H   0  0  0  0  0  0  0  0  0  0  0  0
    0.5879   -4.8556    3.6660 H   0  0  0  0  0  0  0  0  0  0  0  0
   -0.3000   -5.8961    4.7634 H   0  0  0  0  0  0  0  0  0  0  0  0
    3.4307   -6.7038    5.2186 H   0  0  0  0  0  0  0  0  0  0  0  0
    1.3340   -4.7274    5.9255 H   0  0  0  0  0  0  0  0  0  0  0  0
    2.2667   -5.7867    6.8933 H   0  0  0  0  0  0  0  0  0  0  0  0
    3.0882   -3.5526    7.2840 H   0  0  0  0  0  0  0  0  0  0  0  0
    4.2925   -4.5096    6.5317 H   0  0  0  0  0  0  0  0  0  0  0  0
    5.7179   -3.1931    5.1899 H   0  0  0  0  0  0  0  0  0  0  0  0
    5.2131   -2.1572    6.4600 H   0  0  0  0  0  0  0  0  0  0  0  0
    5.2142   -1.5712    4.7895 H   0  0  0  0  0  0  0  0  0  0  0  0
    3.3148    1.1202    3.6162 H   0  0  0  0  0  0  0  0  0  0  0  0
    1.3676    1.1908    2.4642 H   0  0  0  0  0  0  0  0  0  0  0  0
   -0.3587    0.7853    4.9280 H   0  0  0  0  0  0  0  0  0  0  0  0
   -0.1337   -0.3199    3.5662 H   0  0  0  0  0  0  0  0  0  0  0  0
   -0.9297    1.2103    3.3277 H   0  0  0  0  0  0  0  0  0  0  0  0
  1  2  1  0
  1 35  1  0
  1 36  1  0
  1 37  1  0
  2 33  1  0
  2  3  1  0
  2 38  1  6
  3  4  1  0
  3 39  1  0
  3 40  1  0
  4  5  1  0
  4 41  1  0
  4 42  1  0
  5 32  1  0
  5  6  1  1
  5  7  1  0
  6 43  1  0
  6 44  1  0
  6 45  1  0
  7  8  1  0
  7 46  1  0
  7 47  1  0
  8  9  1  0
  8 48  1  0
  8 49  1  0
  9 30  1  0
  9 10  1  1
  9 11  1  0
 10 50  1  0
 10 51  1  0
 10 52  1  0
 11 12  2  0
 11 32  1  0
 12 13  1  0
 12 53  1  0
 13 14  1  0
 13 15  1  0
 13 54  1  6
 14 55  1  0
 15 30  1  0
 15 16  1  0
 15 56  1  6
 16 27  1  0
 16 17  1  1
 16 18  1  0
 17 57  1  0
 17 58  1  0
 17 59  1  0
 18 19  1  0
 18 60  1  0
 18 61  1  0
 19 25  1  0
 19 20  1  0
 19 62  1  1
 20 21  1  0
 21 22  1  0
 21 23  1  0
 21 24  1  0
 22 63  1  0
 22 64  1  0
 22 65  1  0
 23 66  1  0
 23 67  1  0
 23 68  1  0
 24 25  1  0
 24 69  1  0
 24 70  1  0
 25 26  1  6
 25 27  1  0
 26 71  1  0
 26 72  1  0
 26 73  1  0
 27 28  1  0
 27 74  1  1
 28 29  1  0
 28 75  1  0
 28 76  1  0
 29 30  1  0
 29 77  1  0
 29 78  1  0
 30 31  1  1
 31 79  1  0
 31 80  1  0
 31 81  1  0
 32 33  1  0
 32 82  1  6
 33 34  1  0
 33 83  1  6
 34 84  1  0
 34 85  1  0
 34 86  1  0
M  END
>  <i_m_ct_stereo_status>  (243) 
1

>  <s_m_source_file>  (243) 
/var/tmp/pbs.5076255.sched01/tmpc36l9o9d/84wsylf1cs.sdf

>  <i_m_source_file_index>  (243) 
25

>  <i_lp_mmshare_version>  (243) 
48012

>  <i_f3d_flags>  (243) 
0

>  <s_epik_input>  (243) 
W0NIMl0xW0NIMl1bQ0BASF0oW0NIM10pW0NASF0oW0NIM10pW0NAQEhdKFtDQEBdMTJbQ0gzXSlDPTNbQ0BdKFtDSDNdKShbQ0gyXVtDSDJdMilbQ0BdNChbQ0gzXSlbQ0BIXShbQ0BASF0oW0NIXTMpW09IXSlbQ0BAXTUoW0NIM10pW0NAQEhdKFtDSDJdW0NIMl00KVtDQEBdNihbQ0gzXSlbQ0BIXShbQ0gyXTUpT0MoW0NIM10pKFtDSDNdKVtDSDJdNg==

>  <s_epik_cmdline>  (243) 
J2VwaWtfcHl0aG9uJywgJy1waHQnLCAnMi4wJywgJy1waCcsICc3LjAnLCAnLXRuJywgJzgnLCAnLW1hJywgJzIwMCcsICctaW1hZScsICc8aW5maWxlLm1hZT4nLCAnLW9tYWUnLCAnPG91dGZpbGUubWFlPic=

>  <r_lp_tautomer_probability>  (243) 
1

>  <r_epik_Ionization_Penalty>  (243) 
1.02358e-06

>  <r_epik_Ionization_Penalty_Charging>  (243) 
0

>  <r_epik_Ionization_Penalty_Neutral>  (243) 
1.02358e-06

>  <r_epik_State_Penalty>  (243) 
-0

>  <r_epik_Charging_Adjusted_Penalty>  (243) 
0

>  <i_epik_Tot_Q>  (243) 
0

>  <i_epik_Tot_abs_Q>  (243) 
0

>  <s_lp_Force_Field>  (243) 
OPLS3e

>  <r_lp_Energy>  (243) 
111.637

>  <b_lp_Chiralities_Consistent>  (243) 
1

>  <s_lp_Variant>  (243) 
77:0-1

>  <s_i_glide_gridfile>  (243) 
pfpi4k_grid

>  <i_i_glide_lignum>  (243) 
25

>  <i_i_glide_rotatable_bonds>  (243) 
1

>  <r_i_docking_score>  (243) 
-1.65686

>  <r_i_glide_ligand_efficiency>  (243) 
-0.0487312

>  <r_i_glide_ligand_efficiency_sa>  (243) 
-0.15787

>  <r_i_glide_ligand_efficiency_ln>  (243) 
-0.366047

>  <r_i_glide_gscore>  (243) 
-1.65686

>  <r_i_glide_lipo>  (243) 
-0.109173

>  <r_i_glide_hbond>  (243) 
0

>  <r_i_glide_metal>  (243) 
-0

>  <r_i_glide_rewards>  (243) 
-0.21304

>  <r_i_glide_evdw>  (243) 
-25.908

>  <r_i_glide_ecoul>  (243) 
-0.261656

>  <r_i_glide_erotb>  (243) 
0

>  <r_i_glide_esite>  (243) 
0

>  <r_i_glide_emodel>  (243) 
-28.6738

>  <r_i_glide_energy>  (243) 
-26.1697

>  <r_i_glide_einternal>  (243) 
0.479022

>  <r_i_glide_intrahb_reward>  (243) 
-0

>  <i_i_glide_confnum>  (243) 
2

>  <i_i_glide_posenum>  (243) 
16

>  <r_i_glide_eff_state_penalty>  (243) 
0

>  <ligand_id>  (243) 
77

>  <original_smiles>  (243) 
CC1CCC2(C)CCC3(C)C(=CC(O)C4C5(C)CC6OC(C)(C)CC6(C)C5CCC43C)C2C1C

>  <smiles>  (243) 
[H]OC1([H])C([H])=C2C3([H])C([H])(C([H])([H])[H])C([H])(C([H])([H])[H])C([H])([H])C([H])([H])C3(C([H])([H])[H])C([H])([H])C([H])([H])C2(C([H])([H])[H])C2(C([H])([H])[H])C([H])([H])C([H])([H])C3([H])C4(C([H])([H])[H])C([H])([H])C(C([H])([H])[H])(C([H])([H])[H])OC4([H])C([H])([H])C3(C([H])([H])[H])C12[H]

$$$$
77:0:2
     RDKit          3D

 86 91  0  0  1  0  0  0  0  0999 V2000
    6.9807    1.6604    6.7064 C   0  0  0  0  0  0  0  0  0  0  0  0
    5.7814    1.1552    7.5420 C   0  0  2  0  0  0  0  0  0  0  0  0
    6.1637    0.8385    8.9920 C   0  0  0  0  0  0  0  0  0  0  0  0
    7.1571   -0.3226    9.0545 C   0  0  0  0  0  0  0  0  0  0  0  0
    6.7505   -1.6208    8.2897 C   0  0  1  0  0  0  0  0  0  0  0  0
    8.0993   -2.3084    7.9569 C   0  0  0  0  0  0  0  0  0  0  0  0
    5.9016   -2.5296    9.1992 C   0  0  0  0  0  0  0  0  0  0  0  0
    5.6435   -3.8996    8.5535 C   0  0  0  0  0  0  0  0  0  0  0  0
    4.8850   -3.8568    7.1806 C   0  0  1  0  0  0  0  0  0  0  0  0
    3.3977   -3.7020    7.5836 C   0  0  0  0  0  0  0  0  0  0  0  0
    5.2550   -2.6004    6.3472 C   0  0  0  0  0  0  0  0  0  0  0  0
    4.8898   -2.5621    5.0559 C   0  0  0  0  0  0  0  0  0  0  0  0
    4.1237   -3.6557    4.3514 C   0  0  1  0  0  0  0  0  0  0  0  0
    4.3132   -3.4721    2.9600 O   0  0  0  0  0  0  0  0  0  0  0  0
    4.5808   -5.0801    4.7889 C   0  0  2  0  0  0  0  0  0  0  0  0
    3.7803   -6.3338    4.1979 C   0  0  2  0  0  0  0  0  0  0  0  0
    4.8321   -7.3223    3.6120 C   0  0  0  0  0  0  0  0  0  0  0  0
    2.7665   -6.0232    3.0330 C   0  0  0  0  0  0  0  0  0  0  0  0
    1.6925   -7.0838    3.2429 C   0  0  2  0  0  0  0  0  0  0  0  0
    0.3867   -7.0807    2.6945 O   0  0  0  0  0  0  0  0  0  0  0  0
   -0.3244   -8.0836    3.4528 C   0  0  0  0  0  0  0  0  0  0  0  0
   -1.7715   -7.6029    3.6456 C   0  0  0  0  0  0  0  0  0  0  0  0
   -0.3311   -9.4092    2.6696 C   0  0  0  0  0  0  0  0  0  0  0  0
    0.4627   -8.2129    4.7954 C   0  0  0  0  0  0  0  0  0  0  0  0
    1.4351   -7.0384    4.7260 C   0  0  2  0  0  0  0  0  0  0  0  0
    0.7406   -5.7305    5.2019 C   0  0  0  0  0  0  0  0  0  0  0  0
    2.8959   -7.1467    5.2266 C   0  0  2  0  0  0  0  0  0  0  0  0
    3.1244   -6.8417    6.7073 C   0  0  0  0  0  0  0  0  0  0  0  0
    4.5819   -6.4791    6.9967 C   0  0  0  0  0  0  0  0  0  0  0  0
    5.1214   -5.1909    6.2926 C   0  0  2  0  0  0  0  0  0  0  0  0
    6.6557   -5.4550    6.1618 C   0  0  0  0  0  0  0  0  0  0  0  0
    5.9613   -1.3636    6.9609 C   0  0  1  0  0  0  0  0  0  0  0  0
    5.0786   -0.0663    6.9113 C   0  0  1  0  0  0  0  0  0  0  0  0
    3.6378   -0.2055    7.4463 C   0  0  0  0  0  0  0  0  0  0  0  0
    7.7578    0.9044    6.5828 H   0  0  0  0  0  0  0  0  0  0  0  0
    7.4462    2.5303    7.1741 H   0  0  0  0  0  0  0  0  0  0  0  0
    6.6625    1.9578    5.7062 H   0  0  0  0  0  0  0  0  0  0  0  0
    5.0715    1.9852    7.5673 H   0  0  0  0  0  0  0  0  0  0  0  0
    6.6017    1.7187    9.4623 H   0  0  0  0  0  0  0  0  0  0  0  0
    5.2776    0.6043    9.5782 H   0  0  0  0  0  0  0  0  0  0  0  0
    8.1072    0.0570    8.6765 H   0  0  0  0  0  0  0  0  0  0  0  0
    7.3606   -0.5573   10.0995 H   0  0  0  0  0  0  0  0  0  0  0  0
    7.9803   -3.1719    7.3083 H   0  0  0  0  0  0  0  0  0  0  0  0
    8.6170   -2.6358    8.8595 H   0  0  0  0  0  0  0  0  0  0  0  0
    8.7705   -1.6333    7.4235 H   0  0  0  0  0  0  0  0  0  0  0  0
    6.4113   -2.6837   10.1507 H   0  0  0  0  0  0  0  0  0  0  0  0
    4.9605   -2.0451    9.4483 H   0  0  0  0  0  0  0  0  0  0  0  0
    6.6032   -4.3952    8.4943 H   0  0  0  0  0  0  0  0  0  0  0  0
    5.0935   -4.5106    9.2699 H   0  0  0  0  0  0  0  0  0  0  0  0
    3.0772   -4.4703    8.2831 H   0  0  0  0  0  0  0  0  0  0  0  0
    2.7243   -3.7210    6.7328 H   0  0  0  0  0  0  0  0  0  0  0  0
    3.2188   -2.7679    8.1055 H   0  0  0  0  0  0  0  0  0  0  0  0
    5.1117   -1.6798    4.4742 H   0  0  0  0  0  0  0  0  0  0  0  0
    3.0689   -3.4964    4.5641 H   0  0  0  0  0  0  0  0  0  0  0  0
    3.9095   -2.6579    2.7053 H   0  0  0  0  0  0  0  0  0  0  0  0
    5.4941   -5.1030    4.1956 H   0  0  0  0  0  0  0  0  0  0  0  0
    4.3723   -8.1968    3.1484 H   0  0  0  0  0  0  0  0  0  0  0  0
    5.5049   -7.7002    4.3813 H   0  0  0  0  0  0  0  0  0  0  0  0
    5.4431   -6.8515    2.8399 H   0  0  0  0  0  0  0  0  0  0  0  0
    2.2964   -5.0464    3.1097 H   0  0  0  0  0  0  0  0  0  0  0  0
    3.2179   -6.0838    2.0417 H   0  0  0  0  0  0  0  0  0  0  0  0
    2.1356   -8.0393    2.9507 H   0  0  0  0  0  0  0  0  0  0  0  0
   -2.3481   -8.3588    4.1752 H   0  0  0  0  0  0  0  0  0  0  0  0
   -2.2561   -7.4377    2.6837 H   0  0  0  0  0  0  0  0  0  0  0  0
   -1.8306   -6.6769    4.2144 H   0  0  0  0  0  0  0  0  0  0  0  0
   -0.8664  -10.1876    3.2117 H   0  0  0  0  0  0  0  0  0  0  0  0
    0.6755   -9.7825    2.4832 H   0  0  0  0  0  0  0  0  0  0  0  0
   -0.8207   -9.2857    1.7027 H   0  0  0  0  0  0  0  0  0  0  0  0
   -0.1790   -8.1819    5.6750 H   0  0  0  0  0  0  0  0  0  0  0  0
    1.0091   -9.1567    4.8340 H   0  0  0  0  0  0  0  0  0  0  0  0
   -0.0600   -5.4129    4.5377 H   0  0  0  0  0  0  0  0  0  0  0  0
    1.4352   -4.8961    5.2603 H   0  0  0  0  0  0  0  0  0  0  0  0
    0.3083   -5.8606    6.1944 H   0  0  0  0  0  0  0  0  0  0  0  0
    3.1659   -8.2005    5.1240 H   0  0  0  0  0  0  0  0  0  0  0  0
    2.4504   -6.0794    7.0671 H   0  0  0  0  0  0  0  0  0  0  0  0
    2.8585   -7.7267    7.2857 H   0  0  0  0  0  0  0  0  0  0  0  0
    4.7242   -6.4200    8.0730 H   0  0  0  0  0  0  0  0  0  0  0  0
    5.1781   -7.3460    6.7067 H   0  0  0  0  0  0  0  0  0  0  0  0
    6.8680   -6.2660    5.4647 H   0  0  0  0  0  0  0  0  0  0  0  0
    7.1247   -5.7812    7.0893 H   0  0  0  0  0  0  0  0  0  0  0  0
    7.1890   -4.5813    5.7892 H   0  0  0  0  0  0  0  0  0  0  0  0
    6.7355   -1.1419    6.2280 H   0  0  0  0  0  0  0  0  0  0  0  0
    4.9450    0.1867    5.8583 H   0  0  0  0  0  0  0  0  0  0  0  0
    3.6042   -0.5218    8.4877 H   0  0  0  0  0  0  0  0  0  0  0  0
    3.0604   -0.9116    6.8520 H   0  0  0  0  0  0  0  0  0  0  0  0
    3.1051    0.7452    7.3868 H   0  0  0  0  0  0  0  0  0  0  0  0
  1  2  1  0
  1 35  1  0
  1 36  1  0
  1 37  1  0
  2 33  1  0
  2  3  1  0
  2 38  1  1
  3  4  1  0
  3 39  1  0
  3 40  1  0
  4  5  1  0
  4 41  1  0
  4 42  1  0
  5 32  1  0
  5  6  1  6
  5  7  1  0
  6 43  1  0
  6 44  1  0
  6 45  1  0
  7  8  1  0
  7 46  1  0
  7 47  1  0
  8  9  1  0
  8 48  1  0
  8 49  1  0
  9 30  1  0
  9 10  1  1
  9 11  1  0
 10 50  1  0
 10 51  1  0
 10 52  1  0
 11 12  2  0
 11 32  1  0
 12 13  1  0
 12 53  1  0
 13 14  1  0
 13 15  1  0
 13 54  1  6
 14 55  1  0
 15 30  1  0
 15 16  1  0
 15 56  1  6
 16 27  1  0
 16 17  1  6
 16 18  1  0
 17 57  1  0
 17 58  1  0
 17 59  1  0
 18 19  1  0
 18 60  1  0
 18 61  1  0
 19 25  1  0
 19 20  1  0
 19 62  1  1
 20 21  1  0
 21 22  1  0
 21 23  1  0
 21 24  1  0
 22 63  1  0
 22 64  1  0
 22 65  1  0
 23 66  1  0
 23 67  1  0
 23 68  1  0
 24 25  1  0
 24 69  1  0
 24 70  1  0
 25 26  1  6
 25 27  1  0
 26 71  1  0
 26 72  1  0
 26 73  1  0
 27 28  1  0
 27 74  1  1
 28 29  1  0
 28 75  1  0
 28 76  1  0
 29 30  1  0
 29 77  1  0
 29 78  1  0
 30 31  1  6
 31 79  1  0
 31 80  1  0
 31 81  1  0
 32 33  1  0
 32 82  1  6
 33 34  1  0
 33 83  1  6
 34 84  1  0
 34 85  1  0
 34 86  1  0
M  END
>  <i_m_ct_stereo_status>  (244) 
1

>  <s_m_source_file>  (244) 
/var/tmp/pbs.5076255.sched01/tmpc36l9o9d/84wsylf1cs.sdf

>  <i_m_source_file_index>  (244) 
25

>  <i_lp_mmshare_version>  (244) 
48012

>  <i_f3d_flags>  (244) 
0

>  <s_epik_input>  (244) 
W0NIMl0xW0NIMl1bQ0BASF0oW0NIM10pW0NASF0oW0NIM10pW0NAQEhdKFtDQEBdMTJbQ0gzXSlDPTNbQ0BdKFtDSDNdKShbQ0gyXVtDSDJdMilbQ0BdNChbQ0gzXSlbQ0BIXShbQ0BASF0oW0NIXTMpW09IXSlbQ0BAXTUoW0NIM10pW0NAQEhdKFtDSDJdW0NIMl00KVtDQEBdNihbQ0gzXSlbQ0BIXShbQ0gyXTUpT0MoW0NIM10pKFtDSDNdKVtDSDJdNg==

>  <s_epik_cmdline>  (244) 
J2VwaWtfcHl0aG9uJywgJy1waHQnLCAnMi4wJywgJy1waCcsICc3LjAnLCAnLXRuJywgJzgnLCAnLW1hJywgJzIwMCcsICctaW1hZScsICc8aW5maWxlLm1hZT4nLCAnLW9tYWUnLCAnPG91dGZpbGUubWFlPic=

>  <r_lp_tautomer_probability>  (244) 
1

>  <r_epik_Ionization_Penalty>  (244) 
1.02358e-06

>  <r_epik_Ionization_Penalty_Charging>  (244) 
0

>  <r_epik_Ionization_Penalty_Neutral>  (244) 
1.02358e-06

>  <r_epik_State_Penalty>  (244) 
-0

>  <r_epik_Charging_Adjusted_Penalty>  (244) 
0

>  <i_epik_Tot_Q>  (244) 
0

>  <i_epik_Tot_abs_Q>  (244) 
0

>  <s_lp_Force_Field>  (244) 
OPLS3e

>  <r_lp_Energy>  (244) 
111.637

>  <b_lp_Chiralities_Consistent>  (244) 
1

>  <s_lp_Variant>  (244) 
77:0-1

>  <s_i_glide_gridfile>  (244) 
pfpi4k_grid

>  <i_i_glide_lignum>  (244) 
25

>  <i_i_glide_rotatable_bonds>  (244) 
1

>  <r_i_docking_score>  (244) 
-1.63532

>  <r_i_glide_ligand_efficiency>  (244) 
-0.0480978

>  <r_i_glide_ligand_efficiency_sa>  (244) 
-0.155818

>  <r_i_glide_ligand_efficiency_ln>  (244) 
-0.361289

>  <r_i_glide_gscore>  (244) 
-1.63532

>  <r_i_glide_lipo>  (244) 
-0.181602

>  <r_i_glide_hbond>  (244) 
0

>  <r_i_glide_metal>  (244) 
-0

>  <r_i_glide_rewards>  (244) 
-0.21304

>  <r_i_glide_evdw>  (244) 
-22.2867

>  <r_i_glide_ecoul>  (244) 
-0.842303

>  <r_i_glide_erotb>  (244) 
0

>  <r_i_glide_esite>  (244) 
0

>  <r_i_glide_emodel>  (244) 
-25.6558

>  <r_i_glide_energy>  (244) 
-23.129

>  <r_i_glide_einternal>  (244) 
0.348513

>  <r_i_glide_intrahb_reward>  (244) 
-0

>  <i_i_glide_confnum>  (244) 
2

>  <i_i_glide_posenum>  (244) 
22

>  <r_i_glide_eff_state_penalty>  (244) 
0

>  <ligand_id>  (244) 
77

>  <original_smiles>  (244) 
CC1CCC2(C)CCC3(C)C(=CC(O)C4C5(C)CC6OC(C)(C)CC6(C)C5CCC43C)C2C1C

>  <smiles>  (244) 
[H]OC1([H])C([H])=C2C3([H])C([H])(C([H])([H])[H])C([H])(C([H])([H])[H])C([H])([H])C([H])([H])C3(C([H])([H])[H])C([H])([H])C([H])([H])C2(C([H])([H])[H])C2(C([H])([H])[H])C([H])([H])C([H])([H])C3([H])C4(C([H])([H])[H])C([H])([H])C(C([H])([H])[H])(C([H])([H])[H])OC4([H])C([H])([H])C3(C([H])([H])[H])C12[H]

$$$$
78:0:0
     RDKit          3D

 74 78  0  0  1  0  0  0  0  0999 V2000
    1.3573   -4.5532    7.6163 C   0  0  0  0  0  0  0  0  0  0  0  0
    1.5260   -5.0329    6.1534 C   0  0  2  0  0  0  0  0  0  0  0  0
    2.3526   -6.3744    6.1836 C   0  0  2  0  0  0  0  0  0  0  0  0
    3.8521   -6.0214    6.1982 C   0  0  0  0  0  0  0  0  0  0  0  0
    4.2452   -5.3037    4.8915 C   0  0  1  0  0  0  0  0  0  0  0  0
    5.7957   -5.2034    4.8637 C   0  0  0  0  0  0  0  0  0  0  0  0
    3.7655   -6.1258    3.5968 C   0  0  1  0  0  0  0  0  0  0  0  0
    4.6911   -7.1064    3.1667 O   0  0  0  0  0  0  0  0  0  0  0  0
    2.3861   -6.8504    3.7168 C   0  0  1  0  0  0  0  0  0  0  0  0
    1.8922   -7.9060    2.7193 C   0  0  0  0  0  0  0  0  0  0  0  0
    0.5496   -8.3785    3.3531 C   0  0  0  0  0  0  0  0  0  0  0  0
   -0.6434   -7.6408    2.7105 C   0  0  0  0  0  0  0  0  0  0  0  0
    0.3398   -9.8933    3.1454 C   0  0  0  0  0  0  0  0  0  0  0  0
    0.6598   -7.9878    4.8655 C   0  0  0  0  0  0  0  0  0  0  0  0
    2.1027   -7.4629    5.0829 C   0  0  2  0  0  0  0  0  0  0  0  0
    2.9840   -8.7210    5.3778 C   0  0  0  0  0  0  0  0  0  0  0  0
    3.5891   -3.8592    4.9589 C   0  0  2  0  0  0  0  0  0  0  0  0
    4.1202   -2.8201    6.0174 C   0  0  1  0  0  0  0  0  0  0  0  0
    5.5362   -2.6662    6.0607 O   0  0  0  0  0  0  0  0  0  0  0  0
    6.2363   -2.4750    7.5898 S   0  0  0  0  0  0  0  0  0  0  0  0
    7.6542   -2.2549    7.2811 O   0  0  0  0  0  0  0  0  0  0  0  0
    5.5459   -1.3076    8.1657 O   0  0  0  0  0  0  0  0  0  0  0  0
    5.9407   -3.7499    8.2650 O   0  0  0  0  0  0  0  0  0  0  0  0
    3.5592   -1.3973    5.7534 C   0  0  1  0  0  0  0  0  0  0  0  0
    4.0555   -0.9481    4.5060 O   0  0  0  0  0  0  0  0  0  0  0  0
    2.0035   -1.3494    5.8030 C   0  0  1  0  0  0  0  0  0  0  0  0
    1.5525   -1.1015    7.2595 C   0  0  0  0  0  0  0  0  0  0  0  0
    1.5702   -0.1934    5.0850 O   0  0  0  0  0  0  0  0  0  0  0  0
    1.0260   -0.4431    3.8926 C   0  0  0  0  0  0  0  0  0  0  0  0
    0.5824    0.3870    3.1061 O   0  0  0  0  0  0  0  0  0  0  0  0
    1.0157   -1.9407    3.6341 C   0  0  1  0  0  0  0  0  0  0  0  0
    1.9406   -2.2746    2.4423 C   0  0  0  0  0  0  0  0  0  0  0  0
    1.3006   -2.5319    5.0484 C   0  0  2  0  0  0  0  0  0  0  0  0
   -0.0204   -2.7280    5.5459 O   0  0  0  0  0  0  0  0  0  0  0  0
    2.0302   -3.9336    5.1065 C   0  0  2  0  0  0  0  0  0  0  0  0
    2.2991   -4.2782    8.0874 H   0  0  0  0  0  0  0  0  0  0  0  0
    0.9257   -5.3436    8.2321 H   0  0  0  0  0  0  0  0  0  0  0  0
    0.6701   -3.7180    7.7110 H   0  0  0  0  0  0  0  0  0  0  0  0
    0.5129   -5.2885    5.8510 H   0  0  0  0  0  0  0  0  0  0  0  0
    2.1302   -6.8798    7.1229 H   0  0  0  0  0  0  0  0  0  0  0  0
    4.0786   -5.3976    7.0621 H   0  0  0  0  0  0  0  0  0  0  0  0
    4.4777   -6.8964    6.3613 H   0  0  0  0  0  0  0  0  0  0  0  0
    6.1311   -4.4900    4.1129 H   0  0  0  0  0  0  0  0  0  0  0  0
    6.2911   -6.1537    4.6627 H   0  0  0  0  0  0  0  0  0  0  0  0
    6.2013   -4.9062    5.8291 H   0  0  0  0  0  0  0  0  0  0  0  0
    3.7050   -5.4286    2.7603 H   0  0  0  0  0  0  0  0  0  0  0  0
    4.3370   -7.5228    2.3951 H   0  0  0  0  0  0  0  0  0  0  0  0
    1.6325   -6.1052    3.5395 H   0  0  0  0  0  0  0  0  0  0  0  0
    1.7630   -7.5017    1.7153 H   0  0  0  0  0  0  0  0  0  0  0  0
    2.5991   -8.7337    2.6448 H   0  0  0  0  0  0  0  0  0  0  0  0
   -1.5862   -7.9291    3.1792 H   0  0  0  0  0  0  0  0  0  0  0  0
   -0.7238   -7.8681    1.6465 H   0  0  0  0  0  0  0  0  0  0  0  0
   -0.5438   -6.5615    2.8119 H   0  0  0  0  0  0  0  0  0  0  0  0
   -0.5852  -10.2348    3.6072 H   0  0  0  0  0  0  0  0  0  0  0  0
    1.1460  -10.4915    3.5675 H   0  0  0  0  0  0  0  0  0  0  0  0
    0.2847  -10.1392    2.0837 H   0  0  0  0  0  0  0  0  0  0  0  0
   -0.0725   -7.2188    5.1057 H   0  0  0  0  0  0  0  0  0  0  0  0
    0.4290   -8.8251    5.5254 H   0  0  0  0  0  0  0  0  0  0  0  0
    2.6956   -9.5918    4.7954 H   0  0  0  0  0  0  0  0  0  0  0  0
    2.9127   -9.0205    6.4235 H   0  0  0  0  0  0  0  0  0  0  0  0
    4.0383   -8.5736    5.1544 H   0  0  0  0  0  0  0  0  0  0  0  0
    3.8202   -3.4246    3.9904 H   0  0  0  0  0  0  0  0  0  0  0  0
    3.7936   -3.1272    7.0082 H   0  0  0  0  0  0  0  0  0  0  0  0
    3.9443   -0.6868    6.4829 H   0  0  0  0  0  0  0  0  0  0  0  0
    3.7844   -0.0468    4.3973 H   0  0  0  0  0  0  0  0  0  0  0  0
    1.9169   -1.8686    7.9399 H   0  0  0  0  0  0  0  0  0  0  0  0
    0.4699   -1.0282    7.3581 H   0  0  0  0  0  0  0  0  0  0  0  0
    1.9578   -0.1528    7.6174 H   0  0  0  0  0  0  0  0  0  0  0  0
    0.0090   -2.2118    3.3174 H   0  0  0  0  0  0  0  0  0  0  0  0
    1.5641   -1.8001    1.5327 H   0  0  0  0  0  0  0  0  0  0  0  0
    1.9745   -3.3434    2.2334 H   0  0  0  0  0  0  0  0  0  0  0  0
    2.9622   -1.9206    2.5585 H   0  0  0  0  0  0  0  0  0  0  0  0
   -0.4957   -1.9167    5.4514 H   0  0  0  0  0  0  0  0  0  0  0  0
    1.6820   -4.3022    4.1627 H   0  0  0  0  0  0  0  0  0  0  0  0
  1  2  1  0
  1 36  1  0
  1 37  1  0
  1 38  1  0
  2 35  1  0
  2  3  1  0
  2 39  1  6
  3 15  1  0
  3  4  1  0
  3 40  1  1
  4  5  1  0
  4 41  1  0
  4 42  1  0
  5  6  1  6
  5  7  1  0
  5 17  1  0
  6 43  1  0
  6 44  1  0
  6 45  1  0
  7  8  1  0
  7  9  1  0
  7 46  1  6
  8 47  1  0
  9 15  1  0
  9 10  1  0
  9 48  1  1
 10 11  1  0
 10 49  1  0
 10 50  1  0
 11 12  1  0
 11 13  1  0
 11 14  1  0
 12 51  1  0
 12 52  1  0
 12 53  1  0
 13 54  1  0
 13 55  1  0
 13 56  1  0
 14 15  1  0
 14 57  1  0
 14 58  1  0
 15 16  1  1
 16 59  1  0
 16 60  1  0
 16 61  1  0
 17 35  1  0
 17 18  1  0
 17 62  1  6
 18 19  1  0
 18 24  1  0
 18 63  1  1
 19 20  1  0
 20 21  2  0
 20 22  2  0
 20 23  1  0
 24 25  1  0
 24 26  1  0
 24 64  1  1
 25 65  1  0
 26 33  1  0
 26 27  1  1
 26 28  1  0
 27 66  1  0
 27 67  1  0
 27 68  1  0
 28 29  1  0
 29 30  2  0
 29 31  1  0
 31 32  1  0
 31 33  1  0
 31 69  1  6
 32 70  1  0
 32 71  1  0
 32 72  1  0
 33 34  1  1
 33 35  1  0
 34 73  1  0
 35 74  1  6
M  CHG  1  23  -1
M  END
>  <i_m_ct_stereo_status>  (245) 
1

>  <s_m_source_file>  (245) 
/var/tmp/pbs.5076255.sched01/tmpc36l9o9d/84wsylf1cs.sdf

>  <i_m_source_file_index>  (245) 
26

>  <i_lp_mmshare_version>  (245) 
48012

>  <i_f3d_flags>  (245) 
0

>  <s_epik_input>  (245) 
W0NIM11DKFtDSDNdKShbQ0gyXTEpW0NIMl1bQ0BIXShbQ0BASF0yW09IXSlbQ0BAXTEoW0NIM10pW0NAQEhdKFtDSDJdMylbQ0BASF0oW0NIM10pW0NASF0oW0NAQEhdNFtDQF0yM1tDSDNdKVtDQEBdNShbT0hdKVtDQF0oW0NIM10pKE9DKD1PKVtDQEhdNVtDSDNdKVtDQEhdKFtPSF0pW0NAQEhdNE9TKD1PKSg9TylbT0hd

>  <s_epik_cmdline>  (245) 
J2VwaWtfcHl0aG9uJywgJy1waHQnLCAnMi4wJywgJy1waCcsICc3LjAnLCAnLXRuJywgJzgnLCAnLW1hJywgJzIwMCcsICctaW1hZScsICc8aW5maWxlLm1hZT4nLCAnLW9tYWUnLCAnPG91dGZpbGUubWFlPic=

>  <r_lp_tautomer_probability>  (245) 
1

>  <r_epik_Ionization_Penalty>  (245) 
2.76156e-06

>  <r_epik_Ionization_Penalty_Charging>  (245) 
1.59716e-10

>  <r_epik_Ionization_Penalty_Neutral>  (245) 
2.7614e-06

>  <r_epik_State_Penalty>  (245) 
-0

>  <r_epik_Charging_Adjusted_Penalty>  (245) 
1.59716e-10

>  <i_epik_Tot_Q>  (245) 
-1

>  <i_epik_Tot_abs_Q>  (245) 
1

>  <s_epik_Chemistry_Notes>  (245) 
This compound has an ester and may undergo hydrolysis at high or low pH.

>  <s_lp_Force_Field>  (245) 
OPLS3e

>  <r_lp_Energy>  (245) 
75.911

>  <b_lp_Chiralities_Consistent>  (245) 
1

>  <s_lp_Variant>  (245) 
78:0-1

>  <s_i_glide_gridfile>  (245) 
pfpi4k_grid

>  <i_i_glide_lignum>  (245) 
26

>  <i_i_glide_rotatable_bonds>  (245) 
5

>  <r_i_docking_score>  (245) 
-1.13461

>  <r_i_glide_ligand_efficiency>  (245) 
-0.0324175

>  <r_i_glide_ligand_efficiency_sa>  (245) 
-0.10604

>  <r_i_glide_ligand_efficiency_ln>  (245) 
-0.249073

>  <r_i_glide_gscore>  (245) 
-1.13461

>  <r_i_glide_lipo>  (245) 
-0.0234221

>  <r_i_glide_hbond>  (245) 
0

>  <r_i_glide_metal>  (245) 
-0

>  <r_i_glide_rewards>  (245) 
-0.00818776

>  <r_i_glide_evdw>  (245) 
-22.582

>  <r_i_glide_ecoul>  (245) 
-0.295349

>  <r_i_glide_erotb>  (245) 
0.0771785

>  <r_i_glide_esite>  (245) 
-0.00678067

>  <r_i_glide_emodel>  (245) 
-23.9099

>  <r_i_glide_energy>  (245) 
-22.8773

>  <r_i_glide_einternal>  (245) 
0.84831

>  <r_i_glide_intrahb_reward>  (245) 
-0

>  <i_i_glide_confnum>  (245) 
4

>  <i_i_glide_posenum>  (245) 
5

>  <r_i_glide_eff_state_penalty>  (245) 
0

>  <ligand_id>  (245) 
78

>  <original_smiles>  (245) 
CC1C2CC(C)(C(O)C3CC(C)(C)CC23C)C2C(OS(=O)(=O)O)C(O)C3(C)OC(=O)C(C)C3(O)C12

>  <smiles>  (245) 
[H]OC1([H])C([H])(OS(=O)(=O)[O-])C2([H])C([H])(C([H])(C([H])([H])[H])C3([H])C([H])([H])C2(C([H])([H])[H])C([H])(O[H])C2([H])C([H])([H])C(C([H])([H])[H])(C([H])([H])[H])C([H])([H])C23C([H])([H])[H])C2(O[H])C([H])(C([H])([H])[H])C(=O)OC12C([H])([H])[H]

$$$$
79:0:0
     RDKit          3D

 67 71  0  0  1  0  0  0  0  0999 V2000
    1.7894    6.2563    4.0145 C   0  0  0  0  0  0  0  0  0  0  0  0
    1.2478    5.6236    5.1660 O   0  0  0  0  0  0  0  0  0  0  0  0
    0.5769    4.3981    4.8977 C   0  0  2  0  0  0  0  0  0  0  0  0
   -0.8522    4.6370    4.3818 C   0  0  0  0  0  0  0  0  0  0  0  0
   -1.6491    3.3226    4.1719 C   0  0  1  0  0  0  0  0  0  0  0  0
   -1.9267    3.0637    2.6774 C   0  0  0  0  0  0  0  0  0  0  0  0
   -0.9381    2.0931    4.7847 C   0  0  0  0  0  0  0  0  0  0  0  0
   -0.3318    2.3446    6.1780 C   0  0  1  0  0  0  0  0  0  0  0  0
   -1.0564    1.5387    7.2309 C   0  0  0  0  0  0  0  0  0  0  0  0
   -0.8915    0.1439    6.9418 O   0  0  0  0  0  0  0  0  0  0  0  0
    0.4386   -0.4135    6.9140 C   0  0  0  0  0  0  0  0  0  0  0  0
    1.3145   -0.0553    5.6552 C   0  0  1  0  0  0  0  0  0  0  0  0
    1.8933    1.3804    5.6795 C   0  0  0  0  0  0  0  0  0  0  0  0
    3.0212    1.7217    5.0373 C   0  0  0  0  0  0  0  0  0  0  0  0
    3.8754    0.7688    4.2355 C   0  0  0  0  0  0  0  0  0  0  0  0
    3.2442   -0.6303    4.0210 C   0  0  2  0  0  0  0  0  0  0  0  0
    2.5801   -0.8167    2.6035 C   0  0  0  0  0  0  0  0  0  0  0  0
    1.4937    0.2341    2.2656 C   0  0  0  0  0  0  0  0  0  0  0  0
    3.6646   -0.7344    1.5002 C   0  0  0  0  0  0  0  0  0  0  0  0
    1.9725   -2.2330    2.4829 C   0  0  0  0  0  0  0  0  0  0  0  0
    1.0759   -2.6206    3.6613 C   0  0  0  0  0  0  0  0  0  0  0  0
    1.8626   -2.5273    4.9684 C   0  0  0  0  0  0  0  0  0  0  0  0
    2.4185   -1.1068    5.2735 C   0  0  2  0  0  0  0  0  0  0  0  0
    3.3788   -1.2745    6.4781 C   0  0  0  0  0  0  0  0  0  0  0  0
    1.1672    2.3537    6.5284 C   0  0  2  0  0  0  0  0  0  0  0  0
    1.7802    2.4610    7.9265 C   0  0  0  0  0  0  0  0  0  0  0  0
    0.4501    3.6399    6.2061 C   0  0  1  0  0  0  0  0  0  0  0  0
    2.3810    7.1187    4.3187 H   0  0  0  0  0  0  0  0  0  0  0  0
    1.0108    6.6070    3.3409 H   0  0  0  0  0  0  0  0  0  0  0  0
    2.4474    5.5866    3.4607 H   0  0  0  0  0  0  0  0  0  0  0  0
    1.1489    3.8091    4.1769 H   0  0  0  0  0  0  0  0  0  0  0  0
   -1.3702    5.2385    5.1314 H   0  0  0  0  0  0  0  0  0  0  0  0
   -0.8315    5.2356    3.4709 H   0  0  0  0  0  0  0  0  0  0  0  0
   -2.6198    3.4341    4.6543 H   0  0  0  0  0  0  0  0  0  0  0  0
   -0.9992    2.9430    2.1130 H   0  0  0  0  0  0  0  0  0  0  0  0
   -2.4849    3.8858    2.2226 H   0  0  0  0  0  0  0  0  0  0  0  0
   -2.5140    2.1526    2.5375 H   0  0  0  0  0  0  0  0  0  0  0  0
   -1.6135    1.2363    4.8026 H   0  0  0  0  0  0  0  0  0  0  0  0
   -0.1366    1.8306    4.0999 H   0  0  0  0  0  0  0  0  0  0  0  0
   -0.7045    1.7629    8.2338 H   0  0  0  0  0  0  0  0  0  0  0  0
   -2.1164    1.7899    7.2156 H   0  0  0  0  0  0  0  0  0  0  0  0
    0.9576   -0.2547    7.8566 H   0  0  0  0  0  0  0  0  0  0  0  0
    0.2424   -1.4821    6.9088 H   0  0  0  0  0  0  0  0  0  0  0  0
    0.5968   -0.0764    4.8469 H   0  0  0  0  0  0  0  0  0  0  0  0
    3.3942    2.7306    5.1261 H   0  0  0  0  0  0  0  0  0  0  0  0
    4.1191    1.2565    3.2951 H   0  0  0  0  0  0  0  0  0  0  0  0
    4.8101    0.6569    4.7851 H   0  0  0  0  0  0  0  0  0  0  0  0
    4.0974   -1.3045    3.9838 H   0  0  0  0  0  0  0  0  0  0  0  0
    1.2887    0.2544    1.1950 H   0  0  0  0  0  0  0  0  0  0  0  0
    1.7927    1.2442    2.5436 H   0  0  0  0  0  0  0  0  0  0  0  0
    0.5400    0.0187    2.7399 H   0  0  0  0  0  0  0  0  0  0  0  0
    3.2554   -1.0163    0.5281 H   0  0  0  0  0  0  0  0  0  0  0  0
    4.4953   -1.4135    1.7048 H   0  0  0  0  0  0  0  0  0  0  0  0
    4.0763    0.2674    1.3820 H   0  0  0  0  0  0  0  0  0  0  0  0
    1.4145   -2.3007    1.5519 H   0  0  0  0  0  0  0  0  0  0  0  0
    2.7726   -2.9709    2.4054 H   0  0  0  0  0  0  0  0  0  0  0  0
    0.1790   -2.0055    3.6959 H   0  0  0  0  0  0  0  0  0  0  0  0
    0.7289   -3.6439    3.5221 H   0  0  0  0  0  0  0  0  0  0  0  0
    1.2715   -2.9290    5.7893 H   0  0  0  0  0  0  0  0  0  0  0  0
    2.7084   -3.2121    4.8794 H   0  0  0  0  0  0  0  0  0  0  0  0
    4.2262   -1.9122    6.2285 H   0  0  0  0  0  0  0  0  0  0  0  0
    2.8751   -1.7325    7.3290 H   0  0  0  0  0  0  0  0  0  0  0  0
    3.7850   -0.3232    6.8221 H   0  0  0  0  0  0  0  0  0  0  0  0
    1.1242    2.9826    8.6206 H   0  0  0  0  0  0  0  0  0  0  0  0
    2.7089    3.0255    7.8679 H   0  0  0  0  0  0  0  0  0  0  0  0
    2.0206    1.4906    8.3515 H   0  0  0  0  0  0  0  0  0  0  0  0
    0.1727    4.2890    7.0377 H   0  0  0  0  0  0  0  0  0  0  0  0
  1  2  1  0
  1 28  1  0
  1 29  1  0
  1 30  1  0
  2  3  1  0
  3 27  1  0
  3  4  1  0
  3 31  1  6
  4  5  1  0
  4 32  1  0
  4 33  1  0
  5  6  1  0
  5  7  1  0
  5 34  1  1
  6 35  1  0
  6 36  1  0
  6 37  1  0
  8  7  1  6
  7 38  1  0
  7 39  1  0
  8 25  1  0
  8 27  1  0
  8  9  1  0
  9 10  1  0
  9 40  1  0
  9 41  1  0
 10 11  1  0
 11 12  1  0
 11 42  1  0
 11 43  1  0
 12 23  1  0
 12 13  1  0
 12 44  1  6
 13 14  2  0
 13 25  1  0
 14 15  1  0
 14 45  1  0
 15 16  1  0
 15 46  1  0
 15 47  1  0
 16 23  1  0
 16 17  1  0
 16 48  1  6
 17 18  1  0
 17 19  1  0
 17 20  1  0
 18 49  1  0
 18 50  1  0
 18 51  1  0
 19 52  1  0
 19 53  1  0
 19 54  1  0
 20 21  1  0
 20 55  1  0
 20 56  1  0
 21 22  1  0
 21 57  1  0
 21 58  1  0
 22 23  1  0
 22 59  1  0
 22 60  1  0
 23 24  1  1
 24 61  1  0
 24 62  1  0
 24 63  1  0
 25 26  1  1
 25 27  1  0
 26 64  1  0
 26 65  1  0
 26 66  1  0
 27 67  1  1
M  END
>  <i_m_ct_stereo_status>  (246) 
1

>  <s_m_source_file>  (246) 
/var/tmp/pbs.5076255.sched01/tmpc36l9o9d/84wsylf1cs.sdf

>  <i_m_source_file_index>  (246) 
27

>  <i_lp_mmshare_version>  (246) 
48012

>  <i_f3d_flags>  (246) 
0

>  <s_epik_input>  (246) 
W0NIM11bQ0BASF0oW0NIMl0xKVtDSDJdW0NAQEhdKE9bQ0gzXSlbQ0BASF0yW0NAXShbQ0BdMTIzKShbQ0gzXSlDPTRbQ0BIXShbQ0gyXU9bQ0gyXTMpW0NAXTUoW0NIM10pW0NASF0oW0NIMl1bQ0hdNClDKFtDSDNdKShbQ0gzXSlbQ0gyXVtDSDJdW0NIMl01

>  <s_epik_cmdline>  (246) 
J2VwaWtfcHl0aG9uJywgJy1waHQnLCAnMi4wJywgJy1waCcsICc3LjAnLCAnLXRuJywgJzgnLCAnLW1hJywgJzIwMCcsICctaW1hZScsICc8aW5maWxlLm1hZT4nLCAnLW9tYWUnLCAnPG91dGZpbGUubWFlPic=

>  <r_lp_tautomer_probability>  (246) 
1

>  <r_epik_Ionization_Penalty>  (246) 
8.6678e-11

>  <r_epik_Ionization_Penalty_Charging>  (246) 
0

>  <r_epik_Ionization_Penalty_Neutral>  (246) 
8.6678e-11

>  <r_epik_State_Penalty>  (246) 
-0

>  <r_epik_Charging_Adjusted_Penalty>  (246) 
0

>  <i_epik_Tot_Q>  (246) 
0

>  <i_epik_Tot_abs_Q>  (246) 
0

>  <s_lp_Force_Field>  (246) 
OPLS3e

>  <r_lp_Energy>  (246) 
78.3789

>  <b_lp_Chiralities_Consistent>  (246) 
1

>  <s_lp_Variant>  (246) 
79:0-1

>  <s_i_glide_gridfile>  (246) 
pfpi4k_grid

>  <i_i_glide_lignum>  (246) 
27

>  <i_i_glide_rotatable_bonds>  (246) 
1

>  <r_i_docking_score>  (246) 
-2.22215

>  <r_i_glide_ligand_efficiency>  (246) 
-0.0823018

>  <r_i_glide_ligand_efficiency_sa>  (246) 
-0.246905

>  <r_i_glide_ligand_efficiency_ln>  (246) 
-0.51728

>  <r_i_glide_gscore>  (246) 
-2.22215

>  <r_i_glide_lipo>  (246) 
-0.0522205

>  <r_i_glide_hbond>  (246) 
-0.112045

>  <r_i_glide_metal>  (246) 
-0

>  <r_i_glide_rewards>  (246) 
-0.868746

>  <r_i_glide_evdw>  (246) 
-15.9209

>  <r_i_glide_ecoul>  (246) 
-2.6206

>  <r_i_glide_erotb>  (246) 
0

>  <r_i_glide_esite>  (246) 
0

>  <r_i_glide_emodel>  (246) 
-21.1588

>  <r_i_glide_energy>  (246) 
-18.5415

>  <r_i_glide_einternal>  (246) 
0.0555095

>  <r_i_glide_intrahb_reward>  (246) 
-0

>  <i_i_glide_confnum>  (246) 
2

>  <i_i_glide_posenum>  (246) 
10

>  <r_i_glide_eff_state_penalty>  (246) 
0

>  <ligand_id>  (246) 
79

>  <original_smiles>  (246) 
COC1CC(C)CC23COCC4C(=CCC5C(C)(C)CCCC45C)C2(C)C13

>  <smiles>  (246) 
[H]C1=C2C([H])(C([H])([H])OC([H])([H])C34C([H])([H])C([H])(C([H])([H])[H])C([H])([H])C([H])(OC([H])([H])[H])C3([H])C24C([H])([H])[H])C2(C([H])([H])[H])C([H])([H])C([H])([H])C([H])([H])C(C([H])([H])[H])(C([H])([H])[H])C2([H])C1([H])[H]

$$$$
79:0:1
     RDKit          3D

 67 71  0  0  1  0  0  0  0  0999 V2000
    1.0817    5.7820    5.8516 C   0  0  0  0  0  0  0  0  0  0  0  0
    1.8001    4.7479    5.1879 O   0  0  0  0  0  0  0  0  0  0  0  0
    1.0993    3.5276    4.9187 C   0  0  2  0  0  0  0  0  0  0  0  0
   -0.3197    3.7356    4.3531 C   0  0  0  0  0  0  0  0  0  0  0  0
   -1.0603    2.4162    4.0279 C   0  0  1  0  0  0  0  0  0  0  0  0
   -1.3011    2.2752    2.5128 C   0  0  0  0  0  0  0  0  0  0  0  0
   -0.3264    1.1722    4.5826 C   0  0  0  0  0  0  0  0  0  0  0  0
    0.2457    1.3454    6.0034 C   0  0  1  0  0  0  0  0  0  0  0  0
   -0.4853    0.4616    6.9867 C   0  0  0  0  0  0  0  0  0  0  0  0
   -0.2906   -0.9088    6.6164 O   0  0  0  0  0  0  0  0  0  0  0  0
    1.0476   -1.4403    6.5627 C   0  0  0  0  0  0  0  0  0  0  0  0
    1.9379   -0.9792    5.3457 C   0  0  1  0  0  0  0  0  0  0  0  0
    2.4929    0.4611    5.4765 C   0  0  0  0  0  0  0  0  0  0  0  0
    3.6257    0.8623    4.8798 C   0  0  0  0  0  0  0  0  0  0  0  0
    4.5126   -0.0166    4.0297 C   0  0  0  0  0  0  0  0  0  0  0  0
    3.9069   -1.4098    3.7066 C   0  0  2  0  0  0  0  0  0  0  0  0
    3.2696   -1.5086    2.2656 C   0  0  0  0  0  0  0  0  0  0  0  0
    2.1779   -0.4491    1.9843 C   0  0  0  0  0  0  0  0  0  0  0  0
    4.3745   -1.3340    1.1957 C   0  0  0  0  0  0  0  0  0  0  0  0
    2.6833   -2.9230    2.0384 C   0  0  0  0  0  0  0  0  0  0  0  0
    1.7770   -3.4038    3.1731 C   0  0  0  0  0  0  0  0  0  0  0  0
    2.5417   -3.3891    4.4956 C   0  0  0  0  0  0  0  0  0  0  0  0
    3.0671   -1.9845    4.9099 C   0  0  2  0  0  0  0  0  0  0  0  0
    4.0104   -2.2205    6.1171 C   0  0  0  0  0  0  0  0  0  0  0  0
    1.7367    1.3593    6.3824 C   0  0  2  0  0  0  0  0  0  0  0  0
    2.3299    1.3737    7.7947 C   0  0  0  0  0  0  0  0  0  0  0  0
    0.9845    2.6534    6.1622 C   0  0  1  0  0  0  0  0  0  0  0  0
    1.7546    6.6102    6.0746 H   0  0  0  0  0  0  0  0  0  0  0  0
    0.6592    5.4383    6.7929 H   0  0  0  0  0  0  0  0  0  0  0  0
    0.2818    6.1813    5.2280 H   0  0  0  0  0  0  0  0  0  0  0  0
    1.7007    3.0056    4.1747 H   0  0  0  0  0  0  0  0  0  0  0  0
   -0.9299    4.2504    5.0957 H   0  0  0  0  0  0  0  0  0  0  0  0
   -0.2714    4.3904    3.4823 H   0  0  0  0  0  0  0  0  0  0  0  0
   -2.0409    2.4698    4.4994 H   0  0  0  0  0  0  0  0  0  0  0  0
   -0.3610    2.2230    1.9648 H   0  0  0  0  0  0  0  0  0  0  0  0
   -1.8655    3.1219    2.1089 H   0  0  0  0  0  0  0  0  0  0  0  0
   -1.8643    1.3698    2.2921 H   0  0  0  0  0  0  0  0  0  0  0  0
   -0.9849    0.3044    4.5259 H   0  0  0  0  0  0  0  0  0  0  0  0
    0.4911    0.9746    3.8915 H   0  0  0  0  0  0  0  0  0  0  0  0
   -0.1576    0.6280    8.0050 H   0  0  0  0  0  0  0  0  0  0  0  0
   -1.5470    0.7034    6.9592 H   0  0  0  0  0  0  0  0  0  0  0  0
    1.5514   -1.3393    7.5183 H   0  0  0  0  0  0  0  0  0  0  0  0
    0.8685   -2.5093    6.4792 H   0  0  0  0  0  0  0  0  0  0  0  0
    1.2359   -0.9583    4.5217 H   0  0  0  0  0  0  0  0  0  0  0  0
    3.9801    1.8690    5.0468 H   0  0  0  0  0  0  0  0  0  0  0  0
    4.7695    0.5420    3.1314 H   0  0  0  0  0  0  0  0  0  0  0  0
    5.4410   -0.1548    4.5890 H   0  0  0  0  0  0  0  0  0  0  0  0
    4.7730   -2.0669    3.6404 H   0  0  0  0  0  0  0  0  0  0  0  0
    2.0038   -0.3462    0.9127 H   0  0  0  0  0  0  0  0  0  0  0  0
    2.4539    0.5423    2.3425 H   0  0  0  0  0  0  0  0  0  0  0  0
    1.2167   -0.7093    2.4160 H   0  0  0  0  0  0  0  0  0  0  0  0
    3.9890   -1.5525    0.1973 H   0  0  0  0  0  0  0  0  0  0  0  0
    5.2111   -2.0111    1.3691 H   0  0  0  0  0  0  0  0  0  0  0  0
    4.7707   -0.3187    1.1551 H   0  0  0  0  0  0  0  0  0  0  0  0
    2.1418   -2.9490    1.0932 H   0  0  0  0  0  0  0  0  0  0  0  0
    3.4978   -3.6404    1.9264 H   0  0  0  0  0  0  0  0  0  0  0  0
    0.8699   -2.8045    3.2350 H   0  0  0  0  0  0  0  0  0  0  0  0
    1.4507   -4.4199    2.9581 H   0  0  0  0  0  0  0  0  0  0  0  0
    1.9413   -3.8530    5.2752 H   0  0  0  0  0  0  0  0  0  0  0  0
    3.3977   -4.0548    4.3790 H   0  0  0  0  0  0  0  0  0  0  0  0
    4.8725   -2.8265    5.8398 H   0  0  0  0  0  0  0  0  0  0  0  0
    3.4999   -2.7437    6.9263 H   0  0  0  0  0  0  0  0  0  0  0  0
    4.3947   -1.2890    6.5341 H   0  0  0  0  0  0  0  0  0  0  0  0
    1.6537    1.8329    8.5116 H   0  0  0  0  0  0  0  0  0  0  0  0
    3.2467    1.9602    7.7895 H   0  0  0  0  0  0  0  0  0  0  0  0
    2.5818    0.3809    8.1557 H   0  0  0  0  0  0  0  0  0  0  0  0
    0.6798    3.2052    7.0416 H   0  0  0  0  0  0  0  0  0  0  0  0
  1  2  1  0
  1 28  1  0
  1 29  1  0
  1 30  1  0
  2  3  1  0
  3 27  1  0
  3  4  1  0
  3 31  1  6
  4  5  1  0
  4 32  1  0
  4 33  1  0
  5  6  1  0
  5  7  1  0
  5 34  1  1
  6 35  1  0
  6 36  1  0
  6 37  1  0
  8  7  1  6
  7 38  1  0
  7 39  1  0
  8 25  1  0
  8 27  1  0
  8  9  1  0
  9 10  1  0
  9 40  1  0
  9 41  1  0
 10 11  1  0
 11 12  1  0
 11 42  1  0
 11 43  1  0
 12 23  1  0
 12 13  1  0
 12 44  1  6
 13 14  2  0
 13 25  1  0
 14 15  1  0
 14 45  1  0
 15 16  1  0
 15 46  1  0
 15 47  1  0
 16 23  1  0
 16 17  1  0
 16 48  1  6
 17 18  1  0
 17 19  1  0
 17 20  1  0
 18 49  1  0
 18 50  1  0
 18 51  1  0
 19 52  1  0
 19 53  1  0
 19 54  1  0
 20 21  1  0
 20 55  1  0
 20 56  1  0
 21 22  1  0
 21 57  1  0
 21 58  1  0
 22 23  1  0
 22 59  1  0
 22 60  1  0
 23 24  1  1
 24 61  1  0
 24 62  1  0
 24 63  1  0
 25 26  1  1
 25 27  1  0
 26 64  1  0
 26 65  1  0
 26 66  1  0
 27 67  1  1
M  END
>  <i_m_ct_stereo_status>  (247) 
1

>  <s_m_source_file>  (247) 
/var/tmp/pbs.5076255.sched01/tmpc36l9o9d/84wsylf1cs.sdf

>  <i_m_source_file_index>  (247) 
27

>  <i_lp_mmshare_version>  (247) 
48012

>  <i_f3d_flags>  (247) 
0

>  <s_epik_input>  (247) 
W0NIM11bQ0BASF0oW0NIMl0xKVtDSDJdW0NAQEhdKE9bQ0gzXSlbQ0BASF0yW0NAXShbQ0BdMTIzKShbQ0gzXSlDPTRbQ0BIXShbQ0gyXU9bQ0gyXTMpW0NAXTUoW0NIM10pW0NASF0oW0NIMl1bQ0hdNClDKFtDSDNdKShbQ0gzXSlbQ0gyXVtDSDJdW0NIMl01

>  <s_epik_cmdline>  (247) 
J2VwaWtfcHl0aG9uJywgJy1waHQnLCAnMi4wJywgJy1waCcsICc3LjAnLCAnLXRuJywgJzgnLCAnLW1hJywgJzIwMCcsICctaW1hZScsICc8aW5maWxlLm1hZT4nLCAnLW9tYWUnLCAnPG91dGZpbGUubWFlPic=

>  <r_lp_tautomer_probability>  (247) 
1

>  <r_epik_Ionization_Penalty>  (247) 
8.6678e-11

>  <r_epik_Ionization_Penalty_Charging>  (247) 
0

>  <r_epik_Ionization_Penalty_Neutral>  (247) 
8.6678e-11

>  <r_epik_State_Penalty>  (247) 
-0

>  <r_epik_Charging_Adjusted_Penalty>  (247) 
0

>  <i_epik_Tot_Q>  (247) 
0

>  <i_epik_Tot_abs_Q>  (247) 
0

>  <s_lp_Force_Field>  (247) 
OPLS3e

>  <r_lp_Energy>  (247) 
78.3789

>  <b_lp_Chiralities_Consistent>  (247) 
1

>  <s_lp_Variant>  (247) 
79:0-1

>  <s_i_glide_gridfile>  (247) 
pfpi4k_grid

>  <i_i_glide_lignum>  (247) 
27

>  <i_i_glide_rotatable_bonds>  (247) 
1

>  <r_i_docking_score>  (247) 
-1.73495

>  <r_i_glide_ligand_efficiency>  (247) 
-0.0642575

>  <r_i_glide_ligand_efficiency_sa>  (247) 
-0.192773

>  <r_i_glide_ligand_efficiency_ln>  (247) 
-0.403868

>  <r_i_glide_gscore>  (247) 
-1.73495

>  <r_i_glide_lipo>  (247) 
-0.0545233

>  <r_i_glide_hbond>  (247) 
0

>  <r_i_glide_metal>  (247) 
-0

>  <r_i_glide_rewards>  (247) 
-0.868746

>  <r_i_glide_evdw>  (247) 
-14.5228

>  <r_i_glide_ecoul>  (247) 
-0.570294

>  <r_i_glide_erotb>  (247) 
0

>  <r_i_glide_esite>  (247) 
0

>  <r_i_glide_emodel>  (247) 
-15.3798

>  <r_i_glide_energy>  (247) 
-15.0931

>  <r_i_glide_einternal>  (247) 
3.437

>  <r_i_glide_intrahb_reward>  (247) 
-0

>  <i_i_glide_confnum>  (247) 
1

>  <i_i_glide_posenum>  (247) 
32

>  <r_i_glide_eff_state_penalty>  (247) 
0

>  <ligand_id>  (247) 
79

>  <original_smiles>  (247) 
COC1CC(C)CC23COCC4C(=CCC5C(C)(C)CCCC45C)C2(C)C13

>  <smiles>  (247) 
[H]C1=C2C([H])(C([H])([H])OC([H])([H])C34C([H])([H])C([H])(C([H])([H])[H])C([H])([H])C([H])(OC([H])([H])[H])C3([H])C24C([H])([H])[H])C2(C([H])([H])[H])C([H])([H])C([H])([H])C([H])([H])C(C([H])([H])[H])(C([H])([H])[H])C2([H])C1([H])[H]

$$$$
80:0:0
     RDKit          3D

 58 61  0  0  1  0  0  0  0  0999 V2000
    3.3810   -0.8831   -2.4651 C   0  0  0  0  0  0  0  0  0  0  0  0
    4.0275   -2.1321   -1.8652 C   0  0  0  0  0  0  0  0  0  0  0  0
    3.0762   -3.3137   -2.1192 C   0  0  0  0  0  0  0  0  0  0  0  0
    5.2638   -2.3181   -2.7235 C   0  0  0  0  0  0  0  0  0  0  0  0
    6.1415   -3.4439   -2.2301 C   0  0  0  0  0  0  0  0  0  0  0  0
    6.6579   -3.1246   -0.8381 C   0  0  0  0  0  0  0  0  0  0  0  0
    5.5446   -2.8716    0.2241 C   0  0  1  0  0  0  0  0  0  0  0  0
    6.3037   -2.1244    1.3399 C   0  0  0  0  0  0  0  0  0  0  0  0
    4.4765   -1.8924   -0.3646 C   0  0  2  0  0  0  0  0  0  0  0  0
    3.3467   -1.6779    0.6577 C   0  0  0  0  0  0  0  0  0  0  0  0
    2.6453   -2.9735    1.0833 C   0  0  0  0  0  0  0  0  0  0  0  0
    3.5742   -4.0842    1.6497 C   0  0  2  0  0  0  0  0  0  0  0  0
    3.9563   -3.8681    3.1365 C   0  0  1  0  0  0  0  0  0  0  0  0
    2.8860   -3.4293    3.9438 O   0  0  0  0  0  0  0  0  0  0  0  0
    4.4232   -5.2696    3.5434 C   0  0  2  0  0  0  0  0  0  0  0  0
    5.8280   -5.4573    2.9269 C   0  0  0  0  0  0  0  0  0  0  0  0
    5.8706   -5.2243    1.4108 C   0  0  0  0  0  0  0  0  0  0  0  0
    6.6661   -5.8664    0.7211 O   0  0  0  0  0  0  0  0  0  0  0  0
    4.8831   -4.2130    0.7678 C   0  0  2  0  0  0  0  0  0  0  0  0
    3.3432   -6.2346    2.9741 C   0  0  0  0  0  0  0  0  0  0  0  0
    3.8667   -7.6489    2.6347 C   0  0  0  0  0  0  0  0  0  0  0  0
    2.2247   -6.4496    4.0385 C   0  0  0  0  0  0  0  0  0  0  0  0
    2.8676   -5.4946    1.6873 C   0  0  1  0  0  0  0  0  0  0  0  0
    1.4487   -5.4536    1.6578 O   0  0  0  0  0  0  0  0  0  0  0  0
    3.1637   -1.0004   -3.5285 H   0  0  0  0  0  0  0  0  0  0  0  0
    4.0091   -0.0017   -2.3424 H   0  0  0  0  0  0  0  0  0  0  0  0
    2.4419   -0.6859   -1.9712 H   0  0  0  0  0  0  0  0  0  0  0  0
    3.3799   -4.2180   -1.6063 H   0  0  0  0  0  0  0  0  0  0  0  0
    3.0585   -3.5629   -3.1829 H   0  0  0  0  0  0  0  0  0  0  0  0
    2.0422   -3.0901   -1.8566 H   0  0  0  0  0  0  0  0  0  0  0  0
    4.9834   -2.4822   -3.7678 H   0  0  0  0  0  0  0  0  0  0  0  0
    5.8131   -1.3780   -2.6867 H   0  0  0  0  0  0  0  0  0  0  0  0
    5.6046   -4.3872   -2.2448 H   0  0  0  0  0  0  0  0  0  0  0  0
    6.9922   -3.5413   -2.8986 H   0  0  0  0  0  0  0  0  0  0  0  0
    7.3548   -3.8981   -0.5324 H   0  0  0  0  0  0  0  0  0  0  0  0
    7.2925   -2.2448   -0.9361 H   0  0  0  0  0  0  0  0  0  0  0  0
    5.6878   -1.7168    2.1301 H   0  0  0  0  0  0  0  0  0  0  0  0
    6.8637   -1.2717    0.9532 H   0  0  0  0  0  0  0  0  0  0  0  0
    7.0139   -2.8047    1.7925 H   0  0  0  0  0  0  0  0  0  0  0  0
    4.9791   -0.9283   -0.4102 H   0  0  0  0  0  0  0  0  0  0  0  0
    3.7332   -1.1842    1.5501 H   0  0  0  0  0  0  0  0  0  0  0  0
    2.6118   -0.9776    0.2650 H   0  0  0  0  0  0  0  0  0  0  0  0
    1.8642   -2.7066    1.7895 H   0  0  0  0  0  0  0  0  0  0  0  0
    2.1030   -3.3785    0.2380 H   0  0  0  0  0  0  0  0  0  0  0  0
    4.7588   -3.1530    3.2936 H   0  0  0  0  0  0  0  0  0  0  0  0
    2.6930   -2.5304    3.7076 H   0  0  0  0  0  0  0  0  0  0  0  0
    4.5035   -5.3576    4.6283 H   0  0  0  0  0  0  0  0  0  0  0  0
    6.5196   -4.7580    3.3963 H   0  0  0  0  0  0  0  0  0  0  0  0
    6.2090   -6.4544    3.1550 H   0  0  0  0  0  0  0  0  0  0  0  0
    4.5804   -4.7496   -0.1244 H   0  0  0  0  0  0  0  0  0  0  0  0
    3.0487   -8.2900    2.3098 H   0  0  0  0  0  0  0  0  0  0  0  0
    4.3280   -8.1181    3.5006 H   0  0  0  0  0  0  0  0  0  0  0  0
    4.5933   -7.6520    1.8248 H   0  0  0  0  0  0  0  0  0  0  0  0
    1.4715   -7.1579    3.6902 H   0  0  0  0  0  0  0  0  0  0  0  0
    1.6976   -5.5380    4.3112 H   0  0  0  0  0  0  0  0  0  0  0  0
    2.6433   -6.8569    4.9569 H   0  0  0  0  0  0  0  0  0  0  0  0
    3.1427   -6.0612    0.7930 H   0  0  0  0  0  0  0  0  0  0  0  0
    1.1793   -5.1294    2.5047 H   0  0  0  0  0  0  0  0  0  0  0  0
  1  2  1  0
  1 25  1  0
  1 26  1  0
  1 27  1  0
  2  9  1  0
  2  3  1  0
  2  4  1  0
  3 28  1  0
  3 29  1  0
  3 30  1  0
  4  5  1  0
  4 31  1  0
  4 32  1  0
  5  6  1  0
  5 33  1  0
  5 34  1  0
  6  7  1  0
  6 35  1  0
  6 36  1  0
  7 19  1  0
  7  8  1  1
  7  9  1  0
  8 37  1  0
  8 38  1  0
  8 39  1  0
  9 10  1  0
  9 40  1  6
 10 11  1  0
 10 41  1  0
 10 42  1  0
 12 11  1  6
 11 43  1  0
 11 44  1  0
 12 19  1  0
 12 23  1  0
 12 13  1  0
 13 14  1  0
 13 15  1  0
 13 45  1  6
 14 46  1  0
 15 16  1  0
 15 20  1  0
 15 47  1  1
 16 17  1  0
 16 48  1  0
 16 49  1  0
 17 18  2  0
 17 19  1  0
 19 50  1  6
 20 21  1  0
 20 22  1  0
 20 23  1  0
 21 51  1  0
 21 52  1  0
 21 53  1  0
 22 54  1  0
 22 55  1  0
 22 56  1  0
 23 24  1  0
 23 57  1  6
 24 58  1  0
M  END
>  <i_m_ct_stereo_status>  (248) 
1

>  <s_m_source_file>  (248) 
/var/tmp/pbs.5076255.sched01/tmpc36l9o9d/84wsylf1cs.sdf

>  <i_m_source_file_index>  (248) 
28

>  <i_lp_mmshare_version>  (248) 
48012

>  <i_f3d_flags>  (248) 
0

>  <s_epik_input>  (248) 
W0NIMl0xW0NIMl1bQ0gyXUMoW0NIM10pKFtDSDNdKVtDQEBIXShbQ0gyXVtDSDJdMilbQ0BAXTEoW0NIM10pW0NASF0oW0NAXTIzNClDKD1PKVtDSDJdW0NAQEhdKFtDQEBIXTNbT0hdKUMoW0NIM10pKFtDSDNdKVtDQEhdNFtPSF0=

>  <s_epik_cmdline>  (248) 
J2VwaWtfcHl0aG9uJywgJy1waHQnLCAnMi4wJywgJy1waCcsICc3LjAnLCAnLXRuJywgJzgnLCAnLW1hJywgJzIwMCcsICctaW1hZScsICc8aW5maWxlLm1hZT4nLCAnLW9tYWUnLCAnPG91dGZpbGUubWFlPic=

>  <r_lp_tautomer_probability>  (248) 
1

>  <r_epik_Ionization_Penalty>  (248) 
4.6243e-07

>  <r_epik_Ionization_Penalty_Charging>  (248) 
0

>  <r_epik_Ionization_Penalty_Neutral>  (248) 
4.6243e-07

>  <r_epik_State_Penalty>  (248) 
-0

>  <r_epik_Charging_Adjusted_Penalty>  (248) 
0

>  <i_epik_Tot_Q>  (248) 
0

>  <i_epik_Tot_abs_Q>  (248) 
0

>  <s_lp_Force_Field>  (248) 
OPLS3e

>  <r_lp_Energy>  (248) 
68.7096

>  <b_lp_Chiralities_Consistent>  (248) 
1

>  <s_lp_Variant>  (248) 
80:0-1

>  <s_i_glide_gridfile>  (248) 
pfpi4k_grid

>  <i_i_glide_lignum>  (248) 
28

>  <i_i_glide_rotatable_bonds>  (248) 
2

>  <r_i_docking_score>  (248) 
-3.24775

>  <r_i_glide_ligand_efficiency>  (248) 
-0.135323

>  <r_i_glide_ligand_efficiency_sa>  (248) 
-0.390339

>  <r_i_glide_ligand_efficiency_ln>  (248) 
-0.777335

>  <r_i_glide_gscore>  (248) 
-3.24775

>  <r_i_glide_lipo>  (248) 
-0.64477

>  <r_i_glide_hbond>  (248) 
0

>  <r_i_glide_metal>  (248) 
-0

>  <r_i_glide_rewards>  (248) 
-1.22303

>  <r_i_glide_evdw>  (248) 
-17.0505

>  <r_i_glide_ecoul>  (248) 
-3.51616

>  <r_i_glide_erotb>  (248) 
0

>  <r_i_glide_esite>  (248) 
0

>  <r_i_glide_emodel>  (248) 
-23.688

>  <r_i_glide_energy>  (248) 
-20.5667

>  <r_i_glide_einternal>  (248) 
0.440662

>  <r_i_glide_intrahb_reward>  (248) 
-0

>  <i_i_glide_confnum>  (248) 
2

>  <i_i_glide_posenum>  (248) 
13

>  <r_i_glide_eff_state_penalty>  (248) 
0

>  <ligand_id>  (248) 
80

>  <original_smiles>  (248) 
CC1(C)CCCC2(C)C1CCC13C(O)C(CC(=O)C21)C(C)(C)C3O

>  <smiles>  (248) 
[H]OC1([H])C2([H])C([H])([H])C(=O)C3([H])C1(C([H])([H])C([H])([H])C1([H])C(C([H])([H])[H])(C([H])([H])[H])C([H])([H])C([H])([H])C([H])([H])C31C([H])([H])[H])C([H])(O[H])C2(C([H])([H])[H])C([H])([H])[H]

$$$$
80:0:1
     RDKit          3D

 58 61  0  0  1  0  0  0  0  0999 V2000
    3.6563   -0.8719   -2.2714 C   0  0  0  0  0  0  0  0  0  0  0  0
    4.2939   -2.1623   -1.7448 C   0  0  0  0  0  0  0  0  0  0  0  0
    3.4038   -3.2974   -2.2558 C   0  0  0  0  0  0  0  0  0  0  0  0
    5.6168   -2.2549   -2.4683 C   0  0  0  0  0  0  0  0  0  0  0  0
    6.4433   -3.4201   -2.0236 C   0  0  0  0  0  0  0  0  0  0  0  0
    6.8129   -3.2713   -0.5633 C   0  0  0  0  0  0  0  0  0  0  0  0
    5.5911   -3.1488    0.3925 C   0  0  1  0  0  0  0  0  0  0  0  0
    6.2160   -2.5277    1.6503 C   0  0  0  0  0  0  0  0  0  0  0  0
    4.5856   -2.1056   -0.1946 C   0  0  2  0  0  0  0  0  0  0  0  0
    3.3457   -1.9991    0.7000 C   0  0  0  0  0  0  0  0  0  0  0  0
    2.6322   -3.3356    0.9028 C   0  0  0  0  0  0  0  0  0  0  0  0
    3.4932   -4.4988    1.4486 C   0  0  2  0  0  0  0  0  0  0  0  0
    3.7047   -4.4484    2.9861 C   0  0  1  0  0  0  0  0  0  0  0  0
    2.5610   -4.0871    3.7307 O   0  0  0  0  0  0  0  0  0  0  0  0
    4.1301   -5.8875    3.2858 C   0  0  2  0  0  0  0  0  0  0  0  0
    5.5978   -6.0029    2.8207 C   0  0  0  0  0  0  0  0  0  0  0  0
    5.8039   -5.6090    1.3516 C   0  0  0  0  0  0  0  0  0  0  0  0
    6.6925   -6.1653    0.7172 O   0  0  0  0  0  0  0  0  0  0  0  0
    4.8860   -4.5380    0.7083 C   0  0  2  0  0  0  0  0  0  0  0  0
    3.1247   -6.7778    2.4949 C   0  0  0  0  0  0  0  0  0  0  0  0
    3.6968   -8.1491    2.0627 C   0  0  0  0  0  0  0  0  0  0  0  0
    1.8995   -7.1070    3.3951 C   0  0  0  0  0  0  0  0  0  0  0  0
    2.7867   -5.8935    1.2539 C   0  0  1  0  0  0  0  0  0  0  0  0
    1.3884   -5.8621    1.0289 O   0  0  0  0  0  0  0  0  0  0  0  0
    3.5910   -0.8456   -3.3664 H   0  0  0  0  0  0  0  0  0  0  0  0
    4.2425   -0.0118   -1.9502 H   0  0  0  0  0  0  0  0  0  0  0  0
    2.6364   -0.7575   -1.8987 H   0  0  0  0  0  0  0  0  0  0  0  0
    3.7059   -4.2208   -1.7929 H   0  0  0  0  0  0  0  0  0  0  0  0
    3.5049   -3.4531   -3.3338 H   0  0  0  0  0  0  0  0  0  0  0  0
    2.3397   -3.1492   -2.0720 H   0  0  0  0  0  0  0  0  0  0  0  0
    5.4309   -2.3280   -3.5362 H   0  0  0  0  0  0  0  0  0  0  0  0
    6.1687   -1.3386   -2.2952 H   0  0  0  0  0  0  0  0  0  0  0  0
    5.8645   -4.2991   -2.2146 H   0  0  0  0  0  0  0  0  0  0  0  0
    7.3469   -3.4616   -2.6175 H   0  0  0  0  0  0  0  0  0  0  0  0
    7.4670   -4.0878   -0.2844 H   0  0  0  0  0  0  0  0  0  0  0  0
    7.4541   -2.3921   -0.4806 H   0  0  0  0  0  0  0  0  0  0  0  0
    5.5218   -2.2309    2.4238 H   0  0  0  0  0  0  0  0  0  0  0  0
    6.7694   -1.6188    1.4197 H   0  0  0  0  0  0  0  0  0  0  0  0
    6.9269   -3.2309    2.0650 H   0  0  0  0  0  0  0  0  0  0  0  0
    5.0710   -1.1367   -0.0901 H   0  0  0  0  0  0  0  0  0  0  0  0
    3.6163   -1.5923    1.6741 H   0  0  0  0  0  0  0  0  0  0  0  0
    2.6377   -1.2738    0.2984 H   0  0  0  0  0  0  0  0  0  0  0  0
    1.8137   -3.1352    1.5832 H   0  0  0  0  0  0  0  0  0  0  0  0
    2.1634   -3.6454   -0.0259 H   0  0  0  0  0  0  0  0  0  0  0  0
    4.4763   -3.7563    3.3044 H   0  0  0  0  0  0  0  0  0  0  0  0
    2.3615   -3.1795    3.5528 H   0  0  0  0  0  0  0  0  0  0  0  0
    4.0863   -6.0966    4.3581 H   0  0  0  0  0  0  0  0  0  0  0  0
    6.2279   -5.3579    3.4338 H   0  0  0  0  0  0  0  0  0  0  0  0
    5.9643   -7.0191    2.9775 H   0  0  0  0  0  0  0  0  0  0  0  0
    4.6930   -4.9797   -0.2621 H   0  0  0  0  0  0  0  0  0  0  0  0
    2.9315   -8.7606    1.5823 H   0  0  0  0  0  0  0  0  0  0  0  0
    4.0670   -8.7119    2.9204 H   0  0  0  0  0  0  0  0  0  0  0  0
    4.5124   -8.0669    1.3458 H   0  0  0  0  0  0  0  0  0  0  0  0
    1.1955   -7.7769    2.9004 H   0  0  0  0  0  0  0  0  0  0  0  0
    1.3383   -6.2259    3.6963 H   0  0  0  0  0  0  0  0  0  0  0  0
    2.2183   -7.6072    4.3098 H   0  0  0  0  0  0  0  0  0  0  0  0
    3.1730   -6.3633    0.3488 H   0  0  0  0  0  0  0  0  0  0  0  0
    1.1082   -6.7530    0.9098 H   0  0  0  0  0  0  0  0  0  0  0  0
  1  2  1  0
  1 25  1  0
  1 26  1  0
  1 27  1  0
  2  9  1  0
  2  3  1  0
  2  4  1  0
  3 28  1  0
  3 29  1  0
  3 30  1  0
  4  5  1  0
  4 31  1  0
  4 32  1  0
  5  6  1  0
  5 33  1  0
  5 34  1  0
  6  7  1  0
  6 35  1  0
  6 36  1  0
  7 19  1  0
  7  8  1  1
  7  9  1  0
  8 37  1  0
  8 38  1  0
  8 39  1  0
  9 10  1  0
  9 40  1  6
 10 11  1  0
 10 41  1  0
 10 42  1  0
 12 11  1  6
 11 43  1  0
 11 44  1  0
 12 19  1  0
 12 23  1  0
 12 13  1  0
 13 14  1  0
 13 15  1  0
 13 45  1  6
 14 46  1  0
 15 16  1  0
 15 20  1  0
 15 47  1  1
 16 17  1  0
 16 48  1  0
 16 49  1  0
 17 18  2  0
 17 19  1  0
 19 50  1  6
 20 21  1  0
 20 22  1  0
 20 23  1  0
 21 51  1  0
 21 52  1  0
 21 53  1  0
 22 54  1  0
 22 55  1  0
 22 56  1  0
 23 24  1  0
 23 57  1  6
 24 58  1  0
M  END
>  <i_m_ct_stereo_status>  (249) 
1

>  <s_m_source_file>  (249) 
/var/tmp/pbs.5076255.sched01/tmpc36l9o9d/84wsylf1cs.sdf

>  <i_m_source_file_index>  (249) 
28

>  <i_lp_mmshare_version>  (249) 
48012

>  <i_f3d_flags>  (249) 
0

>  <s_epik_input>  (249) 
W0NIMl0xW0NIMl1bQ0gyXUMoW0NIM10pKFtDSDNdKVtDQEBIXShbQ0gyXVtDSDJdMilbQ0BAXTEoW0NIM10pW0NASF0oW0NAXTIzNClDKD1PKVtDSDJdW0NAQEhdKFtDQEBIXTNbT0hdKUMoW0NIM10pKFtDSDNdKVtDQEhdNFtPSF0=

>  <s_epik_cmdline>  (249) 
J2VwaWtfcHl0aG9uJywgJy1waHQnLCAnMi4wJywgJy1waCcsICc3LjAnLCAnLXRuJywgJzgnLCAnLW1hJywgJzIwMCcsICctaW1hZScsICc8aW5maWxlLm1hZT4nLCAnLW9tYWUnLCAnPG91dGZpbGUubWFlPic=

>  <r_lp_tautomer_probability>  (249) 
1

>  <r_epik_Ionization_Penalty>  (249) 
4.6243e-07

>  <r_epik_Ionization_Penalty_Charging>  (249) 
0

>  <r_epik_Ionization_Penalty_Neutral>  (249) 
4.6243e-07

>  <r_epik_State_Penalty>  (249) 
-0

>  <r_epik_Charging_Adjusted_Penalty>  (249) 
0

>  <i_epik_Tot_Q>  (249) 
0

>  <i_epik_Tot_abs_Q>  (249) 
0

>  <s_lp_Force_Field>  (249) 
OPLS3e

>  <r_lp_Energy>  (249) 
68.7096

>  <b_lp_Chiralities_Consistent>  (249) 
1

>  <s_lp_Variant>  (249) 
80:0-1

>  <s_i_glide_gridfile>  (249) 
pfpi4k_grid

>  <i_i_glide_lignum>  (249) 
28

>  <i_i_glide_rotatable_bonds>  (249) 
2

>  <r_i_docking_score>  (249) 
-3.16093

>  <r_i_glide_ligand_efficiency>  (249) 
-0.131705

>  <r_i_glide_ligand_efficiency_sa>  (249) 
-0.379904

>  <r_i_glide_ligand_efficiency_ln>  (249) 
-0.756556

>  <r_i_glide_gscore>  (249) 
-3.16093

>  <r_i_glide_lipo>  (249) 
-0.472886

>  <r_i_glide_hbond>  (249) 
0

>  <r_i_glide_metal>  (249) 
-0

>  <r_i_glide_rewards>  (249) 
-1.23292

>  <r_i_glide_evdw>  (249) 
-18.3908

>  <r_i_glide_ecoul>  (249) 
-3.57059

>  <r_i_glide_erotb>  (249) 
0

>  <r_i_glide_esite>  (249) 
0

>  <r_i_glide_emodel>  (249) 
-24.8524

>  <r_i_glide_energy>  (249) 
-21.9614

>  <r_i_glide_einternal>  (249) 
0.651181

>  <r_i_glide_intrahb_reward>  (249) 
-0

>  <i_i_glide_confnum>  (249) 
1

>  <i_i_glide_posenum>  (249) 
40

>  <r_i_glide_eff_state_penalty>  (249) 
0

>  <ligand_id>  (249) 
80

>  <original_smiles>  (249) 
CC1(C)CCCC2(C)C1CCC13C(O)C(CC(=O)C21)C(C)(C)C3O

>  <smiles>  (249) 
[H]OC1([H])C2([H])C([H])([H])C(=O)C3([H])C1(C([H])([H])C([H])([H])C1([H])C(C([H])([H])[H])(C([H])([H])[H])C([H])([H])C([H])([H])C([H])([H])C31C([H])([H])[H])C([H])(O[H])C2(C([H])([H])[H])C([H])([H])[H]

$$$$
80:0:2
     RDKit          3D

 58 61  0  0  1  0  0  0  0  0999 V2000
    4.6410   -1.2236   -2.1432 C   0  0  0  0  0  0  0  0  0  0  0  0
    5.1206   -2.3868   -1.2448 C   0  0  0  0  0  0  0  0  0  0  0  0
    4.5336   -3.6824   -1.8454 C   0  0  0  0  0  0  0  0  0  0  0  0
    6.6469   -2.4646   -1.3828 C   0  0  0  0  0  0  0  0  0  0  0  0
    7.2505   -3.4904   -0.4431 C   0  0  0  0  0  0  0  0  0  0  0  0
    6.9935   -3.0867    0.9952 C   0  0  0  0  0  0  0  0  0  0  0  0
    5.4944   -2.9146    1.3864 C   0  0  1  0  0  0  0  0  0  0  0  0
    5.5281   -2.0534    2.6732 C   0  0  0  0  0  0  0  0  0  0  0  0
    4.7955   -2.0626    0.2704 C   0  0  2  0  0  0  0  0  0  0  0  0
    3.3124   -1.9309    0.5882 C   0  0  0  0  0  0  0  0  0  0  0  0
    2.6114   -3.2641    0.7305 C   0  0  0  0  0  0  0  0  0  0  0  0
    3.1819   -4.2718    1.7568 C   0  0  2  0  0  0  0  0  0  0  0  0
    2.7619   -3.9727    3.2238 C   0  0  1  0  0  0  0  0  0  0  0  0
    1.4129   -3.5987    3.4038 O   0  0  0  0  0  0  0  0  0  0  0  0
    3.0697   -5.3068    3.9046 C   0  0  2  0  0  0  0  0  0  0  0  0
    4.6095   -5.3675    4.0620 C   0  0  0  0  0  0  0  0  0  0  0  0
    5.3693   -5.1950    2.7389 C   0  0  0  0  0  0  0  0  0  0  0  0
    6.4320   -5.8010    2.5594 O   0  0  0  0  0  0  0  0  0  0  0  0
    4.7552   -4.3025    1.6297 C   0  0  2  0  0  0  0  0  0  0  0  0
    2.4648   -6.3879    2.9584 C   0  0  0  0  0  0  0  0  0  0  0  0
    3.1857   -7.7538    3.0222 C   0  0  0  0  0  0  0  0  0  0  0  0
    0.9893   -6.6799    3.3605 C   0  0  0  0  0  0  0  0  0  0  0  0
    2.6244   -5.7372    1.5503 C   0  0  1  0  0  0  0  0  0  0  0  0
    1.4469   -5.8492    0.7686 O   0  0  0  0  0  0  0  0  0  0  0  0
    4.9948   -1.3524   -3.1683 H   0  0  0  0  0  0  0  0  0  0  0  0
    5.0068   -0.2603   -1.7868 H   0  0  0  0  0  0  0  0  0  0  0  0
    3.5496   -1.1637   -2.1931 H   0  0  0  0  0  0  0  0  0  0  0  0
    4.6244   -4.5478   -1.2023 H   0  0  0  0  0  0  0  0  0  0  0  0
    5.0368   -3.9513   -2.7741 H   0  0  0  0  0  0  0  0  0  0  0  0
    3.4806   -3.5761   -2.1114 H   0  0  0  0  0  0  0  0  0  0  0  0
    6.9403   -2.6714   -2.4140 H   0  0  0  0  0  0  0  0  0  0  0  0
    7.0455   -1.4876   -1.1240 H   0  0  0  0  0  0  0  0  0  0  0  0
    6.8372   -4.4784   -0.6153 H   0  0  0  0  0  0  0  0  0  0  0  0
    8.3205   -3.5503   -0.6221 H   0  0  0  0  0  0  0  0  0  0  0  0
    7.5036   -3.7796    1.6531 H   0  0  0  0  0  0  0  0  0  0  0  0
    7.5057   -2.1354    1.1355 H   0  0  0  0  0  0  0  0  0  0  0  0
    4.5718   -1.6759    3.0113 H   0  0  0  0  0  0  0  0  0  0  0  0
    6.1340   -1.1620    2.5313 H   0  0  0  0  0  0  0  0  0  0  0  0
    5.9593   -2.6019    3.5027 H   0  0  0  0  0  0  0  0  0  0  0  0
    5.1829   -1.0501    0.3963 H   0  0  0  0  0  0  0  0  0  0  0  0
    3.1577   -1.3663    1.5043 H   0  0  0  0  0  0  0  0  0  0  0  0
    2.8084   -1.3329   -0.1653 H   0  0  0  0  0  0  0  0  0  0  0  0
    1.6234   -2.9688    1.0330 H   0  0  0  0  0  0  0  0  0  0  0  0
    2.4951   -3.7385   -0.2398 H   0  0  0  0  0  0  0  0  0  0  0  0
    3.3310   -3.1759    3.6914 H   0  0  0  0  0  0  0  0  0  0  0  0
    1.2676   -2.7661    2.9772 H   0  0  0  0  0  0  0  0  0  0  0  0
    2.6107   -5.3521    4.8963 H   0  0  0  0  0  0  0  0  0  0  0  0
    4.9269   -4.5829    4.7506 H   0  0  0  0  0  0  0  0  0  0  0  0
    4.8928   -6.3122    4.5221 H   0  0  0  0  0  0  0  0  0  0  0  0
    4.9550   -4.8829    0.7382 H   0  0  0  0  0  0  0  0  0  0  0  0
    2.6813   -8.4880    2.3925 H   0  0  0  0  0  0  0  0  0  0  0  0
    3.2013   -8.1484    4.0381 H   0  0  0  0  0  0  0  0  0  0  0  0
    4.2147   -7.7085    2.6682 H   0  0  0  0  0  0  0  0  0  0  0  0
    0.5536   -7.4697    2.7456 H   0  0  0  0  0  0  0  0  0  0  0  0
    0.3352   -5.8158    3.2683 H   0  0  0  0  0  0  0  0  0  0  0  0
    0.9316   -7.0160    4.3964 H   0  0  0  0  0  0  0  0  0  0  0  0
    3.3499   -6.3116    0.9713 H   0  0  0  0  0  0  0  0  0  0  0  0
    1.7111   -5.7828   -0.1401 H   0  0  0  0  0  0  0  0  0  0  0  0
  1  2  1  0
  1 25  1  0
  1 26  1  0
  1 27  1  0
  2  9  1  0
  2  3  1  0
  2  4  1  0
  3 28  1  0
  3 29  1  0
  3 30  1  0
  4  5  1  0
  4 31  1  0
  4 32  1  0
  5  6  1  0
  5 33  1  0
  5 34  1  0
  6  7  1  0
  6 35  1  0
  6 36  1  0
  7 19  1  0
  7  8  1  1
  7  9  1  0
  8 37  1  0
  8 38  1  0
  8 39  1  0
  9 10  1  0
  9 40  1  1
 10 11  1  0
 10 41  1  0
 10 42  1  0
 12 11  1  6
 11 43  1  0
 11 44  1  0
 12 19  1  0
 12 23  1  0
 12 13  1  0
 13 14  1  0
 13 15  1  0
 13 45  1  1
 14 46  1  0
 15 16  1  0
 15 20  1  0
 15 47  1  1
 16 17  1  0
 16 48  1  0
 16 49  1  0
 17 18  2  0
 17 19  1  0
 19 50  1  6
 20 21  1  0
 20 22  1  0
 20 23  1  0
 21 51  1  0
 21 52  1  0
 21 53  1  0
 22 54  1  0
 22 55  1  0
 22 56  1  0
 23 24  1  0
 23 57  1  6
 24 58  1  0
M  END
>  <i_m_ct_stereo_status>  (250) 
1

>  <s_m_source_file>  (250) 
/var/tmp/pbs.5076255.sched01/tmpc36l9o9d/84wsylf1cs.sdf

>  <i_m_source_file_index>  (250) 
28

>  <i_lp_mmshare_version>  (250) 
48012

>  <i_f3d_flags>  (250) 
0

>  <s_epik_input>  (250) 
W0NIMl0xW0NIMl1bQ0gyXUMoW0NIM10pKFtDSDNdKVtDQEBIXShbQ0gyXVtDSDJdMilbQ0BAXTEoW0NIM10pW0NASF0oW0NAXTIzNClDKD1PKVtDSDJdW0NAQEhdKFtDQEBIXTNbT0hdKUMoW0NIM10pKFtDSDNdKVtDQEhdNFtPSF0=

>  <s_epik_cmdline>  (250) 
J2VwaWtfcHl0aG9uJywgJy1waHQnLCAnMi4wJywgJy1waCcsICc3LjAnLCAnLXRuJywgJzgnLCAnLW1hJywgJzIwMCcsICctaW1hZScsICc8aW5maWxlLm1hZT4nLCAnLW9tYWUnLCAnPG91dGZpbGUubWFlPic=

>  <r_lp_tautomer_probability>  (250) 
1

>  <r_epik_Ionization_Penalty>  (250) 
4.6243e-07

>  <r_epik_Ionization_Penalty_Charging>  (250) 
0

>  <r_epik_Ionization_Penalty_Neutral>  (250) 
4.6243e-07

>  <r_epik_State_Penalty>  (250) 
-0

>  <r_epik_Charging_Adjusted_Penalty>  (250) 
0

>  <i_epik_Tot_Q>  (250) 
0

>  <i_epik_Tot_abs_Q>  (250) 
0

>  <s_lp_Force_Field>  (250) 
OPLS3e

>  <r_lp_Energy>  (250) 
68.7096

>  <b_lp_Chiralities_Consistent>  (250) 
1

>  <s_lp_Variant>  (250) 
80:0-1

>  <s_i_glide_gridfile>  (250) 
pfpi4k_grid

>  <i_i_glide_lignum>  (250) 
28

>  <i_i_glide_rotatable_bonds>  (250) 
2

>  <r_i_docking_score>  (250) 
-2.91355

>  <r_i_glide_ligand_efficiency>  (250) 
-0.121398

>  <r_i_glide_ligand_efficiency_sa>  (250) 
-0.350173

>  <r_i_glide_ligand_efficiency_ln>  (250) 
-0.697347

>  <r_i_glide_gscore>  (250) 
-2.91355

>  <r_i_glide_lipo>  (250) 
-0.370902

>  <r_i_glide_hbond>  (250) 
0

>  <r_i_glide_metal>  (250) 
-0

>  <r_i_glide_rewards>  (250) 
-1.13997

>  <r_i_glide_evdw>  (250) 
-19.1297

>  <r_i_glide_ecoul>  (250) 
-2.97466

>  <r_i_glide_erotb>  (250) 
0

>  <r_i_glide_esite>  (250) 
0

>  <r_i_glide_emodel>  (250) 
-24.3553

>  <r_i_glide_energy>  (250) 
-22.1043

>  <r_i_glide_einternal>  (250) 
0.963536

>  <r_i_glide_intrahb_reward>  (250) 
-0

>  <i_i_glide_confnum>  (250) 
1

>  <i_i_glide_posenum>  (250) 
1

>  <r_i_glide_eff_state_penalty>  (250) 
0

>  <ligand_id>  (250) 
80

>  <original_smiles>  (250) 
CC1(C)CCCC2(C)C1CCC13C(O)C(CC(=O)C21)C(C)(C)C3O

>  <smiles>  (250) 
[H]OC1([H])C2([H])C([H])([H])C(=O)C3([H])C1(C([H])([H])C([H])([H])C1([H])C(C([H])([H])[H])(C([H])([H])[H])C([H])([H])C([H])([H])C([H])([H])C31C([H])([H])[H])C([H])(O[H])C2(C([H])([H])[H])C([H])([H])[H]

$$$$
81:0:0
     RDKit          3D

 66 73  0  0  1  0  0  0  0  0999 V2000
   -0.0323   -8.6861    6.0175 C   0  0  0  0  0  0  0  0  0  0  0  0
    1.2914   -8.3275    5.6610 O   0  0  0  0  0  0  0  0  0  0  0  0
    1.5269   -8.1719    4.2477 C   0  0  2  0  0  0  0  0  0  0  0  0
    1.0104   -9.2370    3.3239 C   0  0  2  0  0  0  0  0  0  0  0  0
    2.2052  -10.0790    4.0154 C   0  0  0  0  0  0  0  0  0  0  0  0
    2.9279   -8.7511    3.7852 C   0  0  1  0  0  0  0  0  0  0  0  0
    3.3054   -9.2110    2.4592 O   0  0  0  0  0  0  0  0  0  0  0  0
    2.5937   -8.5430    1.4713 C   0  0  2  0  0  0  0  0  0  0  0  0
    2.9745   -7.0965    1.7247 C   0  0  2  0  0  0  0  0  0  0  0  0
    4.2456   -6.9253    2.6561 C   0  0  1  0  0  0  0  0  0  0  0  0
    4.5015   -5.4588    3.0483 C   0  0  1  0  0  0  0  0  0  0  0  0
    4.1189   -4.3593    2.0438 C   0  0  0  0  0  0  0  0  0  0  0  0
    4.7764   -3.0739    2.3902 N   0  0  0  0  0  0  0  0  0  0  0  0
    4.3586   -1.9163    1.5553 C   0  0  0  0  0  0  0  0  0  0  0  0
    2.9387   -1.4311    1.9428 C   0  0  0  0  0  0  0  0  0  0  0  0
    2.5818   -0.0144    1.4640 C   0  0  0  0  0  0  0  0  0  0  0  0
    1.2482    0.3842    1.9784 N   0  0  0  0  0  0  0  0  0  0  0  0
    1.1848    1.8060    2.3885 C   0  0  0  0  0  0  0  0  0  0  0  0
   -0.0561    2.1293    3.2389 C   0  0  0  0  0  0  0  0  0  0  0  0
    0.0415    3.4698    4.0079 C   0  0  0  0  0  0  0  0  0  0  0  0
    0.8251    4.4974    3.2799 N   0  0  0  0  0  0  0  0  0  0  0  0
    3.7558   -5.3388    4.3415 C   0  0  2  0  0  0  0  0  0  0  0  0
    3.6464   -6.6762    4.9643 C   0  0  1  0  0  0  0  0  0  0  0  0
    2.3590   -5.8894    4.6335 C   0  0  2  0  0  0  0  0  0  0  0  0
    1.3538   -6.7364    3.8200 C   0  0  1  0  0  0  0  0  0  0  0  0
    1.5419   -6.9145    2.3134 C   0  0  2  0  0  0  0  0  0  0  0  0
    1.1841   -8.4131    1.9989 C   0  0  2  0  0  0  0  0  0  0  0  0
    4.0974   -7.7714    4.0075 C   0  0  1  0  0  0  0  0  0  0  0  0
   -0.1013   -8.7450    7.1018 H   0  0  0  0  0  0  0  0  0  0  0  0
   -0.3143   -9.6706    5.6422 H   0  0  0  0  0  0  0  0  0  0  0  0
   -0.7377   -7.9430    5.6459 H   0  0  0  0  0  0  0  0  0  0  0  0
    0.0026   -9.5787    3.4874 H   0  0  0  0  0  0  0  0  0  0  0  0
    2.0365  -10.3940    5.0539 H   0  0  0  0  0  0  0  0  0  0  0  0
    2.4974  -10.9431    3.4196 H   0  0  0  0  0  0  0  0  0  0  0  0
    2.7289   -8.9940    0.4906 H   0  0  0  0  0  0  0  0  0  0  0  0
    3.0505   -6.5801    0.7716 H   0  0  0  0  0  0  0  0  0  0  0  0
    5.1115   -7.2976    2.1033 H   0  0  0  0  0  0  0  0  0  0  0  0
    5.5679   -5.3870    3.2859 H   0  0  0  0  0  0  0  0  0  0  0  0
    4.4319   -4.6389    1.0441 H   0  0  0  0  0  0  0  0  0  0  0  0
    3.0383   -4.2496    2.0248 H   0  0  0  0  0  0  0  0  0  0  0  0
    4.5913   -2.8517    3.3481 H   0  0  0  0  0  0  0  0  0  0  0  0
    5.0785   -1.1184    1.7216 H   0  0  0  0  0  0  0  0  0  0  0  0
    4.4185   -2.1555    0.4948 H   0  0  0  0  0  0  0  0  0  0  0  0
    2.1988   -2.1281    1.5422 H   0  0  0  0  0  0  0  0  0  0  0  0
    2.8466   -1.4511    3.0302 H   0  0  0  0  0  0  0  0  0  0  0  0
    3.3638    0.6766    1.7689 H   0  0  0  0  0  0  0  0  0  0  0  0
    2.5602    0.0155    0.3861 H   0  0  0  0  0  0  0  0  0  0  0  0
    0.5775    0.1985    1.2521 H   0  0  0  0  0  0  0  0  0  0  0  0
    2.0690    2.0533    2.9702 H   0  0  0  0  0  0  0  0  0  0  0  0
    1.1924    2.4255    1.4988 H   0  0  0  0  0  0  0  0  0  0  0  0
   -0.9485    2.1378    2.6041 H   0  0  0  0  0  0  0  0  0  0  0  0
   -0.2333    1.3543    3.9860 H   0  0  0  0  0  0  0  0  0  0  0  0
   -0.9616    3.8542    4.2149 H   0  0  0  0  0  0  0  0  0  0  0  0
    0.5060    3.3056    4.9894 H   0  0  0  0  0  0  0  0  0  0  0  0
    0.8511    5.3718    3.7720 H   0  0  0  0  0  0  0  0  0  0  0  0
    0.4329    4.5989    2.3507 H   0  0  0  0  0  0  0  0  0  0  0  0
    4.0899   -4.5486    4.9977 H   0  0  0  0  0  0  0  0  0  0  0  0
    3.8589   -6.8125    6.0120 H   0  0  0  0  0  0  0  0  0  0  0  0
    1.8807   -5.4065    5.4843 H   0  0  0  0  0  0  0  0  0  0  0  0
    0.3472   -6.3717    4.0403 H   0  0  0  0  0  0  0  0  0  0  0  0
    0.9742   -6.2251    1.6897 H   0  0  0  0  0  0  0  0  0  0  0  0
    0.3616   -8.4755    1.3111 H   0  0  0  0  0  0  0  0  0  0  0  0
    5.0232   -8.2424    4.3369 H   0  0  0  0  0  0  0  0  0  0  0  0
    5.7617   -3.2001    2.2722 H   0  0  0  0  0  0  0  0  0  0  0  0
    1.7562    4.1576    3.1674 H   0  0  0  0  0  0  0  0  0  0  0  0
    1.0534   -0.1684    2.7897 H   0  0  0  0  0  0  0  0  0  0  0  0
  1  2  1  0
  1 29  1  0
  1 30  1  0
  1 31  1  0
  3  2  1  1
  3  6  1  0
  3 25  1  0
  3  4  1  0
  4 27  1  0
  4  5  1  0
  4 32  1  1
  6  5  1  1
  5 33  1  0
  5 34  1  0
  6 28  1  0
  6  7  1  0
  7  8  1  0
  8 27  1  0
  8  9  1  0
  8 35  1  6
  9 26  1  0
  9 10  1  0
  9 36  1  6
 10 28  1  0
 10 11  1  0
 10 37  1  6
 11 12  1  0
 11 22  1  0
 11 38  1  1
 12 13  1  0
 12 39  1  0
 12 40  1  0
 13 14  1  0
 13 41  1  0
 13 64  1  0
 14 15  1  0
 14 42  1  0
 14 43  1  0
 15 16  1  0
 15 44  1  0
 15 45  1  0
 16 17  1  0
 16 46  1  0
 16 47  1  0
 17 18  1  0
 17 48  1  0
 17 66  1  0
 18 19  1  0
 18 49  1  0
 18 50  1  0
 19 20  1  0
 19 51  1  0
 19 52  1  0
 20 21  1  0
 20 53  1  0
 20 54  1  0
 21 55  1  0
 21 56  1  0
 21 65  1  0
 22 24  1  0
 22 23  1  0
 22 57  1  1
 23 24  1  0
 23 28  1  0
 23 58  1  1
 24 25  1  0
 24 59  1  1
 25 26  1  0
 25 60  1  6
 26 27  1  0
 26 61  1  6
 27 62  1  6
 28 63  1  1
M  CHG  3  13   1  17   1  21   1
M  END
>  <i_m_ct_stereo_status>  (251) 
1

>  <s_m_source_file>  (251) 
/var/tmp/pbs.5076255.sched01/tmpc36l9o9d/84wsylf1cs.sdf

>  <i_m_source_file_index>  (251) 
29

>  <i_lp_mmshare_version>  (251) 
48012

>  <i_f3d_flags>  (251) 
0

>  <s_epik_input>  (251) 
W0NIM11PW0NAQF0xKEMyMzQpW0NASF0oW0NIMl0yKVtDQEBIXTVbQ0BIXShPMylbQ0BASF02W0NAQEhdN1tDQEhdNFtDQEhdOFtDQEhdKFtDQEhdOFtDQEhdMVtDQEhdNTYpW0NAQEhdN1tDSDJdW05IXVtDSDJdW0NIMl1bQ0gyXVtOSF1bQ0gyXVtDSDJdW0NIMl1bTkgyXQ==

>  <s_epik_cmdline>  (251) 
J2VwaWtfcHl0aG9uJywgJy1waHQnLCAnMi4wJywgJy1waCcsICc3LjAnLCAnLXRuJywgJzgnLCAnLW1hJywgJzIwMCcsICctaW1hZScsICc8aW5maWxlLm1hZT4nLCAnLW9tYWUnLCAnPG91dGZpbGUubWFlPic=

>  <r_lp_tautomer_probability>  (251) 
1

>  <r_epik_Ionization_Penalty>  (251) 
0.00979871

>  <r_epik_Ionization_Penalty_Charging>  (251) 
0.00979871

>  <r_epik_Ionization_Penalty_Neutral>  (251) 
3.30249e-11

>  <r_epik_State_Penalty>  (251) 
-0

>  <r_epik_Charging_Adjusted_Penalty>  (251) 
0.00979871

>  <i_epik_Tot_Q>  (251) 
3

>  <i_epik_Tot_abs_Q>  (251) 
3

>  <s_lp_Force_Field>  (251) 
OPLS3e

>  <r_lp_Energy>  (251) 
214.478

>  <b_lp_Chiralities_Consistent>  (251) 
1

>  <s_lp_Variant>  (251) 
81:0-1

>  <s_i_glide_gridfile>  (251) 
pfpi4k_grid

>  <i_i_glide_lignum>  (251) 
29

>  <i_i_glide_rotatable_bonds>  (251) 
10

>  <r_i_docking_score>  (251) 
-2.54276

>  <r_i_glide_ligand_efficiency>  (251) 
-0.0908128

>  <r_i_glide_ligand_efficiency_sa>  (251) 
-0.275761

>  <r_i_glide_ligand_efficiency_ln>  (251) 
-0.586943

>  <r_i_glide_gscore>  (251) 
-2.54276

>  <r_i_glide_lipo>  (251) 
-0.0462617

>  <r_i_glide_hbond>  (251) 
-0.237963

>  <r_i_glide_metal>  (251) 
-0

>  <r_i_glide_rewards>  (251) 
-0.759772

>  <r_i_glide_evdw>  (251) 
-14.0714

>  <r_i_glide_ecoul>  (251) 
-11.0895

>  <r_i_glide_erotb>  (251) 
1.03244

>  <r_i_glide_esite>  (251) 
-0.164204

>  <r_i_glide_emodel>  (251) 
-23.4287

>  <r_i_glide_energy>  (251) 
-25.161

>  <r_i_glide_einternal>  (251) 
12.4939

>  <r_i_glide_intrahb_reward>  (251) 
-0

>  <i_i_glide_confnum>  (251) 
6

>  <i_i_glide_posenum>  (251) 
1

>  <r_i_glide_eff_state_penalty>  (251) 
0

>  <ligand_id>  (251) 
81

>  <original_smiles>  (251) 
COC12C3CC14OC1C5C6C(CNCCCNCCCN)C7C(C7C2C5C13)C64

>  <smiles>  (251) 
[H]C([H])([H])OC12C3([H])C([H])([H])C14OC1([H])C5([H])C([H])(C13[H])C2([H])C1([H])C2([H])C1([H])C([H])(C([H])([H])[N+]([H])([H])C([H])([H])C([H])([H])C([H])([H])[N+]([H])([H])C([H])([H])C([H])([H])C([H])([H])[N+]([H])([H])[H])C5([H])C24[H]

$$$$
81:0:1
     RDKit          3D

 66 73  0  0  1  0  0  0  0  0999 V2000
   -1.3111   -8.4247    2.2898 C   0  0  0  0  0  0  0  0  0  0  0  0
   -0.2638   -8.6417    3.2264 O   0  0  0  0  0  0  0  0  0  0  0  0
    0.9512   -7.9061    3.0095 C   0  0  2  0  0  0  0  0  0  0  0  0
    1.8264   -8.3189    1.8678 C   0  0  2  0  0  0  0  0  0  0  0  0
    2.0756   -9.5828    2.8399 C   0  0  0  0  0  0  0  0  0  0  0  0
    2.1851   -8.4498    3.8580 C   0  0  1  0  0  0  0  0  0  0  0  0
    3.6040   -8.3042    3.5502 O   0  0  0  0  0  0  0  0  0  0  0  0
    3.8655   -7.1213    2.8531 C   0  0  2  0  0  0  0  0  0  0  0  0
    3.3093   -6.0730    3.8006 C   0  0  2  0  0  0  0  0  0  0  0  0
    3.0809   -6.5802    5.2846 C   0  0  1  0  0  0  0  0  0  0  0  0
    2.3789   -5.5344    6.1649 C   0  0  1  0  0  0  0  0  0  0  0  0
    2.6483   -4.0565    5.8885 C   0  0  0  0  0  0  0  0  0  0  0  0
    2.1060   -3.1803    6.9419 N   0  0  0  0  0  0  0  0  0  0  0  0
    2.6026   -1.7918    6.9314 C   0  0  0  0  0  0  0  0  0  0  0  0
    2.2732   -1.0492    5.6128 C   0  0  0  0  0  0  0  0  0  0  0  0
    2.6616    0.4311    5.5420 C   0  0  0  0  0  0  0  0  0  0  0  0
    2.2929    1.0109    4.2386 N   0  0  0  0  0  0  0  0  0  0  0  0
    2.3548    2.4739    4.1843 C   0  0  0  0  0  0  0  0  0  0  0  0
    2.2029    3.0262    2.7636 C   0  0  0  0  0  0  0  0  0  0  0  0
    2.1880    4.5674    2.6924 C   0  0  0  0  0  0  0  0  0  0  0  0
    3.4146    5.1814    3.2077 N   0  0  0  0  0  0  0  0  0  0  0  0
    0.9396   -5.8974    6.0019 C   0  0  2  0  0  0  0  0  0  0  0  0
    0.8401   -7.3243    5.6349 C   0  0  1  0  0  0  0  0  0  0  0  0
    0.2475   -6.2632    4.6914 C   0  0  2  0  0  0  0  0  0  0  0  0
    0.7439   -6.4334    3.2368 C   0  0  1  0  0  0  0  0  0  0  0  0
    2.1180   -5.9315    2.8131 C   0  0  2  0  0  0  0  0  0  0  0  0
    2.7274   -7.0259    1.8542 C   0  0  2  0  0  0  0  0  0  0  0  0
    2.1996   -7.9184    5.3065 C   0  0  1  0  0  0  0  0  0  0  0  0
   -2.1508   -9.0799    2.5366 H   0  0  0  0  0  0  0  0  0  0  0  0
   -0.9961   -8.6384    1.2725 H   0  0  0  0  0  0  0  0  0  0  0  0
   -1.6807   -7.3985    2.3315 H   0  0  0  0  0  0  0  0  0  0  0  0
    1.2938   -8.5209    0.9572 H   0  0  0  0  0  0  0  0  0  0  0  0
    1.2518  -10.2949    2.9478 H   0  0  0  0  0  0  0  0  0  0  0  0
    2.9846  -10.1169    2.5829 H   0  0  0  0  0  0  0  0  0  0  0  0
    4.8727   -6.9697    2.4626 H   0  0  0  0  0  0  0  0  0  0  0  0
    3.9498   -5.2003    3.7174 H   0  0  0  0  0  0  0  0  0  0  0  0
    4.0631   -6.8080    5.7072 H   0  0  0  0  0  0  0  0  0  0  0  0
    2.6531   -5.7682    7.1966 H   0  0  0  0  0  0  0  0  0  0  0  0
    3.7221   -3.9055    5.8112 H   0  0  0  0  0  0  0  0  0  0  0  0
    2.2226   -3.7860    4.9249 H   0  0  0  0  0  0  0  0  0  0  0  0
    1.0977   -3.1747    6.8685 H   0  0  0  0  0  0  0  0  0  0  0  0
    2.1649   -1.2627    7.7723 H   0  0  0  0  0  0  0  0  0  0  0  0
    3.6752   -1.7809    7.1189 H   0  0  0  0  0  0  0  0  0  0  0  0
    2.7768   -1.5499    4.7869 H   0  0  0  0  0  0  0  0  0  0  0  0
    1.1999   -1.1404    5.4303 H   0  0  0  0  0  0  0  0  0  0  0  0
    2.1782    0.9725    6.3543 H   0  0  0  0  0  0  0  0  0  0  0  0
    3.7331    0.5475    5.7075 H   0  0  0  0  0  0  0  0  0  0  0  0
    2.9079    0.6273    3.5293 H   0  0  0  0  0  0  0  0  0  0  0  0
    1.5843    2.9006    4.8258 H   0  0  0  0  0  0  0  0  0  0  0  0
    3.3110    2.8007    4.5828 H   0  0  0  0  0  0  0  0  0  0  0  0
    2.9918    2.6331    2.1119 H   0  0  0  0  0  0  0  0  0  0  0  0
    1.2676    2.6770    2.3173 H   0  0  0  0  0  0  0  0  0  0  0  0
    2.0992    4.8938    1.6629 H   0  0  0  0  0  0  0  0  0  0  0  0
    1.3064    4.9672    3.2013 H   0  0  0  0  0  0  0  0  0  0  0  0
    3.3482    6.1796    3.1160 H   0  0  0  0  0  0  0  0  0  0  0  0
    4.1844    4.8323    2.6533 H   0  0  0  0  0  0  0  0  0  0  0  0
    0.2886   -5.5741    6.7967 H   0  0  0  0  0  0  0  0  0  0  0  0
    0.1262   -7.9577    6.1358 H   0  0  0  0  0  0  0  0  0  0  0  0
   -0.8340   -6.1532    4.7433 H   0  0  0  0  0  0  0  0  0  0  0  0
   -0.0078   -6.0137    2.5716 H   0  0  0  0  0  0  0  0  0  0  0  0
    2.1367   -4.9459    2.3513 H   0  0  0  0  0  0  0  0  0  0  0  0
    3.0261   -6.6422    0.8877 H   0  0  0  0  0  0  0  0  0  0  0  0
    2.5141   -8.6430    6.0575 H   0  0  0  0  0  0  0  0  0  0  0  0
    2.3465   -3.5880    7.8372 H   0  0  0  0  0  0  0  0  0  0  0  0
    3.5200    4.9278    4.1756 H   0  0  0  0  0  0  0  0  0  0  0  0
    1.3453    0.7377    4.0132 H   0  0  0  0  0  0  0  0  0  0  0  0
  1  2  1  0
  1 29  1  0
  1 30  1  0
  1 31  1  0
  3  2  1  1
  3  6  1  0
  3 25  1  0
  3  4  1  0
  4 27  1  0
  4  5  1  0
  4 32  1  6
  6  5  1  1
  5 33  1  0
  5 34  1  0
  6 28  1  0
  6  7  1  0
  7  8  1  0
  8 27  1  0
  8  9  1  0
  8 35  1  6
  9 26  1  0
  9 10  1  0
  9 36  1  1
 10 28  1  0
 10 11  1  0
 10 37  1  1
 11 12  1  0
 11 22  1  0
 11 38  1  1
 12 13  1  0
 12 39  1  0
 12 40  1  0
 13 14  1  0
 13 41  1  0
 13 64  1  0
 14 15  1  0
 14 42  1  0
 14 43  1  0
 15 16  1  0
 15 44  1  0
 15 45  1  0
 16 17  1  0
 16 46  1  0
 16 47  1  0
 17 18  1  0
 17 48  1  0
 17 66  1  0
 18 19  1  0
 18 49  1  0
 18 50  1  0
 19 20  1  0
 19 51  1  0
 19 52  1  0
 20 21  1  0
 20 53  1  0
 20 54  1  0
 21 55  1  0
 21 56  1  0
 21 65  1  0
 22 24  1  0
 22 23  1  0
 22 57  1  1
 23 24  1  0
 23 28  1  0
 23 58  1  1
 24 25  1  0
 24 59  1  6
 25 26  1  0
 25 60  1  6
 26 27  1  0
 26 61  1  6
 27 62  1  6
 28 63  1  1
M  CHG  3  13   1  17   1  21   1
M  END
>  <i_m_ct_stereo_status>  (252) 
1

>  <s_m_source_file>  (252) 
/var/tmp/pbs.5076255.sched01/tmpc36l9o9d/84wsylf1cs.sdf

>  <i_m_source_file_index>  (252) 
29

>  <i_lp_mmshare_version>  (252) 
48012

>  <i_f3d_flags>  (252) 
0

>  <s_epik_input>  (252) 
W0NIM11PW0NAQF0xKEMyMzQpW0NASF0oW0NIMl0yKVtDQEBIXTVbQ0BIXShPMylbQ0BASF02W0NAQEhdN1tDQEhdNFtDQEhdOFtDQEhdKFtDQEhdOFtDQEhdMVtDQEhdNTYpW0NAQEhdN1tDSDJdW05IXVtDSDJdW0NIMl1bQ0gyXVtOSF1bQ0gyXVtDSDJdW0NIMl1bTkgyXQ==

>  <s_epik_cmdline>  (252) 
J2VwaWtfcHl0aG9uJywgJy1waHQnLCAnMi4wJywgJy1waCcsICc3LjAnLCAnLXRuJywgJzgnLCAnLW1hJywgJzIwMCcsICctaW1hZScsICc8aW5maWxlLm1hZT4nLCAnLW9tYWUnLCAnPG91dGZpbGUubWFlPic=

>  <r_lp_tautomer_probability>  (252) 
1

>  <r_epik_Ionization_Penalty>  (252) 
0.00979871

>  <r_epik_Ionization_Penalty_Charging>  (252) 
0.00979871

>  <r_epik_Ionization_Penalty_Neutral>  (252) 
3.30249e-11

>  <r_epik_State_Penalty>  (252) 
-0

>  <r_epik_Charging_Adjusted_Penalty>  (252) 
0.00979871

>  <i_epik_Tot_Q>  (252) 
3

>  <i_epik_Tot_abs_Q>  (252) 
3

>  <s_lp_Force_Field>  (252) 
OPLS3e

>  <r_lp_Energy>  (252) 
214.478

>  <b_lp_Chiralities_Consistent>  (252) 
1

>  <s_lp_Variant>  (252) 
81:0-1

>  <s_i_glide_gridfile>  (252) 
pfpi4k_grid

>  <i_i_glide_lignum>  (252) 
29

>  <i_i_glide_rotatable_bonds>  (252) 
10

>  <r_i_docking_score>  (252) 
-1.29066

>  <r_i_glide_ligand_efficiency>  (252) 
-0.0460949

>  <r_i_glide_ligand_efficiency_sa>  (252) 
-0.139971

>  <r_i_glide_ligand_efficiency_ln>  (252) 
-0.297922

>  <r_i_glide_gscore>  (252) 
-1.29066

>  <r_i_glide_lipo>  (252) 
-0.0393054

>  <r_i_glide_hbond>  (252) 
0

>  <r_i_glide_metal>  (252) 
-0

>  <r_i_glide_rewards>  (252) 
-0.759772

>  <r_i_glide_evdw>  (252) 
-15.4406

>  <r_i_glide_ecoul>  (252) 
-5.00403

>  <r_i_glide_erotb>  (252) 
1.03244

>  <r_i_glide_esite>  (252) 
-0.00138835

>  <r_i_glide_emodel>  (252) 
-20.8078

>  <r_i_glide_energy>  (252) 
-20.4447

>  <r_i_glide_einternal>  (252) 
4.41443

>  <r_i_glide_intrahb_reward>  (252) 
-0

>  <i_i_glide_confnum>  (252) 
6

>  <i_i_glide_posenum>  (252) 
4

>  <r_i_glide_eff_state_penalty>  (252) 
0

>  <ligand_id>  (252) 
81

>  <original_smiles>  (252) 
COC12C3CC14OC1C5C6C(CNCCCNCCCN)C7C(C7C2C5C13)C64

>  <smiles>  (252) 
[H]C([H])([H])OC12C3([H])C([H])([H])C14OC1([H])C5([H])C([H])(C13[H])C2([H])C1([H])C2([H])C1([H])C([H])(C([H])([H])[N+]([H])([H])C([H])([H])C([H])([H])C([H])([H])[N+]([H])([H])C([H])([H])C([H])([H])C([H])([H])[N+]([H])([H])[H])C5([H])C24[H]

$$$$
82:0:0
     RDKit          3D

 58 65  0  0  1  0  0  0  0  0999 V2000
    2.2858   -3.0759    2.3230 C   0  0  0  0  0  0  0  0  0  0  0  0
    3.7299   -3.5938    2.0138 C   0  0  2  0  0  0  0  0  0  0  0  0
    4.1125   -4.5503    3.2346 C   0  0  1  0  0  0  0  0  0  0  0  0
    3.6093   -4.1148    4.4846 O   0  0  0  0  0  0  0  0  0  0  0  0
    3.8643   -6.0864    3.1614 C   0  0  1  0  0  0  0  0  0  0  0  0
    2.5651   -6.4675    2.7495 O   0  0  0  0  0  0  0  0  0  0  0  0
    4.9817   -6.7046    2.3547 C   0  0  1  0  0  0  0  0  0  0  0  0
    4.8704   -7.5072    1.1698 O   0  0  0  0  0  0  0  0  0  0  0  0
    5.0993   -6.1151    0.9806 C   0  0  2  0  0  0  0  0  0  0  0  0
    6.4874   -5.5142    0.7108 C   0  0  0  0  0  0  0  0  0  0  0  0
    6.8830   -4.3363    1.6608 C   0  0  0  0  0  0  0  0  0  0  0  0
    6.2443   -2.8714    1.7530 C   0  0  0  0  0  0  0  0  0  0  0  0
    4.7089   -2.4226    1.7803 C   0  0  1  0  0  0  0  0  0  0  0  0
    4.2000   -1.7457    0.4418 C   0  0  1  0  0  0  0  0  0  0  0  0
    5.3007   -1.1388   -0.4757 C   0  0  0  0  0  0  0  0  0  0  0  0
    5.8269   -2.0874   -1.6285 C   0  0  0  0  0  0  0  0  0  0  0  0
    4.7515   -2.7550   -2.5740 C   0  0  2  0  0  0  0  0  0  0  0  0
    5.0996   -4.1390   -2.9611 C   0  0  0  0  0  0  0  0  0  0  0  0
    4.6247   -2.1336   -3.8684 O   0  0  0  0  0  0  0  0  0  0  0  0
    3.6470   -1.1191   -3.8650 C   0  0  2  0  0  0  0  0  0  0  0  0
    3.8613   -0.1909   -2.8226 O   0  0  0  0  0  0  0  0  0  0  0  0
    3.0081   -1.3252   -2.5561 C   0  0  2  0  0  0  0  0  0  0  0  0
    3.4270   -2.6025   -1.8858 C   0  0  1  0  0  0  0  0  0  0  0  0
    2.2066   -3.5183   -1.7514 C   0  0  0  0  0  0  0  0  0  0  0  0
    2.0251   -3.0536   -0.4063 O   0  0  0  0  0  0  0  0  0  0  0  0
    3.4472   -2.8260   -0.3449 C   0  0  2  0  0  0  0  0  0  0  0  0
    3.9111   -4.0148    0.5162 C   0  0  2  0  0  0  0  0  0  0  0  0
    3.9437   -5.4870    0.2017 C   0  0  0  0  0  0  0  0  0  0  0  0
    1.5723   -3.8917    2.2153 H   0  0  0  0  0  0  0  0  0  0  0  0
    1.9455   -2.2500    1.7037 H   0  0  0  0  0  0  0  0  0  0  0  0
    2.1718   -2.6545    3.3169 H   0  0  0  0  0  0  0  0  0  0  0  0
    5.1578   -4.4341    3.4723 H   0  0  0  0  0  0  0  0  0  0  0  0
    3.9066   -3.2287    4.6265 H   0  0  0  0  0  0  0  0  0  0  0  0
    3.9804   -6.5003    4.1652 H   0  0  0  0  0  0  0  0  0  0  0  0
    2.4924   -6.2999    1.8228 H   0  0  0  0  0  0  0  0  0  0  0  0
    5.9105   -6.8538    2.8988 H   0  0  0  0  0  0  0  0  0  0  0  0
    7.2213   -6.3072    0.8411 H   0  0  0  0  0  0  0  0  0  0  0  0
    6.5851   -5.1998   -0.3264 H   0  0  0  0  0  0  0  0  0  0  0  0
    6.9574   -4.7686    2.6481 H   0  0  0  0  0  0  0  0  0  0  0  0
    7.9323   -4.1499    1.4573 H   0  0  0  0  0  0  0  0  0  0  0  0
    6.6040   -2.5155    2.7070 H   0  0  0  0  0  0  0  0  0  0  0  0
    6.8541   -2.2509    1.1161 H   0  0  0  0  0  0  0  0  0  0  0  0
    4.5848   -1.6946    2.5746 H   0  0  0  0  0  0  0  0  0  0  0  0
    3.5018   -0.9540    0.7001 H   0  0  0  0  0  0  0  0  0  0  0  0
    4.8950   -0.2324   -0.8884 H   0  0  0  0  0  0  0  0  0  0  0  0
    6.1097   -0.7103    0.0994 H   0  0  0  0  0  0  0  0  0  0  0  0
    6.5033   -1.5242   -2.2500 H   0  0  0  0  0  0  0  0  0  0  0  0
    6.4494   -2.8567   -1.1586 H   0  0  0  0  0  0  0  0  0  0  0  0
    5.3711   -4.7176   -2.0932 H   0  0  0  0  0  0  0  0  0  0  0  0
    5.9716   -4.0519   -3.5911 H   0  0  0  0  0  0  0  0  0  0  0  0
    4.3130   -4.6195   -3.5391 H   0  0  0  0  0  0  0  0  0  0  0  0
    3.0642   -0.8641   -4.7546 H   0  0  0  0  0  0  0  0  0  0  0  0
    2.0020   -1.0612   -2.3438 H   0  0  0  0  0  0  0  0  0  0  0  0
    1.3944   -3.2590   -2.4375 H   0  0  0  0  0  0  0  0  0  0  0  0
    2.2700   -4.5929   -1.6341 H   0  0  0  0  0  0  0  0  0  0  0  0
    4.9100   -3.9258    0.1409 H   0  0  0  0  0  0  0  0  0  0  0  0
    4.1708   -5.6881   -0.8295 H   0  0  0  0  0  0  0  0  0  0  0  0
    2.9917   -5.9702    0.4012 H   0  0  0  0  0  0  0  0  0  0  0  0
  2  1  1  6
  1 29  1  0
  1 30  1  0
  1 31  1  0
  2 13  1  0
  2 27  1  0
  2  3  1  0
  3  4  1  0
  3  5  1  0
  3 32  1  1
  4 33  1  0
  5  6  1  0
  5  7  1  0
  5 34  1  1
  6 35  1  0
  7  9  1  0
  7  8  1  0
  7 36  1  1
  9  8  1  6
  9 28  1  0
  9 10  1  0
 10 11  1  0
 10 37  1  0
 10 38  1  0
 11 12  1  0
 11 39  1  0
 11 40  1  0
 12 13  1  0
 12 41  1  0
 12 42  1  0
 13 14  1  0
 13 43  1  1
 14 26  1  0
 14 15  1  0
 14 44  1  1
 15 16  1  0
 15 45  1  0
 15 46  1  0
 16 17  1  0
 16 47  1  0
 16 48  1  0
 17 23  1  0
 17 18  1  6
 17 19  1  0
 18 49  1  0
 18 50  1  0
 18 51  1  0
 19 20  1  0
 20 22  1  0
 20 21  1  0
 20 52  1  6
 21 22  1  0
 22 23  1  0
 22 53  1  6
 23 26  1  0
 23 24  1  6
 24 25  1  0
 24 54  1  0
 24 55  1  0
 26 25  1  1
 26 27  1  0
 27 28  1  0
 27 56  1  1
 28 57  1  0
 28 58  1  0
M  END
>  <i_m_ct_stereo_status>  (253) 
1

>  <s_m_source_file>  (253) 
/var/tmp/pbs.5076255.sched01/tmpc36l9o9d/84wsylf1cs.sdf

>  <i_m_source_file_index>  (253) 
30

>  <i_lp_mmshare_version>  (253) 
48012

>  <i_f3d_flags>  (253) 
0

>  <s_epik_input>  (253) 
TzFbQ0BASF0oW0NAXTEyMylbQ0BIXShbT0hdKVtDQEhdKFtPSF0pW0NAQF00KFtDSDNdKVtDQEBIXShbQ0gyXVtDSDJdW0NIMl0yKVtDQEBIXTVbQ0BdNihbQ0BASF00W0NIMl0zKVtDQF03KFtDSDJdTzYpW0NAXShbQ0gzXSkoW0NIMl1bQ0gyXTUpT1tDQEhdOFtDQEBIXTdPOA==

>  <s_epik_cmdline>  (253) 
J2VwaWtfcHl0aG9uJywgJy1waHQnLCAnMi4wJywgJy1waCcsICc3LjAnLCAnLXRuJywgJzgnLCAnLW1hJywgJzIwMCcsICctaW1hZScsICc8aW5maWxlLm1hZT4nLCAnLW9tYWUnLCAnPG91dGZpbGUubWFlPic=

>  <r_lp_tautomer_probability>  (253) 
1

>  <r_epik_Ionization_Penalty>  (253) 
1.54395e-07

>  <r_epik_Ionization_Penalty_Charging>  (253) 
0

>  <r_epik_Ionization_Penalty_Neutral>  (253) 
1.54395e-07

>  <r_epik_State_Penalty>  (253) 
-0

>  <r_epik_Charging_Adjusted_Penalty>  (253) 
0

>  <i_epik_Tot_Q>  (253) 
0

>  <i_epik_Tot_abs_Q>  (253) 
0

>  <s_epik_Chemistry_Notes>  (253) 
This compound contains an acetal/aminal-like group ( X-CH(R)-Y where X, Y are N, S, or O) that may be acid/base labile, releasing an aldehyde.

>  <s_lp_Force_Field>  (253) 
OPLS3e

>  <r_lp_Energy>  (253) 
161.452

>  <b_lp_Chiralities_Consistent>  (253) 
1

>  <s_lp_Variant>  (253) 
82:0-1

>  <s_i_glide_gridfile>  (253) 
pfpi4k_grid

>  <i_i_glide_lignum>  (253) 
30

>  <i_i_glide_rotatable_bonds>  (253) 
2

>  <r_i_docking_score>  (253) 
-2.60815

>  <r_i_glide_ligand_efficiency>  (253) 
-0.0931483

>  <r_i_glide_ligand_efficiency_sa>  (253) 
-0.282853

>  <r_i_glide_ligand_efficiency_ln>  (253) 
-0.602038

>  <r_i_glide_gscore>  (253) 
-2.60815

>  <r_i_glide_lipo>  (253) 
-0.642769

>  <r_i_glide_hbond>  (253) 
-0.144888

>  <r_i_glide_metal>  (253) 
-0

>  <r_i_glide_rewards>  (253) 
-0.96467

>  <r_i_glide_evdw>  (253) 
-8.53111

>  <r_i_glide_ecoul>  (253) 
-2.8618

>  <r_i_glide_erotb>  (253) 
0

>  <r_i_glide_esite>  (253) 
0

>  <r_i_glide_emodel>  (253) 
-10.6524

>  <r_i_glide_energy>  (253) 
-11.3929

>  <r_i_glide_einternal>  (253) 
0.436283

>  <r_i_glide_intrahb_reward>  (253) 
-0

>  <i_i_glide_confnum>  (253) 
2

>  <i_i_glide_posenum>  (253) 
6

>  <r_i_glide_eff_state_penalty>  (253) 
0

>  <ligand_id>  (253) 
82

>  <original_smiles>  (253) 
CC12C(O)C(O)C3OC34CCCC1C1CCC3(C)OC5OC5C35COC15C2C4

>  <smiles>  (253) 
[H]OC1([H])C2([H])OC23C([H])([H])C([H])([H])C([H])([H])C2([H])C4([H])C([H])([H])C([H])([H])C5(C([H])([H])[H])OC6([H])OC6([H])C56C([H])([H])OC46C([H])(C3([H])[H])C2(C([H])([H])[H])C1([H])O[H]

$$$$
82:0:1
     RDKit          3D

 58 65  0  0  1  0  0  0  0  0999 V2000
    2.2176   -3.1395    2.2986 C   0  0  0  0  0  0  0  0  0  0  0  0
    3.6568   -3.6794    1.9996 C   0  0  2  0  0  0  0  0  0  0  0  0
    3.9828   -4.6769    3.2070 C   0  0  1  0  0  0  0  0  0  0  0  0
    3.4715   -4.2510    4.4532 O   0  0  0  0  0  0  0  0  0  0  0  0
    3.6995   -6.2068    3.0955 C   0  0  1  0  0  0  0  0  0  0  0  0
    2.3980   -6.5546    2.6604 O   0  0  0  0  0  0  0  0  0  0  0  0
    4.8146   -6.8340    2.2910 C   0  0  1  0  0  0  0  0  0  0  0  0
    4.6975   -7.6231    1.0942 O   0  0  0  0  0  0  0  0  0  0  0  0
    4.9575   -6.2253    0.9446 C   0  0  2  0  0  0  0  0  0  0  0  0
    6.3657   -5.6468    0.7077 C   0  0  0  0  0  0  0  0  0  0  0  0
    6.7917   -4.5024    1.6853 C   0  0  0  0  0  0  0  0  0  0  0  0
    6.1954   -3.0181    1.7668 C   0  0  0  0  0  0  0  0  0  0  0  0
    4.6679   -2.5347    1.7937 C   0  0  1  0  0  0  0  0  0  0  0  0
    4.1616   -1.8291    0.4539 C   0  0  1  0  0  0  0  0  0  0  0  0
    5.2864   -1.2194   -0.4490 C   0  0  0  0  0  0  0  0  0  0  0  0
    5.8051   -2.1625   -1.6119 C   0  0  0  0  0  0  0  0  0  0  0  0
    4.7143   -2.8026   -2.5659 C   0  0  2  0  0  0  0  0  0  0  0  0
    5.0315   -4.2003   -2.9839 C   0  0  0  0  0  0  0  0  0  0  0  0
    4.6287   -2.1382   -3.8465 O   0  0  0  0  0  0  0  0  0  0  0  0
    3.6644   -1.1279   -3.8422 C   0  0  2  0  0  0  0  0  0  0  0  0
    3.8711   -0.2124   -2.7800 O   0  0  0  0  0  0  0  0  0  0  0  0
    3.0013   -1.3317   -2.5308 C   0  0  2  0  0  0  0  0  0  0  0  0
    3.3979   -2.6398   -1.8820 C   0  0  1  0  0  0  0  0  0  0  0  0
    2.1471   -3.5155   -1.8040 C   0  0  0  0  0  0  0  0  0  0  0  0
    1.9673   -3.0667   -0.4556 O   0  0  0  0  0  0  0  0  0  0  0  0
    3.3868   -2.8757   -0.3619 C   0  0  2  0  0  0  0  0  0  0  0  0
    3.8266   -4.0784    0.4912 C   0  0  2  0  0  0  0  0  0  0  0  0
    3.8236   -5.5480    0.1675 C   0  0  0  0  0  0  0  0  0  0  0  0
    1.4852   -3.9413    2.1687 H   0  0  0  0  0  0  0  0  0  0  0  0
    1.8928   -2.2989    1.6888 H   0  0  0  0  0  0  0  0  0  0  0  0
    2.0969   -2.7364    3.3003 H   0  0  0  0  0  0  0  0  0  0  0  0
    5.0249   -4.5861    3.4521 H   0  0  0  0  0  0  0  0  0  0  0  0
    3.7834   -4.8440    5.1188 H   0  0  0  0  0  0  0  0  0  0  0  0
    3.7986   -6.6523    4.0853 H   0  0  0  0  0  0  0  0  0  0  0  0
    2.3395   -7.4999    2.6385 H   0  0  0  0  0  0  0  0  0  0  0  0
    5.7370   -7.0130    2.8471 H   0  0  0  0  0  0  0  0  0  0  0  0
    7.0792   -6.4632    0.8144 H   0  0  0  0  0  0  0  0  0  0  0  0
    6.4836   -5.3070   -0.3208 H   0  0  0  0  0  0  0  0  0  0  0  0
    6.8492   -4.9461    2.6740 H   0  0  0  0  0  0  0  0  0  0  0  0
    7.8488   -4.3437    1.4826 H   0  0  0  0  0  0  0  0  0  0  0  0
    6.5012   -2.6488    2.7326 H   0  0  0  0  0  0  0  0  0  0  0  0
    6.8207   -2.4209    1.1185 H   0  0  0  0  0  0  0  0  0  0  0  0
    4.5460   -1.8219    2.6090 H   0  0  0  0  0  0  0  0  0  0  0  0
    3.4809   -1.0222    0.7272 H   0  0  0  0  0  0  0  0  0  0  0  0
    4.9143   -0.2758   -0.8368 H   0  0  0  0  0  0  0  0  0  0  0  0
    6.1029   -0.8236    0.1502 H   0  0  0  0  0  0  0  0  0  0  0  0
    6.5078   -1.6136   -2.2178 H   0  0  0  0  0  0  0  0  0  0  0  0
    6.3936   -2.9517   -1.1448 H   0  0  0  0  0  0  0  0  0  0  0  0
    5.3053   -4.8199   -2.1371 H   0  0  0  0  0  0  0  0  0  0  0  0
    5.9045   -4.1333   -3.6214 H   0  0  0  0  0  0  0  0  0  0  0  0
    4.2243   -4.6363   -3.5817 H   0  0  0  0  0  0  0  0  0  0  0  0
    3.1028   -0.8378   -4.7261 H   0  0  0  0  0  0  0  0  0  0  0  0
    1.9974   -1.0116   -2.3472 H   0  0  0  0  0  0  0  0  0  0  0  0
    1.3534   -3.2151   -2.4886 H   0  0  0  0  0  0  0  0  0  0  0  0
    2.1883   -4.5962   -1.7476 H   0  0  0  0  0  0  0  0  0  0  0  0
    4.8359   -4.0130    0.1333 H   0  0  0  0  0  0  0  0  0  0  0  0
    4.0703   -5.7214   -0.8564 H   0  0  0  0  0  0  0  0  0  0  0  0
    2.8562   -6.0153    0.3478 H   0  0  0  0  0  0  0  0  0  0  0  0
  2  1  1  6
  1 29  1  0
  1 30  1  0
  1 31  1  0
  2 13  1  0
  2 27  1  0
  2  3  1  0
  3  4  1  0
  3  5  1  0
  3 32  1  1
  4 33  1  0
  5  6  1  0
  5  7  1  0
  5 34  1  1
  6 35  1  0
  7  9  1  0
  7  8  1  0
  7 36  1  1
  9  8  1  6
  9 28  1  0
  9 10  1  0
 10 11  1  0
 10 37  1  0
 10 38  1  0
 11 12  1  0
 11 39  1  0
 11 40  1  0
 12 13  1  0
 12 41  1  0
 12 42  1  0
 13 14  1  0
 13 43  1  1
 14 26  1  0
 14 15  1  0
 14 44  1  1
 15 16  1  0
 15 45  1  0
 15 46  1  0
 16 17  1  0
 16 47  1  0
 16 48  1  0
 17 23  1  0
 17 18  1  6
 17 19  1  0
 18 49  1  0
 18 50  1  0
 18 51  1  0
 19 20  1  0
 20 22  1  0
 20 21  1  0
 20 52  1  6
 21 22  1  0
 22 23  1  0
 22 53  1  6
 23 26  1  0
 23 24  1  6
 24 25  1  0
 24 54  1  0
 24 55  1  0
 26 25  1  1
 26 27  1  0
 27 28  1  0
 27 56  1  1
 28 57  1  0
 28 58  1  0
M  END
>  <i_m_ct_stereo_status>  (254) 
1

>  <s_m_source_file>  (254) 
/var/tmp/pbs.5076255.sched01/tmpc36l9o9d/84wsylf1cs.sdf

>  <i_m_source_file_index>  (254) 
30

>  <i_lp_mmshare_version>  (254) 
48012

>  <i_f3d_flags>  (254) 
0

>  <s_epik_input>  (254) 
TzFbQ0BASF0oW0NAXTEyMylbQ0BIXShbT0hdKVtDQEhdKFtPSF0pW0NAQF00KFtDSDNdKVtDQEBIXShbQ0gyXVtDSDJdW0NIMl0yKVtDQEBIXTVbQ0BdNihbQ0BASF00W0NIMl0zKVtDQF03KFtDSDJdTzYpW0NAXShbQ0gzXSkoW0NIMl1bQ0gyXTUpT1tDQEhdOFtDQEBIXTdPOA==

>  <s_epik_cmdline>  (254) 
J2VwaWtfcHl0aG9uJywgJy1waHQnLCAnMi4wJywgJy1waCcsICc3LjAnLCAnLXRuJywgJzgnLCAnLW1hJywgJzIwMCcsICctaW1hZScsICc8aW5maWxlLm1hZT4nLCAnLW9tYWUnLCAnPG91dGZpbGUubWFlPic=

>  <r_lp_tautomer_probability>  (254) 
1

>  <r_epik_Ionization_Penalty>  (254) 
1.54395e-07

>  <r_epik_Ionization_Penalty_Charging>  (254) 
0

>  <r_epik_Ionization_Penalty_Neutral>  (254) 
1.54395e-07

>  <r_epik_State_Penalty>  (254) 
-0

>  <r_epik_Charging_Adjusted_Penalty>  (254) 
0

>  <i_epik_Tot_Q>  (254) 
0

>  <i_epik_Tot_abs_Q>  (254) 
0

>  <s_epik_Chemistry_Notes>  (254) 
This compound contains an acetal/aminal-like group ( X-CH(R)-Y where X, Y are N, S, or O) that may be acid/base labile, releasing an aldehyde.

>  <s_lp_Force_Field>  (254) 
OPLS3e

>  <r_lp_Energy>  (254) 
161.452

>  <b_lp_Chiralities_Consistent>  (254) 
1

>  <s_lp_Variant>  (254) 
82:0-1

>  <s_i_glide_gridfile>  (254) 
pfpi4k_grid

>  <i_i_glide_lignum>  (254) 
30

>  <i_i_glide_rotatable_bonds>  (254) 
2

>  <r_i_docking_score>  (254) 
-2.58481

>  <r_i_glide_ligand_efficiency>  (254) 
-0.0923148

>  <r_i_glide_ligand_efficiency_sa>  (254) 
-0.280322

>  <r_i_glide_ligand_efficiency_ln>  (254) 
-0.596651

>  <r_i_glide_gscore>  (254) 
-2.58481

>  <r_i_glide_lipo>  (254) 
-0.634706

>  <r_i_glide_hbond>  (254) 
-0.136078

>  <r_i_glide_metal>  (254) 
-0

>  <r_i_glide_rewards>  (254) 
-0.973044

>  <r_i_glide_evdw>  (254) 
-7.42796

>  <r_i_glide_ecoul>  (254) 
-3.13058

>  <r_i_glide_erotb>  (254) 
0

>  <r_i_glide_esite>  (254) 
0

>  <r_i_glide_emodel>  (254) 
-11.0985

>  <r_i_glide_energy>  (254) 
-10.5585

>  <r_i_glide_einternal>  (254) 
0.691403

>  <r_i_glide_intrahb_reward>  (254) 
-0

>  <i_i_glide_confnum>  (254) 
2

>  <i_i_glide_posenum>  (254) 
8

>  <r_i_glide_eff_state_penalty>  (254) 
0

>  <ligand_id>  (254) 
82

>  <original_smiles>  (254) 
CC12C(O)C(O)C3OC34CCCC1C1CCC3(C)OC5OC5C35COC15C2C4

>  <smiles>  (254) 
[H]OC1([H])C2([H])OC23C([H])([H])C([H])([H])C([H])([H])C2([H])C4([H])C([H])([H])C([H])([H])C5(C([H])([H])[H])OC6([H])OC6([H])C56C([H])([H])OC46C([H])(C3([H])[H])C2(C([H])([H])[H])C1([H])O[H]

$$$$
83:0:0
     RDKit          3D

 33 39  0  0  1  0  0  0  0  0999 V2000
    4.7799   -3.9134    3.8943 O   0  0  0  0  0  0  0  0  0  0  0  0
    4.5852   -3.4893    2.7648 C   0  0  0  0  0  0  0  0  0  0  0  0
    3.2707   -2.7099    2.5015 C   0  0  0  0  0  0  0  0  0  0  0  0
    3.2014   -2.1277    1.0844 C   0  0  1  0  0  0  0  0  0  0  0  0
    4.2039   -0.9944    0.9800 C   0  0  0  0  0  0  0  0  0  0  0  0
    5.5635   -1.1672    0.9438 C   0  0  0  0  0  0  0  0  0  0  0  0
    6.2518   -2.5158    0.9557 C   0  0  1  0  0  0  0  0  0  0  0  0
    5.4798   -3.7090    1.5737 C   0  0  2  0  0  0  0  0  0  0  0  0
    4.8107   -3.9023    0.2048 C   0  0  1  0  0  0  0  0  0  0  0  0
    3.3959   -3.2898    0.0700 C   0  0  2  0  0  0  0  0  0  0  0  0
    2.9450   -2.9637   -1.3413 C   0  0  2  0  0  0  0  0  0  0  0  0
    3.7498   -3.2644   -2.5910 C   0  0  1  0  0  0  0  0  0  0  0  0
    3.5520   -1.8434   -2.1149 C   0  0  2  0  0  0  0  0  0  0  0  0
    5.0179   -1.5704   -2.1745 C   0  0  2  0  0  0  0  0  0  0  0  0
    6.1156   -2.5153   -1.6916 C   0  0  1  0  0  0  0  0  0  0  0  0
    6.0833   -3.2501   -0.3845 C   0  0  1  0  0  0  0  0  0  0  0  0
    5.1984   -2.9494   -2.7950 C   0  0  1  0  0  0  0  0  0  0  0  0
    2.4416   -3.3925    2.6628 H   0  0  0  0  0  0  0  0  0  0  0  0
    3.1973   -1.9151    3.2394 H   0  0  0  0  0  0  0  0  0  0  0  0
    2.2075   -1.6788    0.9239 H   0  0  0  0  0  0  0  0  0  0  0  0
    3.8181   -0.0023    0.9719 H   0  0  0  0  0  0  0  0  0  0  0  0
    6.2007   -0.3038    0.8648 H   0  0  0  0  0  0  0  0  0  0  0  0
    7.2906   -2.4630    1.2730 H   0  0  0  0  0  0  0  0  0  0  0  0
    6.1904   -4.5322    1.7350 H   0  0  0  0  0  0  0  0  0  0  0  0
    4.8006   -4.9584   -0.0747 H   0  0  0  0  0  0  0  0  0  0  0  0
    2.6957   -4.0659    0.3719 H   0  0  0  0  0  0  0  0  0  0  0  0
    1.8630   -3.0612   -1.4653 H   0  0  0  0  0  0  0  0  0  0  0  0
    3.1814   -3.6034   -3.4598 H   0  0  0  0  0  0  0  0  0  0  0  0
    2.8912   -1.2115   -2.7089 H   0  0  0  0  0  0  0  0  0  0  0  0
    5.3541   -0.6740   -2.6947 H   0  0  0  0  0  0  0  0  0  0  0  0
    7.1154   -2.2417   -2.0177 H   0  0  0  0  0  0  0  0  0  0  0  0
    6.8407   -4.0395   -0.4290 H   0  0  0  0  0  0  0  0  0  0  0  0
    5.5958   -3.0142   -3.8091 H   0  0  0  0  0  0  0  0  0  0  0  0
  1  2  2  0
  2  8  1  0
  2  3  1  0
  3  4  1  0
  3 18  1  0
  3 19  1  0
  4 10  1  0
  4  5  1  0
  4 20  1  6
  5  6  2  0
  5 21  1  0
  6  7  1  0
  6 22  1  0
  7 16  1  0
  7  8  1  0
  7 23  1  1
  8  9  1  0
  8 24  1  1
  9 16  1  0
  9 10  1  0
  9 25  1  6
 10 11  1  0
 10 26  1  1
 11 13  1  0
 11 12  1  0
 11 27  1  6
 12 17  1  0
 12 13  1  0
 12 28  1  6
 13 14  1  0
 13 29  1  6
 14 17  1  0
 14 15  1  0
 14 30  1  6
 15 16  1  0
 15 17  1  0
 15 31  1  6
 16 32  1  6
 17 33  1  6
M  END
>  <i_m_ct_stereo_status>  (255) 
1

>  <s_m_source_file>  (255) 
/var/tmp/pbs.5076255.sched01/tmpc36l9o9d/84wsylf1cs.sdf

>  <i_m_source_file_index>  (255) 
31

>  <i_lp_mmshare_version>  (255) 
48012

>  <i_f3d_flags>  (255) 
2

>  <s_epik_input>  (255) 
W0NASF0xMltDQEBIXTNbQ0BASF00W0NASF0oQyg9TylbQ0gyXTEpW0NASF0oW0NIXT1bQ0hdMilbQ0BASF00W0NASF01W0NASF02W0NASF03W0NAQEhdM1tDQEhdN1tDQEBIXTU2

>  <s_epik_cmdline>  (255) 
J2VwaWtfcHl0aG9uJywgJy1waHQnLCAnMi4wJywgJy1waCcsICc3LjAnLCAnLXRuJywgJzgnLCAnLW1hJywgJzIwMCcsICctaW1hZScsICc8aW5maWxlLm1hZT4nLCAnLW9tYWUnLCAnPG91dGZpbGUubWFlPic=

>  <r_lp_tautomer_probability>  (255) 
1

>  <r_epik_Ionization_Penalty>  (255) 
8.06452e-14

>  <r_epik_Ionization_Penalty_Charging>  (255) 
0

>  <r_epik_Ionization_Penalty_Neutral>  (255) 
8.06452e-14

>  <r_epik_State_Penalty>  (255) 
-0

>  <r_epik_Charging_Adjusted_Penalty>  (255) 
0

>  <i_epik_Tot_Q>  (255) 
0

>  <i_epik_Tot_abs_Q>  (255) 
0

>  <s_lp_Force_Field>  (255) 
OPLS3e

>  <r_lp_Energy>  (255) 
60.1953

>  <b_lp_Chiralities_Consistent>  (255) 
0

>  <s_lp_Variant>  (255) 
83:0-1

>  <s_i_glide_gridfile>  (255) 
pfpi4k_grid

>  <i_i_glide_lignum>  (255) 
31

>  <i_i_glide_rotatable_bonds>  (255) 
0

>  <r_i_docking_score>  (255) 
-3.59879

>  <r_i_glide_ligand_efficiency>  (255) 
-0.211694

>  <r_i_glide_ligand_efficiency_sa>  (255) 
-0.544324

>  <r_i_glide_ligand_efficiency_ln>  (255) 
-0.938844

>  <r_i_glide_gscore>  (255) 
-3.59879

>  <r_i_glide_lipo>  (255) 
-0.577027

>  <r_i_glide_hbond>  (255) 
0

>  <r_i_glide_metal>  (255) 
-0

>  <r_i_glide_rewards>  (255) 
-1.90977

>  <r_i_glide_evdw>  (255) 
-21.0075

>  <r_i_glide_ecoul>  (255) 
-0.410772

>  <r_i_glide_erotb>  (255) 
0

>  <r_i_glide_esite>  (255) 
0

>  <r_i_glide_emodel>  (255) 
-25.6593

>  <r_i_glide_energy>  (255) 
-21.4183

>  <r_i_glide_einternal>  (255) 
0

>  <r_i_glide_intrahb_reward>  (255) 
-0

>  <i_i_glide_confnum>  (255) 
1

>  <i_i_glide_posenum>  (255) 
1

>  <r_i_glide_eff_state_penalty>  (255) 
0

>  <ligand_id>  (255) 
83

>  <original_smiles>  (255) 
O=C1CC2C=CC3C1C1C2C2C4C2C2C(C31)C42

>  <smiles>  (255) 
[H]C1=C([H])C2([H])C3([H])C(=O)C([H])([H])C1([H])C1([H])C3([H])C2([H])C2([H])C3([H])C4([H])C1([H])C4([H])C23[H]

$$$$
83:0:1
     RDKit          3D

 33 39  0  0  1  0  0  0  0  0999 V2000
    5.3152   -2.5487    3.0160 O   0  0  0  0  0  0  0  0  0  0  0  0
    5.1454   -2.4646    1.8067 C   0  0  0  0  0  0  0  0  0  0  0  0
    6.2952   -1.9180    0.9395 C   0  0  0  0  0  0  0  0  0  0  0  0
    5.9925   -1.9647   -0.5631 C   0  0  1  0  0  0  0  0  0  0  0  0
    5.9859   -3.4249   -1.0087 C   0  0  0  0  0  0  0  0  0  0  0  0
    5.0380   -4.3225   -0.6921 C   0  0  0  0  0  0  0  0  0  0  0  0
    3.7907   -4.0007    0.1196 C   0  0  1  0  0  0  0  0  0  0  0  0
    3.8545   -2.7932    1.0819 C   0  0  2  0  0  0  0  0  0  0  0  0
    3.4864   -1.8995   -0.1177 C   0  0  1  0  0  0  0  0  0  0  0  0
    4.6603   -1.2026   -0.8202 C   0  0  2  0  0  0  0  0  0  0  0  0
    4.4486   -0.8067   -2.2763 C   0  0  2  0  0  0  0  0  0  0  0  0
    3.1451   -0.9902   -3.0281 C   0  0  1  0  0  0  0  0  0  0  0  0
    4.3715   -1.8090   -3.3694 C   0  0  2  0  0  0  0  0  0  0  0  0
    3.5915   -3.0954   -3.2628 C   0  0  2  0  0  0  0  0  0  0  0  0
    2.5768   -3.3981   -2.1657 C   0  0  1  0  0  0  0  0  0  0  0  0
    2.7943   -3.1600   -0.6915 C   0  0  1  0  0  0  0  0  0  0  0  0
    2.3404   -2.2680   -3.0995 C   0  0  1  0  0  0  0  0  0  0  0  0
    6.4875   -0.8904    1.2423 H   0  0  0  0  0  0  0  0  0  0  0  0
    7.1887   -2.4993    1.1558 H   0  0  0  0  0  0  0  0  0  0  0  0
    6.7930   -1.4716   -1.1151 H   0  0  0  0  0  0  0  0  0  0  0  0
    6.8320   -3.7426   -1.5900 H   0  0  0  0  0  0  0  0  0  0  0  0
    5.1008   -5.3368   -1.0646 H   0  0  0  0  0  0  0  0  0  0  0  0
    3.3366   -4.8891    0.5588 H   0  0  0  0  0  0  0  0  0  0  0  0
    3.0042   -2.8418    1.7676 H   0  0  0  0  0  0  0  0  0  0  0  0
    2.7244   -1.1786    0.1712 H   0  0  0  0  0  0  0  0  0  0  0  0
    4.7778   -0.2395   -0.3213 H   0  0  0  0  0  0  0  0  0  0  0  0
    4.9999    0.0961   -2.5389 H   0  0  0  0  0  0  0  0  0  0  0  0
    2.8359   -0.1641   -3.6654 H   0  0  0  0  0  0  0  0  0  0  0  0
    4.8587   -1.5821   -4.3102 H   0  0  0  0  0  0  0  0  0  0  0  0
    3.6747   -3.8293   -4.0626 H   0  0  0  0  0  0  0  0  0  0  0  0
    1.9153   -4.2415   -2.3639 H   0  0  0  0  0  0  0  0  0  0  0  0
    1.8200   -3.2286   -0.2040 H   0  0  0  0  0  0  0  0  0  0  0  0
    1.5663   -2.3742   -3.8543 H   0  0  0  0  0  0  0  0  0  0  0  0
  1  2  2  0
  2  8  1  0
  2  3  1  0
  3  4  1  0
  3 18  1  0
  3 19  1  0
  4 10  1  0
  4  5  1  0
  4 20  1  6
  5  6  2  0
  5 21  1  0
  6  7  1  0
  6 22  1  0
  7 16  1  0
  7  8  1  0
  7 23  1  1
  8  9  1  0
  8 24  1  1
  9 16  1  0
  9 10  1  0
  9 25  1  1
 10 11  1  0
 10 26  1  1
 11 13  1  0
 11 12  1  0
 11 27  1  6
 12 17  1  0
 12 13  1  0
 12 28  1  6
 13 14  1  0
 13 29  1  6
 14 17  1  0
 14 15  1  0
 14 30  1  6
 15 16  1  0
 15 17  1  0
 15 31  1  1
 16 32  1  1
 17 33  1  6
M  END
>  <i_m_ct_stereo_status>  (256) 
1

>  <s_m_source_file>  (256) 
/var/tmp/pbs.5076255.sched01/tmpc36l9o9d/84wsylf1cs.sdf

>  <i_m_source_file_index>  (256) 
31

>  <i_lp_mmshare_version>  (256) 
48012

>  <i_f3d_flags>  (256) 
2

>  <s_epik_input>  (256) 
W0NASF0xMltDQEBIXTNbQ0BASF00W0NASF0oQyg9TylbQ0gyXTEpW0NASF0oW0NIXT1bQ0hdMilbQ0BASF00W0NASF01W0NASF02W0NASF03W0NAQEhdM1tDQEhdN1tDQEBIXTU2

>  <s_epik_cmdline>  (256) 
J2VwaWtfcHl0aG9uJywgJy1waHQnLCAnMi4wJywgJy1waCcsICc3LjAnLCAnLXRuJywgJzgnLCAnLW1hJywgJzIwMCcsICctaW1hZScsICc8aW5maWxlLm1hZT4nLCAnLW9tYWUnLCAnPG91dGZpbGUubWFlPic=

>  <r_lp_tautomer_probability>  (256) 
1

>  <r_epik_Ionization_Penalty>  (256) 
8.06452e-14

>  <r_epik_Ionization_Penalty_Charging>  (256) 
0

>  <r_epik_Ionization_Penalty_Neutral>  (256) 
8.06452e-14

>  <r_epik_State_Penalty>  (256) 
-0

>  <r_epik_Charging_Adjusted_Penalty>  (256) 
0

>  <i_epik_Tot_Q>  (256) 
0

>  <i_epik_Tot_abs_Q>  (256) 
0

>  <s_lp_Force_Field>  (256) 
OPLS3e

>  <r_lp_Energy>  (256) 
60.1953

>  <b_lp_Chiralities_Consistent>  (256) 
0

>  <s_lp_Variant>  (256) 
83:0-1

>  <s_i_glide_gridfile>  (256) 
pfpi4k_grid

>  <i_i_glide_lignum>  (256) 
31

>  <i_i_glide_rotatable_bonds>  (256) 
0

>  <r_i_docking_score>  (256) 
-3.59421

>  <r_i_glide_ligand_efficiency>  (256) 
-0.211424

>  <r_i_glide_ligand_efficiency_sa>  (256) 
-0.543631

>  <r_i_glide_ligand_efficiency_ln>  (256) 
-0.937649

>  <r_i_glide_gscore>  (256) 
-3.59421

>  <r_i_glide_lipo>  (256) 
-0.618485

>  <r_i_glide_hbond>  (256) 
0

>  <r_i_glide_metal>  (256) 
-0

>  <r_i_glide_rewards>  (256) 
-1.94883

>  <r_i_glide_evdw>  (256) 
-20.5951

>  <r_i_glide_ecoul>  (256) 
0.0191005

>  <r_i_glide_erotb>  (256) 
0

>  <r_i_glide_esite>  (256) 
0

>  <r_i_glide_emodel>  (256) 
-24.8084

>  <r_i_glide_energy>  (256) 
-20.576

>  <r_i_glide_einternal>  (256) 
0

>  <r_i_glide_intrahb_reward>  (256) 
-0

>  <i_i_glide_confnum>  (256) 
1

>  <i_i_glide_posenum>  (256) 
24

>  <r_i_glide_eff_state_penalty>  (256) 
0

>  <ligand_id>  (256) 
83

>  <original_smiles>  (256) 
O=C1CC2C=CC3C1C1C2C2C4C2C2C(C31)C42

>  <smiles>  (256) 
[H]C1=C([H])C2([H])C3([H])C(=O)C([H])([H])C1([H])C1([H])C3([H])C2([H])C2([H])C3([H])C4([H])C1([H])C4([H])C23[H]

$$$$
83:0:2
     RDKit          3D

 33 39  0  0  1  0  0  0  0  0999 V2000
    2.3280   -1.9856    3.9448 O   0  0  0  0  0  0  0  0  0  0  0  0
    2.9760   -1.9835    2.8922 C   0  0  0  0  0  0  0  0  0  0  0  0
    3.6306   -0.6626    2.4612 C   0  0  0  0  0  0  0  0  0  0  0  0
    4.4944   -0.8051    1.1996 C   0  0  1  0  0  0  0  0  0  0  0  0
    5.7253   -1.6361    1.5453 C   0  0  0  0  0  0  0  0  0  0  0  0
    5.7118   -2.9673    1.8180 C   0  0  0  0  0  0  0  0  0  0  0  0
    4.4653   -3.8405    1.7694 C   0  0  1  0  0  0  0  0  0  0  0  0
    3.0916   -3.1490    1.9438 C   0  0  2  0  0  0  0  0  0  0  0  0
    3.1347   -2.8397    0.4381 C   0  0  1  0  0  0  0  0  0  0  0  0
    3.6022   -1.4084    0.0806 C   0  0  2  0  0  0  0  0  0  0  0  0
    4.1556   -1.2634   -1.3232 C   0  0  2  0  0  0  0  0  0  0  0  0
    4.2152   -2.3666   -2.3589 C   0  0  1  0  0  0  0  0  0  0  0  0
    5.4679   -1.8469   -1.6798 C   0  0  2  0  0  0  0  0  0  0  0  0
    5.9155   -3.2333   -1.3435 C   0  0  2  0  0  0  0  0  0  0  0  0
    5.0171   -4.3263   -0.7834 C   0  0  1  0  0  0  0  0  0  0  0  0
    4.0205   -4.1083    0.3243 C   0  0  1  0  0  0  0  0  0  0  0  0
    4.7305   -3.7676   -2.1440 C   0  0  1  0  0  0  0  0  0  0  0  0
    2.8431    0.0723    2.2696 H   0  0  0  0  0  0  0  0  0  0  0  0
    4.2444   -0.2913    3.2731 H   0  0  0  0  0  0  0  0  0  0  0  0
    4.8554    0.1822    0.8656 H   0  0  0  0  0  0  0  0  0  0  0  0
    6.6505   -1.1009    1.6097 H   0  0  0  0  0  0  0  0  0  0  0  0
    6.6428   -3.4797    2.0461 H   0  0  0  0  0  0  0  0  0  0  0  0
    4.5738   -4.7641    2.3489 H   0  0  0  0  0  0  0  0  0  0  0  0
    2.3394   -3.9216    2.1264 H   0  0  0  0  0  0  0  0  0  0  0  0
    2.1742   -3.0642   -0.0242 H   0  0  0  0  0  0  0  0  0  0  0  0
    2.7097   -0.7851    0.0728 H   0  0  0  0  0  0  0  0  0  0  0  0
    4.0161   -0.2568   -1.7282 H   0  0  0  0  0  0  0  0  0  0  0  0
    4.0360   -2.0679   -3.3921 H   0  0  0  0  0  0  0  0  0  0  0  0
    6.1554   -1.2326   -2.2454 H   0  0  0  0  0  0  0  0  0  0  0  0
    6.9173   -3.5258   -1.6668 H   0  0  0  0  0  0  0  0  0  0  0  0
    5.4780   -5.3117   -0.7659 H   0  0  0  0  0  0  0  0  0  0  0  0
    3.3463   -4.9690    0.3281 H   0  0  0  0  0  0  0  0  0  0  0  0
    4.9768   -4.3583   -3.0254 H   0  0  0  0  0  0  0  0  0  0  0  0
  1  2  2  0
  2  8  1  0
  2  3  1  0
  3  4  1  0
  3 18  1  0
  3 19  1  0
  4 10  1  0
  4  5  1  0
  4 20  1  6
  5  6  2  0
  5 21  1  0
  6  7  1  0
  6 22  1  0
  7 16  1  0
  7  8  1  0
  7 23  1  1
  8  9  1  0
  8 24  1  6
  9 16  1  0
  9 10  1  0
  9 25  1  6
 10 11  1  0
 10 26  1  6
 11 13  1  0
 11 12  1  0
 11 27  1  6
 12 17  1  0
 12 13  1  0
 12 28  1  6
 13 14  1  0
 13 29  1  6
 14 17  1  0
 14 15  1  0
 14 30  1  6
 15 16  1  0
 15 17  1  0
 15 31  1  6
 16 32  1  1
 17 33  1  6
M  END
>  <i_m_ct_stereo_status>  (257) 
1

>  <s_m_source_file>  (257) 
/var/tmp/pbs.5076255.sched01/tmpc36l9o9d/84wsylf1cs.sdf

>  <i_m_source_file_index>  (257) 
31

>  <i_lp_mmshare_version>  (257) 
48012

>  <i_f3d_flags>  (257) 
2

>  <s_epik_input>  (257) 
W0NASF0xMltDQEBIXTNbQ0BASF00W0NASF0oQyg9TylbQ0gyXTEpW0NASF0oW0NIXT1bQ0hdMilbQ0BASF00W0NASF01W0NASF02W0NASF03W0NAQEhdM1tDQEhdN1tDQEBIXTU2

>  <s_epik_cmdline>  (257) 
J2VwaWtfcHl0aG9uJywgJy1waHQnLCAnMi4wJywgJy1waCcsICc3LjAnLCAnLXRuJywgJzgnLCAnLW1hJywgJzIwMCcsICctaW1hZScsICc8aW5maWxlLm1hZT4nLCAnLW9tYWUnLCAnPG91dGZpbGUubWFlPic=

>  <r_lp_tautomer_probability>  (257) 
1

>  <r_epik_Ionization_Penalty>  (257) 
8.06452e-14

>  <r_epik_Ionization_Penalty_Charging>  (257) 
0

>  <r_epik_Ionization_Penalty_Neutral>  (257) 
8.06452e-14

>  <r_epik_State_Penalty>  (257) 
-0

>  <r_epik_Charging_Adjusted_Penalty>  (257) 
0

>  <i_epik_Tot_Q>  (257) 
0

>  <i_epik_Tot_abs_Q>  (257) 
0

>  <s_lp_Force_Field>  (257) 
OPLS3e

>  <r_lp_Energy>  (257) 
60.1953

>  <b_lp_Chiralities_Consistent>  (257) 
0

>  <s_lp_Variant>  (257) 
83:0-1

>  <s_i_glide_gridfile>  (257) 
pfpi4k_grid

>  <i_i_glide_lignum>  (257) 
31

>  <i_i_glide_rotatable_bonds>  (257) 
0

>  <r_i_docking_score>  (257) 
-3.33909

>  <r_i_glide_ligand_efficiency>  (257) 
-0.196417

>  <r_i_glide_ligand_efficiency_sa>  (257) 
-0.505044

>  <r_i_glide_ligand_efficiency_ln>  (257) 
-0.871094

>  <r_i_glide_gscore>  (257) 
-3.33909

>  <r_i_glide_lipo>  (257) 
-0.524205

>  <r_i_glide_hbond>  (257) 
0

>  <r_i_glide_metal>  (257) 
-0

>  <r_i_glide_rewards>  (257) 
-1.87979

>  <r_i_glide_evdw>  (257) 
-18.7262

>  <r_i_glide_ecoul>  (257) 
0.0193387

>  <r_i_glide_erotb>  (257) 
0

>  <r_i_glide_esite>  (257) 
-0.0016901

>  <r_i_glide_emodel>  (257) 
-22.5814

>  <r_i_glide_energy>  (257) 
-18.7068

>  <r_i_glide_einternal>  (257) 
0

>  <r_i_glide_intrahb_reward>  (257) 
-0

>  <i_i_glide_confnum>  (257) 
2

>  <i_i_glide_posenum>  (257) 
14

>  <r_i_glide_eff_state_penalty>  (257) 
0

>  <ligand_id>  (257) 
83

>  <original_smiles>  (257) 
O=C1CC2C=CC3C1C1C2C2C4C2C2C(C31)C42

>  <smiles>  (257) 
[H]C1=C([H])C2([H])C3([H])C(=O)C([H])([H])C1([H])C1([H])C3([H])C2([H])C2([H])C3([H])C4([H])C1([H])C4([H])C23[H]

$$$$
84:0:0
     RDKit          3D

 28 30  0  0  1  0  0  0  0  0999 V2000
    3.4102   -0.6361   -3.7283 C   0  0  0  0  0  0  0  0  0  0  0  0
    4.5201   -1.6254   -2.6363 S   0  0  0  0  0  0  0  0  0  0  0  0
    5.0795   -2.7336   -3.4276 O   0  0  0  0  0  0  0  0  0  0  0  0
    5.4043   -0.7002   -1.9302 O   0  0  0  0  0  0  0  0  0  0  0  0
    3.4825   -2.3367   -1.4623 N   0  0  0  0  0  0  0  0  0  0  0  0
    2.3752   -3.2416   -1.8667 C   0  0  0  0  0  0  0  0  0  0  0  0
    2.1952   -4.2047   -0.6899 C   0  0  0  0  0  0  0  0  0  0  0  0
    1.3802   -5.1863   -0.6426 O   0  0  0  0  0  0  0  0  0  0  0  0
    3.0698   -3.7862    0.3060 N   0  0  0  0  0  0  0  0  0  0  0  0
    3.9870   -2.9407   -0.3066 C   0  0  0  0  0  0  0  0  0  0  0  0
    5.0839   -3.5177    0.0866 N   0  0  0  0  0  0  0  0  0  0  0  0
    4.2049   -4.4419    0.9195 C   0  0  0  0  0  0  0  0  0  0  0  0
    4.3428   -4.0489    2.3743 C   0  0  0  0  0  0  0  0  0  0  0  0
    3.3074   -4.7116    3.0815 O   0  0  0  0  0  0  0  0  0  0  0  0
    3.3791   -6.0910    2.9022 C   0  0  0  0  0  0  0  0  0  0  0  0
    3.2275   -6.4795    1.5643 O   0  0  0  0  0  0  0  0  0  0  0  0
    4.2501   -5.9580    0.7102 C   0  0  0  0  0  0  0  0  0  0  0  0
    3.9985   -0.1432   -4.4982 H   0  0  0  0  0  0  0  0  0  0  0  0
    2.8876    0.1327   -3.1564 H   0  0  0  0  0  0  0  0  0  0  0  0
    2.6772   -1.2784   -4.2148 H   0  0  0  0  0  0  0  0  0  0  0  0
    1.4582   -2.6942   -2.0232 H   0  0  0  0  0  0  0  0  0  0  0  0
    2.6181   -3.7702   -2.7790 H   0  0  0  0  0  0  0  0  0  0  0  0
    5.3390   -4.3234    2.7342 H   0  0  0  0  0  0  0  0  0  0  0  0
    4.2557   -2.9621    2.4786 H   0  0  0  0  0  0  0  0  0  0  0  0
    4.3297   -6.4628    3.2851 H   0  0  0  0  0  0  0  0  0  0  0  0
    2.5703   -6.5146    3.4906 H   0  0  0  0  0  0  0  0  0  0  0  0
    4.0444   -6.2620   -0.3160 H   0  0  0  0  0  0  0  0  0  0  0  0
    5.2119   -6.3899    0.9892 H   0  0  0  0  0  0  0  0  0  0  0  0
  1  2  1  0
  1 18  1  0
  1 19  1  0
  1 20  1  0
  2  3  2  0
  2  4  2  0
  2  5  1  0
  5 10  1  0
  5  6  1  0
  6  7  1  0
  6 21  1  0
  6 22  1  0
  7  8  2  0
  7  9  1  0
  9 12  1  0
  9 10  1  0
 10 11  2  0
 11 12  1  0
 12 17  1  0
 12 13  1  0
 13 14  1  0
 13 23  1  0
 13 24  1  0
 14 15  1  0
 15 16  1  0
 15 25  1  0
 15 26  1  0
 16 17  1  0
 17 27  1  0
 17 28  1  0
M  END
>  <i_m_ct_stereo_status>  (258) 
1

>  <s_m_source_file>  (258) 
/var/tmp/pbs.5076255.sched01/tmpc36l9o9d/84wsylf1cs.sdf

>  <i_m_source_file_index>  (258) 
32

>  <i_lp_mmshare_version>  (258) 
48012

>  <i_f3d_flags>  (258) 
0

>  <s_epik_input>  (258) 
Tz1DMVtDSDJdTihTKD1PKSg9TylbQ0gzXSlDKD1OMilOMUMyM1tDSDJdT1tDSDJdT1tDSDJdMw==

>  <s_epik_cmdline>  (258) 
J2VwaWtfcHl0aG9uJywgJy1waHQnLCAnMi4wJywgJy1waCcsICc3LjAnLCAnLXRuJywgJzgnLCAnLW1hJywgJzIwMCcsICctaW1hZScsICc8aW5maWxlLm1hZT4nLCAnLW9tYWUnLCAnPG91dGZpbGUubWFlPic=

>  <r_lp_tautomer_probability>  (258) 
1

>  <r_epik_Ionization_Penalty>  (258) 
2.81595e-07

>  <r_epik_Ionization_Penalty_Charging>  (258) 
0

>  <r_epik_Ionization_Penalty_Neutral>  (258) 
2.81595e-07

>  <r_epik_State_Penalty>  (258) 
-0

>  <r_epik_Charging_Adjusted_Penalty>  (258) 
0

>  <i_epik_Tot_Q>  (258) 
0

>  <i_epik_Tot_abs_Q>  (258) 
0

>  <s_epik_Chemistry_Notes>  (258) 
This compound has an imine and may undergo hydrolysis. This compound contains an acetal/aminal-like group ( X-CH(R)-Y where X, Y are N, S, or O) that may be acid/base labile, releasing an aldehyde.

>  <s_lp_Force_Field>  (258) 
OPLS3e

>  <r_lp_Energy>  (258) 
29.5385

>  <b_lp_Chiralities_Consistent>  (258) 
1

>  <s_lp_Variant>  (258) 
84:0-1

>  <s_i_glide_gridfile>  (258) 
pfpi4k_grid

>  <i_i_glide_lignum>  (258) 
32

>  <i_i_glide_rotatable_bonds>  (258) 
1

>  <r_i_docking_score>  (258) 
-4.41337

>  <r_i_glide_ligand_efficiency>  (258) 
-0.25961

>  <r_i_glide_ligand_efficiency_sa>  (258) 
-0.66753

>  <r_i_glide_ligand_efficiency_ln>  (258) 
-1.15135

>  <r_i_glide_gscore>  (258) 
-4.41337

>  <r_i_glide_lipo>  (258) 
-0.462842

>  <r_i_glide_hbond>  (258) 
-0.236163

>  <r_i_glide_metal>  (258) 
-0

>  <r_i_glide_rewards>  (258) 
-1.66246

>  <r_i_glide_evdw>  (258) 
-16.9928

>  <r_i_glide_ecoul>  (258) 
-6.67679

>  <r_i_glide_erotb>  (258) 
0

>  <r_i_glide_esite>  (258) 
-0.200749

>  <r_i_glide_emodel>  (258) 
-29.6091

>  <r_i_glide_energy>  (258) 
-23.6695

>  <r_i_glide_einternal>  (258) 
1.36318

>  <r_i_glide_intrahb_reward>  (258) 
-0

>  <i_i_glide_confnum>  (258) 
1

>  <i_i_glide_posenum>  (258) 
1

>  <r_i_glide_eff_state_penalty>  (258) 
0

>  <ligand_id>  (258) 
84

>  <original_smiles>  (258) 
CS(=O)(=O)N1CC(=O)N2C1=NC21COCOC1

>  <smiles>  (258) 
[H]C1([H])OC([H])([H])C2(N=C3N2C(=O)C([H])([H])N3S(=O)(=O)C([H])([H])[H])C([H])([H])O1

$$$$
84:0:1
     RDKit          3D

 28 30  0  0  1  0  0  0  0  0999 V2000
    5.7169   -0.8338    2.3688 C   0  0  0  0  0  0  0  0  0  0  0  0
    4.2198   -1.7475    2.9812 S   0  0  0  0  0  0  0  0  0  0  0  0
    4.5075   -2.2419    4.3423 O   0  0  0  0  0  0  0  0  0  0  0  0
    3.0239   -0.9282    2.7179 O   0  0  0  0  0  0  0  0  0  0  0  0
    4.1520   -3.1436    1.9398 N   0  0  0  0  0  0  0  0  0  0  0  0
    3.0501   -4.1512    2.0900 C   0  0  0  0  0  0  0  0  0  0  0  0
    2.8422   -4.6887    0.6634 C   0  0  0  0  0  0  0  0  0  0  0  0
    1.9579   -5.4638    0.2926 O   0  0  0  0  0  0  0  0  0  0  0  0
    3.8392   -4.1281   -0.1423 N   0  0  0  0  0  0  0  0  0  0  0  0
    4.3062   -3.0024    0.5420 C   0  0  0  0  0  0  0  0  0  0  0  0
    4.1640   -2.0923   -0.4002 N   0  0  0  0  0  0  0  0  0  0  0  0
    3.7199   -3.2307   -1.2642 C   0  0  0  0  0  0  0  0  0  0  0  0
    4.8468   -3.4649   -2.2514 C   0  0  0  0  0  0  0  0  0  0  0  0
    4.7040   -2.5433   -3.3277 O   0  0  0  0  0  0  0  0  0  0  0  0
    3.4537   -2.6830   -3.9125 C   0  0  0  0  0  0  0  0  0  0  0  0
    2.4134   -2.3469   -3.0670 O   0  0  0  0  0  0  0  0  0  0  0  0
    2.3668   -3.2064   -1.9416 C   0  0  0  0  0  0  0  0  0  0  0  0
    5.8420    0.0839    2.9460 H   0  0  0  0  0  0  0  0  0  0  0  0
    5.5838   -0.5776    1.3164 H   0  0  0  0  0  0  0  0  0  0  0  0
    6.6051   -1.4565    2.4698 H   0  0  0  0  0  0  0  0  0  0  0  0
    3.3457   -4.9409    2.7460 H   0  0  0  0  0  0  0  0  0  0  0  0
    2.1522   -3.6801    2.4492 H   0  0  0  0  0  0  0  0  0  0  0  0
    5.8348   -3.3156   -1.7767 H   0  0  0  0  0  0  0  0  0  0  0  0
    4.8307   -4.5063   -2.6108 H   0  0  0  0  0  0  0  0  0  0  0  0
    3.4134   -2.0301   -4.7970 H   0  0  0  0  0  0  0  0  0  0  0  0
    3.3367   -3.7139   -4.2646 H   0  0  0  0  0  0  0  0  0  0  0  0
    2.1127   -4.2182   -2.2874 H   0  0  0  0  0  0  0  0  0  0  0  0
    1.5577   -2.9593   -1.2772 H   0  0  0  0  0  0  0  0  0  0  0  0
  1  2  1  0
  1 18  1  0
  1 19  1  0
  1 20  1  0
  2  3  2  0
  2  4  2  0
  2  5  1  0
  5 10  1  0
  5  6  1  0
  6  7  1  0
  6 21  1  0
  6 22  1  0
  7  8  2  0
  7  9  1  0
  9 12  1  0
  9 10  1  0
 10 11  2  0
 11 12  1  0
 12 17  1  0
 12 13  1  0
 13 14  1  0
 13 23  1  0
 13 24  1  0
 14 15  1  0
 15 16  1  0
 15 25  1  0
 15 26  1  0
 16 17  1  0
 17 27  1  0
 17 28  1  0
M  END
>  <i_m_ct_stereo_status>  (259) 
1

>  <s_m_source_file>  (259) 
/var/tmp/pbs.5076255.sched01/tmpc36l9o9d/84wsylf1cs.sdf

>  <i_m_source_file_index>  (259) 
32

>  <i_lp_mmshare_version>  (259) 
48012

>  <i_f3d_flags>  (259) 
0

>  <s_epik_input>  (259) 
Tz1DMVtDSDJdTihTKD1PKSg9TylbQ0gzXSlDKD1OMilOMUMyM1tDSDJdT1tDSDJdT1tDSDJdMw==

>  <s_epik_cmdline>  (259) 
J2VwaWtfcHl0aG9uJywgJy1waHQnLCAnMi4wJywgJy1waCcsICc3LjAnLCAnLXRuJywgJzgnLCAnLW1hJywgJzIwMCcsICctaW1hZScsICc8aW5maWxlLm1hZT4nLCAnLW9tYWUnLCAnPG91dGZpbGUubWFlPic=

>  <r_lp_tautomer_probability>  (259) 
1

>  <r_epik_Ionization_Penalty>  (259) 
2.81595e-07

>  <r_epik_Ionization_Penalty_Charging>  (259) 
0

>  <r_epik_Ionization_Penalty_Neutral>  (259) 
2.81595e-07

>  <r_epik_State_Penalty>  (259) 
-0

>  <r_epik_Charging_Adjusted_Penalty>  (259) 
0

>  <i_epik_Tot_Q>  (259) 
0

>  <i_epik_Tot_abs_Q>  (259) 
0

>  <s_epik_Chemistry_Notes>  (259) 
This compound has an imine and may undergo hydrolysis. This compound contains an acetal/aminal-like group ( X-CH(R)-Y where X, Y are N, S, or O) that may be acid/base labile, releasing an aldehyde.

>  <s_lp_Force_Field>  (259) 
OPLS3e

>  <r_lp_Energy>  (259) 
29.5385

>  <b_lp_Chiralities_Consistent>  (259) 
1

>  <s_lp_Variant>  (259) 
84:0-1

>  <s_i_glide_gridfile>  (259) 
pfpi4k_grid

>  <i_i_glide_lignum>  (259) 
32

>  <i_i_glide_rotatable_bonds>  (259) 
1

>  <r_i_docking_score>  (259) 
-3.38944

>  <r_i_glide_ligand_efficiency>  (259) 
-0.199379

>  <r_i_glide_ligand_efficiency_sa>  (259) 
-0.512659

>  <r_i_glide_ligand_efficiency_ln>  (259) 
-0.884229

>  <r_i_glide_gscore>  (259) 
-3.38944

>  <r_i_glide_lipo>  (259) 
-0.258802

>  <r_i_glide_hbond>  (259) 
-0.0544017

>  <r_i_glide_metal>  (259) 
-0

>  <r_i_glide_rewards>  (259) 
-1.77421

>  <r_i_glide_evdw>  (259) 
-21.267

>  <r_i_glide_ecoul>  (259) 
-1.32288

>  <r_i_glide_erotb>  (259) 
0

>  <r_i_glide_esite>  (259) 
-0.0402403

>  <r_i_glide_emodel>  (259) 
-25.9581

>  <r_i_glide_energy>  (259) 
-22.5898

>  <r_i_glide_einternal>  (259) 
2.64327

>  <r_i_glide_intrahb_reward>  (259) 
-0

>  <i_i_glide_confnum>  (259) 
2

>  <i_i_glide_posenum>  (259) 
4

>  <r_i_glide_eff_state_penalty>  (259) 
0

>  <ligand_id>  (259) 
84

>  <original_smiles>  (259) 
CS(=O)(=O)N1CC(=O)N2C1=NC21COCOC1

>  <smiles>  (259) 
[H]C1([H])OC([H])([H])C2(N=C3N2C(=O)C([H])([H])N3S(=O)(=O)C([H])([H])[H])C([H])([H])O1

$$$$
84:0:2
     RDKit          3D

 28 30  0  0  1  0  0  0  0  0999 V2000
    4.5855   -1.4968    4.7698 C   0  0  0  0  0  0  0  0  0  0  0  0
    4.5248   -1.0392    2.9794 S   0  0  0  0  0  0  0  0  0  0  0  0
    3.2585   -0.3267    2.7209 O   0  0  0  0  0  0  0  0  0  0  0  0
    5.8093   -0.4179    2.6231 O   0  0  0  0  0  0  0  0  0  0  0  0
    4.4386   -2.5510    2.1364 N   0  0  0  0  0  0  0  0  0  0  0  0
    3.3360   -3.5173    2.4078 C   0  0  0  0  0  0  0  0  0  0  0  0
    3.1077   -4.2641    1.0813 C   0  0  0  0  0  0  0  0  0  0  0  0
    2.2263   -5.0831    0.8422 O   0  0  0  0  0  0  0  0  0  0  0  0
    4.1080   -3.8157    0.2076 N   0  0  0  0  0  0  0  0  0  0  0  0
    4.5924   -2.6304    0.7562 C   0  0  0  0  0  0  0  0  0  0  0  0
    4.4481   -1.8631   -0.2964 N   0  0  0  0  0  0  0  0  0  0  0  0
    3.9996   -3.1165   -1.0347 C   0  0  0  0  0  0  0  0  0  0  0  0
    5.1145   -3.5128   -1.9883 C   0  0  0  0  0  0  0  0  0  0  0  0
    4.9648   -2.7437   -3.1743 O   0  0  0  0  0  0  0  0  0  0  0  0
    3.7132   -2.9576   -3.7480 C   0  0  0  0  0  0  0  0  0  0  0  0
    2.6774   -2.4835   -2.9412 O   0  0  0  0  0  0  0  0  0  0  0  0
    2.6305   -3.1696   -1.7037 C   0  0  0  0  0  0  0  0  0  0  0  0
    4.6509   -0.5884    5.3655 H   0  0  0  0  0  0  0  0  0  0  0  0
    5.4580   -2.1134    4.9804 H   0  0  0  0  0  0  0  0  0  0  0  0
    3.6817   -2.0294    5.0566 H   0  0  0  0  0  0  0  0  0  0  0  0
    3.6105   -4.2224    3.1900 H   0  0  0  0  0  0  0  0  0  0  0  0
    2.4329   -2.9935    2.7163 H   0  0  0  0  0  0  0  0  0  0  0  0
    6.0935   -3.3011   -1.5370 H   0  0  0  0  0  0  0  0  0  0  0  0
    5.0695   -4.5859   -2.1762 H   0  0  0  0  0  0  0  0  0  0  0  0
    3.6705   -2.4434   -4.7058 H   0  0  0  0  0  0  0  0  0  0  0  0
    3.5853   -4.0257   -3.9258 H   0  0  0  0  0  0  0  0  0  0  0  0
    2.3645   -4.2141   -1.8784 H   0  0  0  0  0  0  0  0  0  0  0  0
    1.8262   -2.7897   -1.0669 H   0  0  0  0  0  0  0  0  0  0  0  0
  1  2  1  0
  1 18  1  0
  1 19  1  0
  1 20  1  0
  2  3  2  0
  2  4  2  0
  2  5  1  0
  5 10  1  0
  5  6  1  0
  6  7  1  0
  6 21  1  0
  6 22  1  0
  7  8  2  0
  7  9  1  0
  9 12  1  0
  9 10  1  0
 10 11  2  0
 11 12  1  0
 12 17  1  0
 12 13  1  0
 13 14  1  0
 13 23  1  0
 13 24  1  0
 14 15  1  0
 15 16  1  0
 15 25  1  0
 15 26  1  0
 16 17  1  0
 17 27  1  0
 17 28  1  0
M  END
>  <i_m_ct_stereo_status>  (260) 
1

>  <s_m_source_file>  (260) 
/var/tmp/pbs.5076255.sched01/tmpc36l9o9d/84wsylf1cs.sdf

>  <i_m_source_file_index>  (260) 
32

>  <i_lp_mmshare_version>  (260) 
48012

>  <i_f3d_flags>  (260) 
0

>  <s_epik_input>  (260) 
Tz1DMVtDSDJdTihTKD1PKSg9TylbQ0gzXSlDKD1OMilOMUMyM1tDSDJdT1tDSDJdT1tDSDJdMw==

>  <s_epik_cmdline>  (260) 
J2VwaWtfcHl0aG9uJywgJy1waHQnLCAnMi4wJywgJy1waCcsICc3LjAnLCAnLXRuJywgJzgnLCAnLW1hJywgJzIwMCcsICctaW1hZScsICc8aW5maWxlLm1hZT4nLCAnLW9tYWUnLCAnPG91dGZpbGUubWFlPic=

>  <r_lp_tautomer_probability>  (260) 
1

>  <r_epik_Ionization_Penalty>  (260) 
2.81595e-07

>  <r_epik_Ionization_Penalty_Charging>  (260) 
0

>  <r_epik_Ionization_Penalty_Neutral>  (260) 
2.81595e-07

>  <r_epik_State_Penalty>  (260) 
-0

>  <r_epik_Charging_Adjusted_Penalty>  (260) 
0

>  <i_epik_Tot_Q>  (260) 
0

>  <i_epik_Tot_abs_Q>  (260) 
0

>  <s_epik_Chemistry_Notes>  (260) 
This compound has an imine and may undergo hydrolysis. This compound contains an acetal/aminal-like group ( X-CH(R)-Y where X, Y are N, S, or O) that may be acid/base labile, releasing an aldehyde.

>  <s_lp_Force_Field>  (260) 
OPLS3e

>  <r_lp_Energy>  (260) 
29.5385

>  <b_lp_Chiralities_Consistent>  (260) 
1

>  <s_lp_Variant>  (260) 
84:0-1

>  <s_i_glide_gridfile>  (260) 
pfpi4k_grid

>  <i_i_glide_lignum>  (260) 
32

>  <i_i_glide_rotatable_bonds>  (260) 
1

>  <r_i_docking_score>  (260) 
-3.38417

>  <r_i_glide_ligand_efficiency>  (260) 
-0.199069

>  <r_i_glide_ligand_efficiency_sa>  (260) 
-0.511862

>  <r_i_glide_ligand_efficiency_ln>  (260) 
-0.882855

>  <r_i_glide_gscore>  (260) 
-3.38417

>  <r_i_glide_lipo>  (260) 
-0.190914

>  <r_i_glide_hbond>  (260) 
-0.0178924

>  <r_i_glide_metal>  (260) 
-0

>  <r_i_glide_rewards>  (260) 
-1.96964

>  <r_i_glide_evdw>  (260) 
-21.544

>  <r_i_glide_ecoul>  (260) 
-0.795786

>  <r_i_glide_erotb>  (260) 
0

>  <r_i_glide_esite>  (260) 
-0.00916103

>  <r_i_glide_emodel>  (260) 
-26.634

>  <r_i_glide_energy>  (260) 
-22.3398

>  <r_i_glide_einternal>  (260) 
1.33564

>  <r_i_glide_intrahb_reward>  (260) 
-0

>  <i_i_glide_confnum>  (260) 
4

>  <i_i_glide_posenum>  (260) 
9

>  <r_i_glide_eff_state_penalty>  (260) 
0

>  <ligand_id>  (260) 
84

>  <original_smiles>  (260) 
CS(=O)(=O)N1CC(=O)N2C1=NC21COCOC1

>  <smiles>  (260) 
[H]C1([H])OC([H])([H])C2(N=C3N2C(=O)C([H])([H])N3S(=O)(=O)C([H])([H])[H])C([H])([H])O1

$$$$
85:0:0
     RDKit          3D

 17 19  0  0  1  0  0  0  0  0999 V2000
    3.2098   -2.9289   -3.2361 C   0  0  0  0  0  0  0  0  0  0  0  0
    3.4203   -2.2161   -4.3161 N   0  0  0  0  0  0  0  0  0  0  0  0
    3.7994   -0.6881   -3.7650 S   0  0  0  0  0  0  0  0  0  0  0  0
    3.8664   -1.0187   -2.1284 N   0  0  0  0  0  0  0  0  0  0  0  0
    3.4448   -2.2548   -1.9919 C   0  0  0  0  0  0  0  0  0  0  0  0
    3.2980   -2.8333   -0.6436 C   0  0  0  0  0  0  0  0  0  0  0  0
    3.7366   -2.1289    0.5091 C   0  0  0  0  0  0  0  0  0  0  0  0
    3.5926   -2.7066    1.7901 C   0  0  0  0  0  0  0  0  0  0  0  0
    3.0058   -3.9926    1.8474 C   0  0  0  0  0  0  0  0  0  0  0  0
    2.6885   -4.8468    2.8161 N   0  0  0  0  0  0  0  0  0  0  0  0
    2.1257   -5.9346    2.1758 N   0  0  0  0  0  0  0  0  0  0  0  0
    2.0723   -5.7959    0.8893 N   0  0  0  0  0  0  0  0  0  0  0  0
    2.6226   -4.5787    0.6391 N   0  0  0  0  0  0  0  0  0  0  0  0
    2.7345   -4.0622   -0.5822 N   0  0  0  0  0  0  0  0  0  0  0  0
    2.8955   -3.9488   -3.3583 H   0  0  0  0  0  0  0  0  0  0  0  0
    4.1777   -1.1465    0.4224 H   0  0  0  0  0  0  0  0  0  0  0  0
    3.9040   -2.2019    2.6938 H   0  0  0  0  0  0  0  0  0  0  0  0
  1  5  1  0
  1  2  2  0
  1 15  1  0
  2  3  1  0
  3  4  1  0
  4  5  2  0
  5  6  1  0
  6 14  2  0
  6  7  1  0
  7  8  2  0
  7 16  1  0
  8  9  1  0
  8 17  1  0
  9 13  1  0
  9 10  2  0
 10 11  1  0
 11 12  2  0
 12 13  1  0
 13 14  1  0
M  END
>  <i_m_ct_stereo_status>  (261) 
1

>  <s_m_source_file>  (261) 
/var/tmp/pbs.5076255.sched01/tmpc36l9o9d/84wsylf1cs.sdf

>  <i_m_source_file_index>  (261) 
33

>  <i_lp_mmshare_version>  (261) 
48012

>  <i_f3d_flags>  (261) 
0

>  <s_epik_input>  (261) 
bjFzbltjSF1jMS1jKFtjSF1bY0hdMilubihjMjMpbm5uMw==

>  <s_epik_cmdline>  (261) 
J2VwaWtfcHl0aG9uJywgJy1waHQnLCAnMi4wJywgJy1waCcsICc3LjAnLCAnLXRuJywgJzgnLCAnLW1hJywgJzIwMCcsICctaW1hZScsICc8aW5maWxlLm1hZT4nLCAnLW9tYWUnLCAnPG91dGZpbGUubWFlPic=

>  <r_lp_tautomer_probability>  (261) 
1

>  <r_epik_Ionization_Penalty>  (261) 
1.12827e-10

>  <r_epik_Ionization_Penalty_Charging>  (261) 
0

>  <r_epik_Ionization_Penalty_Neutral>  (261) 
1.12827e-10

>  <r_epik_State_Penalty>  (261) 
-0

>  <r_epik_Charging_Adjusted_Penalty>  (261) 
0

>  <i_epik_Tot_Q>  (261) 
0

>  <i_epik_Tot_abs_Q>  (261) 
0

>  <s_lp_Force_Field>  (261) 
OPLS3e

>  <r_lp_Energy>  (261) 
15.1881

>  <b_lp_Chiralities_Consistent>  (261) 
1

>  <s_lp_Variant>  (261) 
85:0-1

>  <s_i_glide_gridfile>  (261) 
pfpi4k_grid

>  <i_i_glide_lignum>  (261) 
33

>  <i_i_glide_rotatable_bonds>  (261) 
1

>  <r_i_docking_score>  (261) 
-4.02817

>  <r_i_glide_ligand_efficiency>  (261) 
-0.287726

>  <r_i_glide_ligand_efficiency_sa>  (261) 
-0.693461

>  <r_i_glide_ligand_efficiency_ln>  (261) 
-1.10693

>  <r_i_glide_gscore>  (261) 
-4.02817

>  <r_i_glide_lipo>  (261) 
-0.335494

>  <r_i_glide_hbond>  (261) 
-0.32

>  <r_i_glide_metal>  (261) 
-0

>  <r_i_glide_rewards>  (261) 
-2.00999

>  <r_i_glide_evdw>  (261) 
-21.8705

>  <r_i_glide_ecoul>  (261) 
-3.72597

>  <r_i_glide_erotb>  (261) 
0.391202

>  <r_i_glide_esite>  (261) 
-0.101462

>  <r_i_glide_emodel>  (261) 
-31.8766

>  <r_i_glide_energy>  (261) 
-25.5964

>  <r_i_glide_einternal>  (261) 
0.151179

>  <r_i_glide_intrahb_reward>  (261) 
-0

>  <i_i_glide_confnum>  (261) 
1

>  <i_i_glide_posenum>  (261) 
1

>  <r_i_glide_eff_state_penalty>  (261) 
0

>  <ligand_id>  (261) 
85

>  <original_smiles>  (261) 
c1nsnc1-c1ccc2nnnn2n1

>  <smiles>  (261) 
[H]c1nsnc1-c1nn2nnnc2c([H])c1[H]

$$$$
85:0:1
     RDKit          3D

 17 19  0  0  1  0  0  0  0  0999 V2000
    3.4228   -2.8380   -3.0115 C   0  0  0  0  0  0  0  0  0  0  0  0
    3.4250   -2.4875   -4.2766 N   0  0  0  0  0  0  0  0  0  0  0  0
    3.8013   -0.8612   -4.2920 S   0  0  0  0  0  0  0  0  0  0  0  0
    4.0678   -0.6534   -2.6602 N   0  0  0  0  0  0  0  0  0  0  0  0
    3.7767   -1.7992   -2.0888 C   0  0  0  0  0  0  0  0  0  0  0  0
    3.8631   -1.9294   -0.6232 C   0  0  0  0  0  0  0  0  0  0  0  0
    4.2923   -0.8469    0.1914 C   0  0  0  0  0  0  0  0  0  0  0  0
    4.3786   -0.9968    1.5914 C   0  0  0  0  0  0  0  0  0  0  0  0
    4.0220   -2.2597    2.1197 C   0  0  0  0  0  0  0  0  0  0  0  0
    3.9687   -2.7885    3.3357 N   0  0  0  0  0  0  0  0  0  0  0  0
    3.5308   -4.0848    3.1446 N   0  0  0  0  0  0  0  0  0  0  0  0
    3.3150   -4.3736    1.8987 N   0  0  0  0  0  0  0  0  0  0  0  0
    3.6171   -3.2427    1.2094 N   0  0  0  0  0  0  0  0  0  0  0  0
    3.5238   -3.1401   -0.1179 N   0  0  0  0  0  0  0  0  0  0  0  0
    3.1759   -3.8538   -2.7614 H   0  0  0  0  0  0  0  0  0  0  0  0
    4.5572    0.1038   -0.2497 H   0  0  0  0  0  0  0  0  0  0  0  0
    4.6971   -0.1954    2.2423 H   0  0  0  0  0  0  0  0  0  0  0  0
  1  5  1  0
  1  2  2  0
  1 15  1  0
  2  3  1  0
  3  4  1  0
  4  5  2  0
  5  6  1  0
  6 14  2  0
  6  7  1  0
  7  8  2  0
  7 16  1  0
  8  9  1  0
  8 17  1  0
  9 13  1  0
  9 10  2  0
 10 11  1  0
 11 12  2  0
 12 13  1  0
 13 14  1  0
M  END
>  <i_m_ct_stereo_status>  (262) 
1

>  <s_m_source_file>  (262) 
/var/tmp/pbs.5076255.sched01/tmpc36l9o9d/84wsylf1cs.sdf

>  <i_m_source_file_index>  (262) 
33

>  <i_lp_mmshare_version>  (262) 
48012

>  <i_f3d_flags>  (262) 
0

>  <s_epik_input>  (262) 
bjFzbltjSF1jMS1jKFtjSF1bY0hdMilubihjMjMpbm5uMw==

>  <s_epik_cmdline>  (262) 
J2VwaWtfcHl0aG9uJywgJy1waHQnLCAnMi4wJywgJy1waCcsICc3LjAnLCAnLXRuJywgJzgnLCAnLW1hJywgJzIwMCcsICctaW1hZScsICc8aW5maWxlLm1hZT4nLCAnLW9tYWUnLCAnPG91dGZpbGUubWFlPic=

>  <r_lp_tautomer_probability>  (262) 
1

>  <r_epik_Ionization_Penalty>  (262) 
1.12827e-10

>  <r_epik_Ionization_Penalty_Charging>  (262) 
0

>  <r_epik_Ionization_Penalty_Neutral>  (262) 
1.12827e-10

>  <r_epik_State_Penalty>  (262) 
-0

>  <r_epik_Charging_Adjusted_Penalty>  (262) 
0

>  <i_epik_Tot_Q>  (262) 
0

>  <i_epik_Tot_abs_Q>  (262) 
0

>  <s_lp_Force_Field>  (262) 
OPLS3e

>  <r_lp_Energy>  (262) 
15.1881

>  <b_lp_Chiralities_Consistent>  (262) 
1

>  <s_lp_Variant>  (262) 
85:0-1

>  <s_i_glide_gridfile>  (262) 
pfpi4k_grid

>  <i_i_glide_lignum>  (262) 
33

>  <i_i_glide_rotatable_bonds>  (262) 
1

>  <r_i_docking_score>  (262) 
-3.65507

>  <r_i_glide_ligand_efficiency>  (262) 
-0.261077

>  <r_i_glide_ligand_efficiency_sa>  (262) 
-0.629232

>  <r_i_glide_ligand_efficiency_ln>  (262) 
-1.0044

>  <r_i_glide_gscore>  (262) 
-3.65507

>  <r_i_glide_lipo>  (262) 
-0.212242

>  <r_i_glide_hbond>  (262) 
-0.32

>  <r_i_glide_metal>  (262) 
-0

>  <r_i_glide_rewards>  (262) 
-2.00999

>  <r_i_glide_evdw>  (262) 
-22.2449

>  <r_i_glide_ecoul>  (262) 
-2.60515

>  <r_i_glide_erotb>  (262) 
0.391202

>  <r_i_glide_esite>  (262) 
-0.00101823

>  <r_i_glide_emodel>  (262) 
-30.6177

>  <r_i_glide_energy>  (262) 
-24.8501

>  <r_i_glide_einternal>  (262) 
0.0217419

>  <r_i_glide_intrahb_reward>  (262) 
-0

>  <i_i_glide_confnum>  (262) 
1

>  <i_i_glide_posenum>  (262) 
35

>  <r_i_glide_eff_state_penalty>  (262) 
0

>  <ligand_id>  (262) 
85

>  <original_smiles>  (262) 
c1nsnc1-c1ccc2nnnn2n1

>  <smiles>  (262) 
[H]c1nsnc1-c1nn2nnnc2c([H])c1[H]

$$$$
85:0:2
     RDKit          3D

 17 19  0  0  1  0  0  0  0  0999 V2000
    2.6937   -2.9786   -2.7097 C   0  0  0  0  0  0  0  0  0  0  0  0
    2.9797   -2.0841   -3.6268 N   0  0  0  0  0  0  0  0  0  0  0  0
    4.1989   -1.1510   -2.9746 S   0  0  0  0  0  0  0  0  0  0  0  0
    4.4178   -1.9757   -1.5396 N   0  0  0  0  0  0  0  0  0  0  0  0
    3.5001   -2.9198   -1.5235 C   0  0  0  0  0  0  0  0  0  0  0  0
    3.4012   -3.8295   -0.3657 C   0  0  0  0  0  0  0  0  0  0  0  0
    4.4286   -3.8934    0.6116 C   0  0  0  0  0  0  0  0  0  0  0  0
    4.3192   -4.7788    1.7055 C   0  0  0  0  0  0  0  0  0  0  0  0
    3.1541   -5.5807    1.7636 C   0  0  0  0  0  0  0  0  0  0  0  0
    2.6783   -6.4925    2.6028 N   0  0  0  0  0  0  0  0  0  0  0  0
    1.4654   -6.8818    2.0653 N   0  0  0  0  0  0  0  0  0  0  0  0
    1.1751   -6.2602    0.9638 N   0  0  0  0  0  0  0  0  0  0  0  0
    2.2246   -5.4314    0.7309 N   0  0  0  0  0  0  0  0  0  0  0  0
    2.2908   -4.6070   -0.3148 N   0  0  0  0  0  0  0  0  0  0  0  0
    1.9073   -3.6900   -2.9129 H   0  0  0  0  0  0  0  0  0  0  0  0
    5.3071   -3.2686    0.5269 H   0  0  0  0  0  0  0  0  0  0  0  0
    5.0777   -4.8471    2.4736 H   0  0  0  0  0  0  0  0  0  0  0  0
  1  5  1  0
  1  2  2  0
  1 15  1  0
  2  3  1  0
  3  4  1  0
  4  5  2  0
  5  6  1  0
  6 14  2  0
  6  7  1  0
  7  8  2  0
  7 16  1  0
  8  9  1  0
  8 17  1  0
  9 13  1  0
  9 10  2  0
 10 11  1  0
 11 12  2  0
 12 13  1  0
 13 14  1  0
M  END
>  <i_m_ct_stereo_status>  (263) 
1

>  <s_m_source_file>  (263) 
/var/tmp/pbs.5076255.sched01/tmpc36l9o9d/84wsylf1cs.sdf

>  <i_m_source_file_index>  (263) 
33

>  <i_lp_mmshare_version>  (263) 
48012

>  <i_f3d_flags>  (263) 
0

>  <s_epik_input>  (263) 
bjFzbltjSF1jMS1jKFtjSF1bY0hdMilubihjMjMpbm5uMw==

>  <s_epik_cmdline>  (263) 
J2VwaWtfcHl0aG9uJywgJy1waHQnLCAnMi4wJywgJy1waCcsICc3LjAnLCAnLXRuJywgJzgnLCAnLW1hJywgJzIwMCcsICctaW1hZScsICc8aW5maWxlLm1hZT4nLCAnLW9tYWUnLCAnPG91dGZpbGUubWFlPic=

>  <r_lp_tautomer_probability>  (263) 
1

>  <r_epik_Ionization_Penalty>  (263) 
1.12827e-10

>  <r_epik_Ionization_Penalty_Charging>  (263) 
0

>  <r_epik_Ionization_Penalty_Neutral>  (263) 
1.12827e-10

>  <r_epik_State_Penalty>  (263) 
-0

>  <r_epik_Charging_Adjusted_Penalty>  (263) 
0

>  <i_epik_Tot_Q>  (263) 
0

>  <i_epik_Tot_abs_Q>  (263) 
0

>  <s_lp_Force_Field>  (263) 
OPLS3e

>  <r_lp_Energy>  (263) 
15.1881

>  <b_lp_Chiralities_Consistent>  (263) 
1

>  <s_lp_Variant>  (263) 
85:0-1

>  <s_i_glide_gridfile>  (263) 
pfpi4k_grid

>  <i_i_glide_lignum>  (263) 
33

>  <i_i_glide_rotatable_bonds>  (263) 
1

>  <r_i_docking_score>  (263) 
-3.49129

>  <r_i_glide_ligand_efficiency>  (263) 
-0.249378

>  <r_i_glide_ligand_efficiency_sa>  (263) 
-0.601036

>  <r_i_glide_ligand_efficiency_ln>  (263) 
-0.959394

>  <r_i_glide_gscore>  (263) 
-3.49129

>  <r_i_glide_lipo>  (263) 
-0.0785528

>  <r_i_glide_hbond>  (263) 
0

>  <r_i_glide_metal>  (263) 
-0

>  <r_i_glide_rewards>  (263) 
-2.02263

>  <r_i_glide_evdw>  (263) 
-22.1948

>  <r_i_glide_ecoul>  (263) 
-3.26624

>  <r_i_glide_erotb>  (263) 
0.391202

>  <r_i_glide_esite>  (263) 
-0.181626

>  <r_i_glide_emodel>  (263) 
-30.7714

>  <r_i_glide_energy>  (263) 
-25.4611

>  <r_i_glide_einternal>  (263) 
0.346309

>  <r_i_glide_intrahb_reward>  (263) 
-0

>  <i_i_glide_confnum>  (263) 
4

>  <i_i_glide_posenum>  (263) 
7

>  <r_i_glide_eff_state_penalty>  (263) 
0

>  <ligand_id>  (263) 
85

>  <original_smiles>  (263) 
c1nsnc1-c1ccc2nnnn2n1

>  <smiles>  (263) 
[H]c1nsnc1-c1nn2nnnc2c([H])c1[H]

$$$$
86:0:0
     RDKit          3D

 55 59  0  0  1  0  0  0  0  0999 V2000
    5.1185   -2.1530   -0.4894 C   0  0  0  0  0  0  0  0  0  0  0  0
    5.7230   -3.2500    0.4260 C   0  0  0  0  0  0  0  0  0  0  0  0
    7.1869   -3.4581   -0.0415 C   0  0  0  0  0  0  0  0  0  0  0  0
    5.7569   -2.6913    1.8710 C   0  0  0  0  0  0  0  0  0  0  0  0
    4.8961   -4.5904    0.3370 C   0  0  2  0  0  0  0  0  0  0  0  0
    3.4139   -4.4188    0.7932 C   0  0  0  0  0  0  0  0  0  0  0  0
    2.6128   -5.7295    0.7906 C   0  0  0  0  0  0  0  0  0  0  0  0
    3.3056   -6.8075    1.6552 C   0  0  1  0  0  0  0  0  0  0  0  0
    4.7294   -7.0561    1.0960 C   0  0  0  0  0  0  0  0  0  0  0  0
    5.5605   -5.7664    1.1141 C   0  0  0  0  0  0  0  0  0  0  0  0
    3.4243   -6.2958    2.9899 O   0  0  0  0  0  0  0  0  0  0  0  0
    2.3679   -7.0027    3.7417 O   0  0  0  0  0  0  0  0  0  0  0  0
    2.3076   -8.2667    3.0873 C   0  0  2  0  0  0  0  0  0  0  0  0
    2.5383   -8.0247    1.6761 O   0  0  0  0  0  0  0  0  0  0  0  0
    0.9088   -8.8986    3.3842 C   0  0  2  0  0  0  0  0  0  0  0  0
    0.7065   -9.0327    4.9117 C   0  0  0  0  0  0  0  0  0  0  0  0
    1.8042   -9.9520    5.4933 C   0  0  1  0  0  0  0  0  0  0  0  0
    1.6892  -11.3566    4.8553 C   0  0  0  0  0  0  0  0  0  0  0  0
    1.8874  -11.2285    3.3370 C   0  0  1  0  0  0  0  0  0  0  0  0
    0.8047  -10.3032    2.7558 C   0  0  0  0  0  0  0  0  0  0  0  0
    3.2807  -10.6256    3.0411 C   0  0  0  0  0  0  0  0  0  0  0  0
    3.3968   -9.2208    3.6803 C   0  0  2  0  0  0  0  0  0  0  0  0
    3.1969   -9.3461    5.2026 C   0  0  0  0  0  0  0  0  0  0  0  0
    5.6901   -1.2246   -0.4435 H   0  0  0  0  0  0  0  0  0  0  0  0
    4.0974   -1.8908   -0.2145 H   0  0  0  0  0  0  0  0  0  0  0  0
    5.0986   -2.4633   -1.5338 H   0  0  0  0  0  0  0  0  0  0  0  0
    7.2314   -3.7128   -1.1003 H   0  0  0  0  0  0  0  0  0  0  0  0
    7.6903   -4.2560    0.5082 H   0  0  0  0  0  0  0  0  0  0  0  0
    7.7826   -2.5486    0.0789 H   0  0  0  0  0  0  0  0  0  0  0  0
    6.4226   -1.8289    1.9608 H   0  0  0  0  0  0  0  0  0  0  0  0
    6.0889   -3.4433    2.5875 H   0  0  0  0  0  0  0  0  0  0  0  0
    4.7732   -2.3448    2.1901 H   0  0  0  0  0  0  0  0  0  0  0  0
    4.8664   -4.8804   -0.7154 H   0  0  0  0  0  0  0  0  0  0  0  0
    3.3809   -4.0108    1.8056 H   0  0  0  0  0  0  0  0  0  0  0  0
    2.8873   -3.7092    0.1547 H   0  0  0  0  0  0  0  0  0  0  0  0
    1.6172   -5.5404    1.1876 H   0  0  0  0  0  0  0  0  0  0  0  0
    2.4995   -6.0842   -0.2341 H   0  0  0  0  0  0  0  0  0  0  0  0
    5.2546   -7.8003    1.6926 H   0  0  0  0  0  0  0  0  0  0  0  0
    4.6733   -7.4589    0.0825 H   0  0  0  0  0  0  0  0  0  0  0  0
    6.5448   -5.9985    0.7043 H   0  0  0  0  0  0  0  0  0  0  0  0
    5.6978   -5.4805    2.1589 H   0  0  0  0  0  0  0  0  0  0  0  0
    0.1338   -8.2605    2.9595 H   0  0  0  0  0  0  0  0  0  0  0  0
    0.7490   -8.0553    5.3920 H   0  0  0  0  0  0  0  0  0  0  0  0
   -0.2756   -9.4516    5.1221 H   0  0  0  0  0  0  0  0  0  0  0  0
    1.6689  -10.0417    6.5721 H   0  0  0  0  0  0  0  0  0  0  0  0
    2.4290  -12.0361    5.2869 H   0  0  0  0  0  0  0  0  0  0  0  0
    0.7107  -11.7852    5.0824 H   0  0  0  0  0  0  0  0  0  0  0  0
    1.8131  -12.2226    2.8869 H   0  0  0  0  0  0  0  0  0  0  0  0
   -0.1813  -10.7189    2.9447 H   0  0  0  0  0  0  0  0  0  0  0  0
    0.9213  -10.2510    1.6869 H   0  0  0  0  0  0  0  0  0  0  0  0
    4.0569  -11.2852    3.4310 H   0  0  0  0  0  0  0  0  0  0  0  0
    3.4341  -10.5809    1.9612 H   0  0  0  0  0  0  0  0  0  0  0  0
    4.3864   -8.8276    3.4849 H   0  0  0  0  0  0  0  0  0  0  0  0
    3.2719   -8.3653    5.6696 H   0  0  0  0  0  0  0  0  0  0  0  0
    3.9774   -9.9684    5.6350 H   0  0  0  0  0  0  0  0  0  0  0  0
  1  2  1  0
  1 24  1  0
  1 25  1  0
  1 26  1  0
  2  3  1  0
  2  4  1  0
  2  5  1  0
  3 27  1  0
  3 28  1  0
  3 29  1  0
  4 30  1  0
  4 31  1  0
  4 32  1  0
  5 10  1  0
  5  6  1  0
  5 33  1  6
  6  7  1  0
  6 34  1  0
  6 35  1  0
  7  8  1  0
  7 36  1  0
  7 37  1  0
  8 14  1  1
  8  9  1  0
  8 11  1  0
  9 10  1  0
  9 38  1  0
  9 39  1  0
 10 40  1  0
 10 41  1  0
 11 12  1  0
 13 12  1  1
 13 22  1  0
 13 14  1  0
 13 15  1  0
 15 20  1  0
 15 16  1  0
 15 42  1  6
 16 17  1  0
 16 43  1  0
 16 44  1  0
 17 23  1  0
 17 18  1  0
 17 45  1  1
 18 19  1  0
 18 46  1  0
 18 47  1  0
 19 20  1  0
 19 21  1  0
 19 48  1  6
 20 49  1  0
 20 50  1  0
 21 22  1  0
 21 51  1  0
 21 52  1  0
 22 23  1  0
 22 53  1  1
 23 54  1  0
 23 55  1  0
M  END
>  <i_m_ct_stereo_status>  (264) 
1

>  <s_m_source_file>  (264) 
/var/tmp/pbs.5076255.sched01/tmpc36l9o9d/84wsylf1cs.sdf

>  <i_m_source_file_index>  (264) 
34

>  <i_lp_mmshare_version>  (264) 
48012

>  <i_f3d_flags>  (264) 
0

>  <s_epik_input>  (264) 
W0NIM11DKFtDSDNdKShbQ0gzXSlbQ0BASF0oW0NIMl1bQ0gyXTEpW0NIMl1bQ0gyXVtDQF0xMk9PW0NAXTMoTzIpW0NASF00W0NIMl1bQ0BASF01W0NIMl1bQ0BIXShbQ0gyXTQpW0NIMl1bQ0BIXTNbQ0gyXTU=

>  <s_epik_cmdline>  (264) 
J2VwaWtfcHl0aG9uJywgJy1waHQnLCAnMi4wJywgJy1waCcsICc3LjAnLCAnLXRuJywgJzgnLCAnLW1hJywgJzIwMCcsICctaW1hZScsICc8aW5maWxlLm1hZT4nLCAnLW9tYWUnLCAnPG91dGZpbGUubWFlPic=

>  <r_lp_tautomer_probability>  (264) 
1

>  <r_epik_Ionization_Penalty>  (264) 
1.97337e-15

>  <r_epik_Ionization_Penalty_Charging>  (264) 
0

>  <r_epik_Ionization_Penalty_Neutral>  (264) 
1.97337e-15

>  <r_epik_State_Penalty>  (264) 
-0

>  <r_epik_Charging_Adjusted_Penalty>  (264) 
0

>  <i_epik_Tot_Q>  (264) 
0

>  <i_epik_Tot_abs_Q>  (264) 
0

>  <s_lp_Force_Field>  (264) 
OPLS3e

>  <r_lp_Energy>  (264) 
10.8875

>  <b_lp_Chiralities_Consistent>  (264) 
1

>  <s_lp_Variant>  (264) 
86:0-1

>  <s_i_glide_gridfile>  (264) 
pfpi4k_grid

>  <i_i_glide_lignum>  (264) 
34

>  <i_i_glide_rotatable_bonds>  (264) 
1

>  <r_i_docking_score>  (264) 
-3.11563

>  <r_i_glide_ligand_efficiency>  (264) 
-0.135462

>  <r_i_glide_ligand_efficiency_sa>  (264) 
-0.385236

>  <r_i_glide_ligand_efficiency_ln>  (264) 
-0.753388

>  <r_i_glide_gscore>  (264) 
-3.11563

>  <r_i_glide_lipo>  (264) 
-0.784419

>  <r_i_glide_hbond>  (264) 
0

>  <r_i_glide_metal>  (264) 
-0

>  <r_i_glide_rewards>  (264) 
-1.28835

>  <r_i_glide_evdw>  (264) 
-18.6667

>  <r_i_glide_ecoul>  (264) 
-0.684215

>  <r_i_glide_erotb>  (264) 
0

>  <r_i_glide_esite>  (264) 
-0.00689499

>  <r_i_glide_emodel>  (264) 
-21.3679

>  <r_i_glide_energy>  (264) 
-19.3509

>  <r_i_glide_einternal>  (264) 
3.44479

>  <r_i_glide_intrahb_reward>  (264) 
-0

>  <i_i_glide_confnum>  (264) 
2

>  <i_i_glide_posenum>  (264) 
35

>  <r_i_glide_eff_state_penalty>  (264) 
0

>  <ligand_id>  (264) 
86

>  <original_smiles>  (264) 
CC(C)(C)C1CCC2(CC1)OOC1(O2)C2CC3CC(C2)CC1C3

>  <smiles>  (264) 
[H]C([H])([H])C(C([H])([H])[H])(C([H])([H])[H])C1([H])C([H])([H])C([H])([H])C2(OOC3(O2)C2([H])C([H])([H])C4([H])C([H])([H])C([H])(C2([H])[H])C([H])([H])C3([H])C4([H])[H])C([H])([H])C1([H])[H]

$$$$
86:0:1
     RDKit          3D

 55 59  0  0  1  0  0  0  0  0999 V2000
    3.4510   -1.8513   -0.8454 C   0  0  0  0  0  0  0  0  0  0  0  0
    4.8890   -2.2788   -0.4530 C   0  0  0  0  0  0  0  0  0  0  0  0
    5.7229   -2.4045   -1.7507 C   0  0  0  0  0  0  0  0  0  0  0  0
    5.5234   -1.1403    0.3780 C   0  0  0  0  0  0  0  0  0  0  0  0
    4.9110   -3.6229    0.3574 C   0  0  2  0  0  0  0  0  0  0  0  0
    4.3711   -4.8347   -0.4563 C   0  0  0  0  0  0  0  0  0  0  0  0
    4.3339   -6.1433    0.3457 C   0  0  0  0  0  0  0  0  0  0  0  0
    3.5038   -5.9758    1.6350 C   0  0  1  0  0  0  0  0  0  0  0  0
    4.1385   -4.8536    2.4898 C   0  0  0  0  0  0  0  0  0  0  0  0
    4.1634   -3.5278    1.7193 C   0  0  0  0  0  0  0  0  0  0  0  0
    2.1870   -5.5794    1.2717 O   0  0  0  0  0  0  0  0  0  0  0  0
    1.3784   -6.8089    1.4419 O   0  0  0  0  0  0  0  0  0  0  0  0
    2.0334   -7.4765    2.5026 C   0  0  2  0  0  0  0  0  0  0  0  0
    3.4370   -7.2076    2.3610 O   0  0  0  0  0  0  0  0  0  0  0  0
    1.6703   -8.9916    2.4283 C   0  0  2  0  0  0  0  0  0  0  0  0
    0.1321   -9.1661    2.5074 C   0  0  0  0  0  0  0  0  0  0  0  0
   -0.3919   -8.5916    3.8396 C   0  0  1  0  0  0  0  0  0  0  0  0
    0.2490   -9.3690    5.0126 C   0  0  0  0  0  0  0  0  0  0  0  0
    1.7763   -9.2066    4.9480 C   0  0  1  0  0  0  0  0  0  0  0  0
    2.3039   -9.7692    3.6086 C   0  0  0  0  0  0  0  0  0  0  0  0
    2.1453   -7.7092    5.0468 C   0  0  0  0  0  0  0  0  0  0  0  0
    1.5089   -6.9320    3.8675 C   0  0  2  0  0  0  0  0  0  0  0  0
   -0.0249   -7.0924    3.9357 C   0  0  0  0  0  0  0  0  0  0  0  0
    3.4377   -0.9140   -1.4013 H   0  0  0  0  0  0  0  0  0  0  0  0
    2.8211   -1.7028    0.0312 H   0  0  0  0  0  0  0  0  0  0  0  0
    2.9586   -2.5908   -1.4767 H   0  0  0  0  0  0  0  0  0  0  0  0
    5.2605   -3.0798   -2.4687 H   0  0  0  0  0  0  0  0  0  0  0  0
    6.7271   -2.7790   -1.5515 H   0  0  0  0  0  0  0  0  0  0  0  0
    5.8228   -1.4476   -2.2605 H   0  0  0  0  0  0  0  0  0  0  0  0
    5.6495   -0.2369   -0.2132 H   0  0  0  0  0  0  0  0  0  0  0  0
    6.5069   -1.4130    0.7599 H   0  0  0  0  0  0  0  0  0  0  0  0
    4.9052   -0.8621    1.2299 H   0  0  0  0  0  0  0  0  0  0  0  0
    5.9577   -3.8419    0.5868 H   0  0  0  0  0  0  0  0  0  0  0  0
    3.3571   -4.6250   -0.7988 H   0  0  0  0  0  0  0  0  0  0  0  0
    4.9777   -5.0050   -1.3473 H   0  0  0  0  0  0  0  0  0  0  0  0
    3.8968   -6.9151   -0.2838 H   0  0  0  0  0  0  0  0  0  0  0  0
    5.3549   -6.4585    0.5807 H   0  0  0  0  0  0  0  0  0  0  0  0
    3.5801   -4.6958    3.4103 H   0  0  0  0  0  0  0  0  0  0  0  0
    5.1526   -5.1233    2.7930 H   0  0  0  0  0  0  0  0  0  0  0  0
    4.6163   -2.7679    2.3584 H   0  0  0  0  0  0  0  0  0  0  0  0
    3.1302   -3.2245    1.5534 H   0  0  0  0  0  0  0  0  0  0  0  0
    2.0361   -9.4106    1.4910 H   0  0  0  0  0  0  0  0  0  0  0  0
   -0.3550   -8.6521    1.6798 H   0  0  0  0  0  0  0  0  0  0  0  0
   -0.1408  -10.2186    2.4205 H   0  0  0  0  0  0  0  0  0  0  0  0
   -1.4753   -8.7036    3.8866 H   0  0  0  0  0  0  0  0  0  0  0  0
   -0.1465   -9.0115    5.9663 H   0  0  0  0  0  0  0  0  0  0  0  0
   -0.0204  -10.4224    4.9476 H   0  0  0  0  0  0  0  0  0  0  0  0
    2.2182   -9.7570    5.7815 H   0  0  0  0  0  0  0  0  0  0  0  0
    2.0597  -10.8291    3.5339 H   0  0  0  0  0  0  0  0  0  0  0  0
    3.3918   -9.7103    3.5781 H   0  0  0  0  0  0  0  0  0  0  0  0
    1.7941   -7.3100    5.9986 H   0  0  0  0  0  0  0  0  0  0  0  0
    3.2310   -7.5990    5.0504 H   0  0  0  0  0  0  0  0  0  0  0  0
    1.7519   -5.8793    3.9740 H   0  0  0  0  0  0  0  0  0  0  0  0
   -0.4927   -6.5550    3.1129 H   0  0  0  0  0  0  0  0  0  0  0  0
   -0.4155   -6.6624    4.8608 H   0  0  0  0  0  0  0  0  0  0  0  0
  1  2  1  0
  1 24  1  0
  1 25  1  0
  1 26  1  0
  2  3  1  0
  2  4  1  0
  2  5  1  0
  3 27  1  0
  3 28  1  0
  3 29  1  0
  4 30  1  0
  4 31  1  0
  4 32  1  0
  5 10  1  0
  5  6  1  0
  5 33  1  1
  6  7  1  0
  6 34  1  0
  6 35  1  0
  7  8  1  0
  7 36  1  0
  7 37  1  0
  8 14  1  1
  8  9  1  0
  8 11  1  0
  9 10  1  0
  9 38  1  0
  9 39  1  0
 10 40  1  0
 10 41  1  0
 11 12  1  0
 13 12  1  6
 13 22  1  0
 13 14  1  0
 13 15  1  0
 15 20  1  0
 15 16  1  0
 15 42  1  6
 16 17  1  0
 16 43  1  0
 16 44  1  0
 17 23  1  0
 17 18  1  0
 17 45  1  6
 18 19  1  0
 18 46  1  0
 18 47  1  0
 19 20  1  0
 19 21  1  0
 19 48  1  1
 20 49  1  0
 20 50  1  0
 21 22  1  0
 21 51  1  0
 21 52  1  0
 22 23  1  0
 22 53  1  1
 23 54  1  0
 23 55  1  0
M  END
>  <i_m_ct_stereo_status>  (265) 
1

>  <s_m_source_file>  (265) 
/var/tmp/pbs.5076255.sched01/tmpc36l9o9d/84wsylf1cs.sdf

>  <i_m_source_file_index>  (265) 
34

>  <i_lp_mmshare_version>  (265) 
48012

>  <i_f3d_flags>  (265) 
0

>  <s_epik_input>  (265) 
W0NIM11DKFtDSDNdKShbQ0gzXSlbQ0BASF0oW0NIMl1bQ0gyXTEpW0NIMl1bQ0gyXVtDQF0xMk9PW0NAXTMoTzIpW0NASF00W0NIMl1bQ0BASF01W0NIMl1bQ0BIXShbQ0gyXTQpW0NIMl1bQ0BIXTNbQ0gyXTU=

>  <s_epik_cmdline>  (265) 
J2VwaWtfcHl0aG9uJywgJy1waHQnLCAnMi4wJywgJy1waCcsICc3LjAnLCAnLXRuJywgJzgnLCAnLW1hJywgJzIwMCcsICctaW1hZScsICc8aW5maWxlLm1hZT4nLCAnLW9tYWUnLCAnPG91dGZpbGUubWFlPic=

>  <r_lp_tautomer_probability>  (265) 
1

>  <r_epik_Ionization_Penalty>  (265) 
1.97337e-15

>  <r_epik_Ionization_Penalty_Charging>  (265) 
0

>  <r_epik_Ionization_Penalty_Neutral>  (265) 
1.97337e-15

>  <r_epik_State_Penalty>  (265) 
-0

>  <r_epik_Charging_Adjusted_Penalty>  (265) 
0

>  <i_epik_Tot_Q>  (265) 
0

>  <i_epik_Tot_abs_Q>  (265) 
0

>  <s_lp_Force_Field>  (265) 
OPLS3e

>  <r_lp_Energy>  (265) 
10.8875

>  <b_lp_Chiralities_Consistent>  (265) 
1

>  <s_lp_Variant>  (265) 
86:0-1

>  <s_i_glide_gridfile>  (265) 
pfpi4k_grid

>  <i_i_glide_lignum>  (265) 
34

>  <i_i_glide_rotatable_bonds>  (265) 
1

>  <r_i_docking_score>  (265) 
-2.71685

>  <r_i_glide_ligand_efficiency>  (265) 
-0.118124

>  <r_i_glide_ligand_efficiency_sa>  (265) 
-0.335928

>  <r_i_glide_ligand_efficiency_ln>  (265) 
-0.656958

>  <r_i_glide_gscore>  (265) 
-2.71685

>  <r_i_glide_lipo>  (265) 
-0.291236

>  <r_i_glide_hbond>  (265) 
0

>  <r_i_glide_metal>  (265) 
-0

>  <r_i_glide_rewards>  (265) 
-1.26542

>  <r_i_glide_evdw>  (265) 
-19.5964

>  <r_i_glide_ecoul>  (265) 
-1.12391

>  <r_i_glide_erotb>  (265) 
0

>  <r_i_glide_esite>  (265) 
-0.01178

>  <r_i_glide_emodel>  (265) 
-24.1249

>  <r_i_glide_energy>  (265) 
-20.7204

>  <r_i_glide_einternal>  (265) 
0.00383095

>  <r_i_glide_intrahb_reward>  (265) 
-0

>  <i_i_glide_confnum>  (265) 
2

>  <i_i_glide_posenum>  (265) 
36

>  <r_i_glide_eff_state_penalty>  (265) 
0

>  <ligand_id>  (265) 
86

>  <original_smiles>  (265) 
CC(C)(C)C1CCC2(CC1)OOC1(O2)C2CC3CC(C2)CC1C3

>  <smiles>  (265) 
[H]C([H])([H])C(C([H])([H])[H])(C([H])([H])[H])C1([H])C([H])([H])C([H])([H])C2(OOC3(O2)C2([H])C([H])([H])C4([H])C([H])([H])C([H])(C2([H])[H])C([H])([H])C3([H])C4([H])[H])C([H])([H])C1([H])[H]

$$$$
86:0:2
     RDKit          3D

 55 59  0  0  1  0  0  0  0  0999 V2000
    4.3497   -3.2164   -2.3930 C   0  0  0  0  0  0  0  0  0  0  0  0
    5.0488   -2.5323   -1.1886 C   0  0  0  0  0  0  0  0  0  0  0  0
    6.5744   -2.5269   -1.4478 C   0  0  0  0  0  0  0  0  0  0  0  0
    4.6013   -1.0504   -1.1588 C   0  0  0  0  0  0  0  0  0  0  0  0
    4.7277   -3.2425    0.1736 C   0  0  2  0  0  0  0  0  0  0  0  0
    5.2004   -4.7273    0.2186 C   0  0  0  0  0  0  0  0  0  0  0  0
    4.8460   -5.4387    1.5366 C   0  0  0  0  0  0  0  0  0  0  0  0
    3.3358   -5.3502    1.8164 C   0  0  1  0  0  0  0  0  0  0  0  0
    2.9154   -3.8703    1.8953 C   0  0  0  0  0  0  0  0  0  0  0  0
    3.2302   -3.1420    0.5789 C   0  0  0  0  0  0  0  0  0  0  0  0
    2.6272   -5.9625    0.7358 O   0  0  0  0  0  0  0  0  0  0  0  0
    2.2298   -7.2803    1.2749 O   0  0  0  0  0  0  0  0  0  0  0  0
    2.0156   -7.0249    2.6377 C   0  0  2  0  0  0  0  0  0  0  0  0
    3.0075   -6.0417    3.0379 O   0  0  0  0  0  0  0  0  0  0  0  0
    2.1274   -8.3825    3.3877 C   0  0  2  0  0  0  0  0  0  0  0  0
    1.0929   -9.3872    2.8151 C   0  0  0  0  0  0  0  0  0  0  0  0
   -0.3314   -8.8186    2.9943 C   0  0  1  0  0  0  0  0  0  0  0  0
   -0.6135   -8.6196    4.5018 C   0  0  0  0  0  0  0  0  0  0  0  0
    0.4115   -7.6227    5.0784 C   0  0  1  0  0  0  0  0  0  0  0  0
    1.8377   -8.1834    4.8939 C   0  0  0  0  0  0  0  0  0  0  0  0
    0.2917   -6.2734    4.3436 C   0  0  0  0  0  0  0  0  0  0  0  0
    0.5743   -6.4726    2.8363 C   0  0  2  0  0  0  0  0  0  0  0  0
   -0.4531   -7.4691    2.2546 C   0  0  0  0  0  0  0  0  0  0  0  0
    4.5566   -2.7083   -3.3376 H   0  0  0  0  0  0  0  0  0  0  0  0
    3.2645   -3.2272   -2.2765 H   0  0  0  0  0  0  0  0  0  0  0  0
    4.6705   -4.2506   -2.5146 H   0  0  0  0  0  0  0  0  0  0  0  0
    6.9568   -3.5255   -1.6578 H   0  0  0  0  0  0  0  0  0  0  0  0
    7.1305   -2.1318   -0.5953 H   0  0  0  0  0  0  0  0  0  0  0  0
    6.8369   -1.9139   -2.3092 H   0  0  0  0  0  0  0  0  0  0  0  0
    4.9306   -0.4924   -2.0364 H   0  0  0  0  0  0  0  0  0  0  0  0
    4.9924   -0.5271   -0.2885 H   0  0  0  0  0  0  0  0  0  0  0  0
    3.5149   -0.9592   -1.1346 H   0  0  0  0  0  0  0  0  0  0  0  0
    5.2929   -2.7099    0.9458 H   0  0  0  0  0  0  0  0  0  0  0  0
    4.7474   -5.2889   -0.5997 H   0  0  0  0  0  0  0  0  0  0  0  0
    6.2811   -4.7929    0.0879 H   0  0  0  0  0  0  0  0  0  0  0  0
    5.1508   -6.4826    1.4631 H   0  0  0  0  0  0  0  0  0  0  0  0
    5.4081   -4.9966    2.3649 H   0  0  0  0  0  0  0  0  0  0  0  0
    1.8489   -3.7681    2.0933 H   0  0  0  0  0  0  0  0  0  0  0  0
    3.4214   -3.3768    2.7291 H   0  0  0  0  0  0  0  0  0  0  0  0
    2.9207   -2.1021    0.6905 H   0  0  0  0  0  0  0  0  0  0  0  0
    2.6088   -3.5763   -0.2028 H   0  0  0  0  0  0  0  0  0  0  0  0
    3.1319   -8.7872    3.2624 H   0  0  0  0  0  0  0  0  0  0  0  0
    1.2846   -9.5770    1.7574 H   0  0  0  0  0  0  0  0  0  0  0  0
    1.1758  -10.3493    3.3245 H   0  0  0  0  0  0  0  0  0  0  0  0
   -1.0573   -9.5230    2.5849 H   0  0  0  0  0  0  0  0  0  0  0  0
   -1.6360   -8.2666    4.6547 H   0  0  0  0  0  0  0  0  0  0  0  0
   -0.5370   -9.5717    5.0232 H   0  0  0  0  0  0  0  0  0  0  0  0
    0.2034   -7.4896    6.1414 H   0  0  0  0  0  0  0  0  0  0  0  0
    1.9346   -9.1336    5.4159 H   0  0  0  0  0  0  0  0  0  0  0  0
    2.5682   -7.5142    5.3456 H   0  0  0  0  0  0  0  0  0  0  0  0
   -0.7055   -5.8665    4.4872 H   0  0  0  0  0  0  0  0  0  0  0  0
    0.9869   -5.5560    4.7799 H   0  0  0  0  0  0  0  0  0  0  0  0
    0.4748   -5.5187    2.3304 H   0  0  0  0  0  0  0  0  0  0  0  0
   -0.2735   -7.6255    1.1887 H   0  0  0  0  0  0  0  0  0  0  0  0
   -1.4657   -7.0774    2.3525 H   0  0  0  0  0  0  0  0  0  0  0  0
  1  2  1  0
  1 24  1  0
  1 25  1  0
  1 26  1  0
  2  3  1  0
  2  4  1  0
  2  5  1  0
  3 27  1  0
  3 28  1  0
  3 29  1  0
  4 30  1  0
  4 31  1  0
  4 32  1  0
  5 10  1  0
  5  6  1  0
  5 33  1  1
  6  7  1  0
  6 34  1  0
  6 35  1  0
  7  8  1  0
  7 36  1  0
  7 37  1  0
  8 14  1  1
  8  9  1  0
  8 11  1  0
  9 10  1  0
  9 38  1  0
  9 39  1  0
 10 40  1  0
 10 41  1  0
 11 12  1  0
 13 12  1  6
 13 22  1  0
 13 14  1  0
 13 15  1  0
 15 20  1  0
 15 16  1  0
 15 42  1  1
 16 17  1  0
 16 43  1  0
 16 44  1  0
 17 23  1  0
 17 18  1  0
 17 45  1  6
 18 19  1  0
 18 46  1  0
 18 47  1  0
 19 20  1  0
 19 21  1  0
 19 48  1  1
 20 49  1  0
 20 50  1  0
 21 22  1  0
 21 51  1  0
 21 52  1  0
 22 23  1  0
 22 53  1  6
 23 54  1  0
 23 55  1  0
M  END
>  <i_m_ct_stereo_status>  (266) 
1

>  <s_m_source_file>  (266) 
/var/tmp/pbs.5076255.sched01/tmpc36l9o9d/84wsylf1cs.sdf

>  <i_m_source_file_index>  (266) 
34

>  <i_lp_mmshare_version>  (266) 
48012

>  <i_f3d_flags>  (266) 
0

>  <s_epik_input>  (266) 
W0NIM11DKFtDSDNdKShbQ0gzXSlbQ0BASF0oW0NIMl1bQ0gyXTEpW0NIMl1bQ0gyXVtDQF0xMk9PW0NAXTMoTzIpW0NASF00W0NIMl1bQ0BASF01W0NIMl1bQ0BIXShbQ0gyXTQpW0NIMl1bQ0BIXTNbQ0gyXTU=

>  <s_epik_cmdline>  (266) 
J2VwaWtfcHl0aG9uJywgJy1waHQnLCAnMi4wJywgJy1waCcsICc3LjAnLCAnLXRuJywgJzgnLCAnLW1hJywgJzIwMCcsICctaW1hZScsICc8aW5maWxlLm1hZT4nLCAnLW9tYWUnLCAnPG91dGZpbGUubWFlPic=

>  <r_lp_tautomer_probability>  (266) 
1

>  <r_epik_Ionization_Penalty>  (266) 
1.97337e-15

>  <r_epik_Ionization_Penalty_Charging>  (266) 
0

>  <r_epik_Ionization_Penalty_Neutral>  (266) 
1.97337e-15

>  <r_epik_State_Penalty>  (266) 
-0

>  <r_epik_Charging_Adjusted_Penalty>  (266) 
0

>  <i_epik_Tot_Q>  (266) 
0

>  <i_epik_Tot_abs_Q>  (266) 
0

>  <s_lp_Force_Field>  (266) 
OPLS3e

>  <r_lp_Energy>  (266) 
10.8875

>  <b_lp_Chiralities_Consistent>  (266) 
1

>  <s_lp_Variant>  (266) 
86:0-1

>  <s_i_glide_gridfile>  (266) 
pfpi4k_grid

>  <i_i_glide_lignum>  (266) 
34

>  <i_i_glide_rotatable_bonds>  (266) 
1

>  <r_i_docking_score>  (266) 
-2.52648

>  <r_i_glide_ligand_efficiency>  (266) 
-0.109847

>  <r_i_glide_ligand_efficiency_sa>  (266) 
-0.31239

>  <r_i_glide_ligand_efficiency_ln>  (266) 
-0.610926

>  <r_i_glide_gscore>  (266) 
-2.52648

>  <r_i_glide_lipo>  (266) 
-0.16156

>  <r_i_glide_hbond>  (266) 
0

>  <r_i_glide_metal>  (266) 
-0

>  <r_i_glide_rewards>  (266) 
-1.23008

>  <r_i_glide_evdw>  (266) 
-20.9662

>  <r_i_glide_ecoul>  (266) 
-0.501526

>  <r_i_glide_erotb>  (266) 
0

>  <r_i_glide_esite>  (266) 
-0.0112999

>  <r_i_glide_emodel>  (266) 
-24.588

>  <r_i_glide_energy>  (266) 
-21.4677

>  <r_i_glide_einternal>  (266) 
0.0198737

>  <r_i_glide_intrahb_reward>  (266) 
-0

>  <i_i_glide_confnum>  (266) 
2

>  <i_i_glide_posenum>  (266) 
26

>  <r_i_glide_eff_state_penalty>  (266) 
0

>  <ligand_id>  (266) 
86

>  <original_smiles>  (266) 
CC(C)(C)C1CCC2(CC1)OOC1(O2)C2CC3CC(C2)CC1C3

>  <smiles>  (266) 
[H]C([H])([H])C(C([H])([H])[H])(C([H])([H])[H])C1([H])C([H])([H])C([H])([H])C2(OOC3(O2)C2([H])C([H])([H])C4([H])C([H])([H])C([H])(C2([H])[H])C([H])([H])C3([H])C4([H])[H])C([H])([H])C1([H])[H]

$$$$
87:0:0
     RDKit          3D

 51 54  0  0  1  0  0  0  0  0999 V2000
    8.7493   -2.3774    0.0491 C   0  0  0  0  0  0  0  0  0  0  0  0
    7.5275   -3.0711    0.4823 N   0  0  0  0  0  0  0  0  0  0  0  0
    6.4821   -2.2511    1.0985 C   0  0  0  0  0  0  0  0  0  0  0  0
    5.2107   -2.1581    0.2120 C   0  0  0  0  0  0  0  0  0  0  0  0
    4.0575   -1.5476    1.0229 C   0  0  0  0  0  0  0  0  0  0  0  0
    5.4784   -1.2982   -1.0388 C   0  0  0  0  0  0  0  0  0  0  0  0
    4.7640   -3.4214   -0.2956 O   0  0  0  0  0  0  0  0  0  0  0  0
    4.8862   -4.5315    0.5100 C   0  0  0  0  0  0  0  0  0  0  0  0
    3.7223   -5.1321    0.8337 N   0  0  0  0  0  0  0  0  0  0  0  0
    3.7731   -6.2608    1.5448 C   0  0  0  0  0  0  0  0  0  0  0  0
    2.4873   -6.9136    1.8851 C   0  0  0  0  0  0  0  0  0  0  0  0
    2.4117   -8.1094    2.6388 C   0  0  0  0  0  0  0  0  0  0  0  0
    1.2293   -8.6830    2.9531 N   0  0  0  0  0  0  0  0  0  0  0  0
    0.1241   -8.0814    2.5280 C   0  0  0  0  0  0  0  0  0  0  0  0
   -1.0644   -8.6671    2.8847 N   0  0  0  0  0  0  0  0  0  0  0  0
    0.0546   -6.9525    1.8213 N   0  0  0  0  0  0  0  0  0  0  0  0
    1.2404   -6.3857    1.4905 C   0  0  0  0  0  0  0  0  0  0  0  0
    4.9040   -6.8261    1.9740 N   0  0  0  0  0  0  0  0  0  0  0  0
    6.0914   -6.2436    1.6771 C   0  0  0  0  0  0  0  0  0  0  0  0
    7.2277   -6.8802    2.2050 N   0  0  0  0  0  0  0  0  0  0  0  0
    8.3136   -6.1468    2.8503 C   0  0  0  0  0  0  0  0  0  0  0  0
    8.5455   -6.6859    4.2638 C   0  0  0  0  0  0  0  0  0  0  0  0
    8.7872   -8.0876    4.1934 O   0  0  0  0  0  0  0  0  0  0  0  0
    7.6719   -8.8011    3.6599 C   0  0  0  0  0  0  0  0  0  0  0  0
    7.3532   -8.3284    2.2290 C   0  0  0  0  0  0  0  0  0  0  0  0
    6.1447   -5.0499    0.9045 C   0  0  0  0  0  0  0  0  0  0  0  0
    7.4399   -4.4136    0.4423 C   0  0  0  0  0  0  0  0  0  0  0  0
    8.3825   -5.1160    0.0822 O   0  0  0  0  0  0  0  0  0  0  0  0
   -1.0563   -9.5314    3.4102 H   0  0  0  0  0  0  0  0  0  0  0  0
    9.4752   -3.0344   -0.4258 H   0  0  0  0  0  0  0  0  0  0  0  0
    9.2661   -1.9025    0.8796 H   0  0  0  0  0  0  0  0  0  0  0  0
    8.5261   -1.6148   -0.6876 H   0  0  0  0  0  0  0  0  0  0  0  0
    6.2450   -2.6609    2.0866 H   0  0  0  0  0  0  0  0  0  0  0  0
    6.8758   -1.2560    1.2990 H   0  0  0  0  0  0  0  0  0  0  0  0
    4.2990   -0.5458    1.3780 H   0  0  0  0  0  0  0  0  0  0  0  0
    3.8240   -2.1614    1.8914 H   0  0  0  0  0  0  0  0  0  0  0  0
    3.1541   -1.4751    0.4180 H   0  0  0  0  0  0  0  0  0  0  0  0
    5.8069   -0.2918   -0.7766 H   0  0  0  0  0  0  0  0  0  0  0  0
    4.5745   -1.1928   -1.6376 H   0  0  0  0  0  0  0  0  0  0  0  0
    6.2324   -1.7486   -1.6849 H   0  0  0  0  0  0  0  0  0  0  0  0
    3.2887   -8.6095    3.0145 H   0  0  0  0  0  0  0  0  0  0  0  0
   -1.9366   -8.2990    2.5443 H   0  0  0  0  0  0  0  0  0  0  0  0
    1.1588   -5.4784    0.9118 H   0  0  0  0  0  0  0  0  0  0  0  0
    9.2305   -6.2507    2.2639 H   0  0  0  0  0  0  0  0  0  0  0  0
    8.0818   -5.0866    2.9067 H   0  0  0  0  0  0  0  0  0  0  0  0
    9.4051   -6.1854    4.7105 H   0  0  0  0  0  0  0  0  0  0  0  0
    7.6854   -6.4769    4.9003 H   0  0  0  0  0  0  0  0  0  0  0  0
    7.9063   -9.8659    3.6616 H   0  0  0  0  0  0  0  0  0  0  0  0
    6.8048   -8.6562    4.3048 H   0  0  0  0  0  0  0  0  0  0  0  0
    6.4721   -8.8411    1.8362 H   0  0  0  0  0  0  0  0  0  0  0  0
    8.1770   -8.5602    1.5595 H   0  0  0  0  0  0  0  0  0  0  0  0
  1  2  1  0
  1 30  1  0
  1 31  1  0
  1 32  1  0
  2 27  1  0
  2  3  1  0
  3  4  1  0
  3 33  1  0
  3 34  1  0
  4  5  1  0
  4  6  1  0
  4  7  1  0
  5 35  1  0
  5 36  1  0
  5 37  1  0
  6 38  1  0
  6 39  1  0
  6 40  1  0
  7  8  1  0
  8 26  2  0
  8  9  1  0
  9 10  2  0
 10 18  1  0
 10 11  1  0
 11 12  2  0
 11 17  1  0
 12 13  1  0
 12 41  1  0
 13 14  2  0
 14 15  1  0
 14 16  1  0
 15 42  1  0
 15 29  1  0
 16 17  2  0
 17 43  1  0
 18 19  2  0
 19 20  1  0
 19 26  1  0
 20 25  1  0
 20 21  1  0
 21 22  1  0
 21 44  1  0
 21 45  1  0
 22 23  1  0
 22 46  1  0
 22 47  1  0
 23 24  1  0
 24 25  1  0
 24 48  1  0
 24 49  1  0
 25 50  1  0
 25 51  1  0
 26 27  1  0
 27 28  2  0
M  END
>  <i_m_ct_stereo_status>  (267) 
1

>  <s_m_source_file>  (267) 
/var/tmp/pbs.5076255.sched01/tmpc36l9o9d/84wsylf1cs.sdf

>  <i_m_source_file_index>  (267) 
35

>  <i_lp_mmshare_version>  (267) 
48012

>  <i_f3d_flags>  (267) 
0

>  <s_epik_input>  (267) 
W0NIM11DKE8xKShbQ0gzXSlbQ0gyXU4oW0NIM10pQyg9TyljKGMxMiljKE4zW0NIMl1bQ0gyXU9bQ0gyXVtDSDJdMyluYyhuMiktYzRbY0hdbmMoPVtOSF0pW25IXVtjSF00

>  <s_epik_cmdline>  (267) 
J2VwaWtfcHl0aG9uJywgJy1waHQnLCAnMi4wJywgJy1waCcsICc3LjAnLCAnLXRuJywgJzgnLCAnLW1hJywgJzIwMCcsICctaW1hZScsICc8aW5maWxlLm1hZT4nLCAnLW9tYWUnLCAnPG91dGZpbGUubWFlPic=

>  <r_lp_tautomer_probability>  (267) 
1

>  <r_epik_Ionization_Penalty>  (267) 
3.12169e-05

>  <r_epik_Ionization_Penalty_Charging>  (267) 
0

>  <r_epik_Ionization_Penalty_Neutral>  (267) 
3.12169e-05

>  <r_epik_State_Penalty>  (267) 
-0

>  <r_epik_Charging_Adjusted_Penalty>  (267) 
0

>  <i_epik_Tot_Q>  (267) 
0

>  <i_epik_Tot_abs_Q>  (267) 
0

>  <s_lp_Force_Field>  (267) 
OPLS3e

>  <r_lp_Energy>  (267) 
53.1409

>  <b_lp_Chiralities_Consistent>  (267) 
1

>  <s_lp_Variant>  (267) 
87:0-1

>  <s_i_glide_gridfile>  (267) 
pfpi4k_grid

>  <i_i_glide_lignum>  (267) 
35

>  <i_i_glide_rotatable_bonds>  (267) 
2

>  <r_i_docking_score>  (267) 
-3.21408

>  <r_i_glide_ligand_efficiency>  (267) 
-0.114788

>  <r_i_glide_ligand_efficiency_sa>  (267) 
-0.348565

>  <r_i_glide_ligand_efficiency_ln>  (267) 
-0.741903

>  <r_i_glide_gscore>  (267) 
-3.21408

>  <r_i_glide_lipo>  (267) 
-0.390076

>  <r_i_glide_hbond>  (267) 
-0.0137089

>  <r_i_glide_metal>  (267) 
-0

>  <r_i_glide_rewards>  (267) 
-1.30253

>  <r_i_glide_evdw>  (267) 
-30.4631

>  <r_i_glide_ecoul>  (267) 
-1.12268

>  <r_i_glide_erotb>  (267) 
0.261905

>  <r_i_glide_esite>  (267) 
-0.0781058

>  <r_i_glide_emodel>  (267) 
-38.1139

>  <r_i_glide_energy>  (267) 
-31.5858

>  <r_i_glide_einternal>  (267) 
0.0928967

>  <r_i_glide_intrahb_reward>  (267) 
-0

>  <i_i_glide_confnum>  (267) 
2

>  <i_i_glide_posenum>  (267) 
3

>  <r_i_glide_eff_state_penalty>  (267) 
0

>  <ligand_id>  (267) 
87

>  <original_smiles>  (267) 
CN1CC(C)(C)Oc2nc(-c3cnc(=N)[nH]c3)nc(N3CCOCC3)c2C1=O

>  <smiles>  (267) 
[H]c1nc(N([H])[H])nc([H])c1-c1nc2c(c(N3C([H])([H])C([H])([H])OC([H])([H])C3([H])[H])n1)C(=O)N(C([H])([H])[H])C([H])([H])C(C([H])([H])[H])(C([H])([H])[H])O2

$$$$
87:0:1
     RDKit          3D

 51 54  0  0  1  0  0  0  0  0999 V2000
    1.7160  -10.6160    4.4621 C   0  0  0  0  0  0  0  0  0  0  0  0
    2.0137   -9.5558    3.4830 N   0  0  0  0  0  0  0  0  0  0  0  0
    0.9560   -9.2952    2.4844 C   0  0  0  0  0  0  0  0  0  0  0  0
    0.2815   -7.9079    2.6928 C   0  0  0  0  0  0  0  0  0  0  0  0
   -0.5637   -7.5422    1.4647 C   0  0  0  0  0  0  0  0  0  0  0  0
   -0.6034   -7.8933    3.9577 C   0  0  0  0  0  0  0  0  0  0  0  0
    1.2058   -6.8289    2.8747 O   0  0  0  0  0  0  0  0  0  0  0  0
    2.3802   -6.8571    2.1620 C   0  0  0  0  0  0  0  0  0  0  0  0
    2.5698   -5.8184    1.3161 N   0  0  0  0  0  0  0  0  0  0  0  0
    3.7451   -5.7345    0.6973 C   0  0  0  0  0  0  0  0  0  0  0  0
    3.9449   -4.5845   -0.2162 C   0  0  0  0  0  0  0  0  0  0  0  0
    5.2240   -4.1959   -0.6884 C   0  0  0  0  0  0  0  0  0  0  0  0
    5.3967   -3.1561   -1.5385 N   0  0  0  0  0  0  0  0  0  0  0  0
    4.3016   -2.5162   -1.9277 C   0  0  0  0  0  0  0  0  0  0  0  0
    4.4778   -1.4654   -2.7905 N   0  0  0  0  0  0  0  0  0  0  0  0
    3.0564   -2.7790   -1.5718 N   0  0  0  0  0  0  0  0  0  0  0  0
    2.8651   -3.8053   -0.7133 C   0  0  0  0  0  0  0  0  0  0  0  0
    4.7442   -6.6117    0.8278 N   0  0  0  0  0  0  0  0  0  0  0  0
    4.5751   -7.6813    1.6502 C   0  0  0  0  0  0  0  0  0  0  0  0
    5.6511   -8.6015    1.6957 N   0  0  0  0  0  0  0  0  0  0  0  0
    6.9941   -8.1708    2.0374 C   0  0  0  0  0  0  0  0  0  0  0  0
    7.5012   -9.0320    3.2133 C   0  0  0  0  0  0  0  0  0  0  0  0
    7.4126  -10.4214    2.8796 O   0  0  0  0  0  0  0  0  0  0  0  0
    6.0762  -10.8560    2.6376 C   0  0  0  0  0  0  0  0  0  0  0  0
    5.4677  -10.0304    1.4708 C   0  0  0  0  0  0  0  0  0  0  0  0
    3.3741   -7.8388    2.3964 C   0  0  0  0  0  0  0  0  0  0  0  0
    3.1821   -8.8743    3.4810 C   0  0  0  0  0  0  0  0  0  0  0  0
    4.0618   -9.0339    4.3198 O   0  0  0  0  0  0  0  0  0  0  0  0
    5.4089   -1.2122   -3.0939 H   0  0  0  0  0  0  0  0  0  0  0  0
    2.5137  -10.7507    5.1978 H   0  0  0  0  0  0  0  0  0  0  0  0
    1.5854  -11.5785    3.9703 H   0  0  0  0  0  0  0  0  0  0  0  0
    0.8113  -10.3973    5.0276 H   0  0  0  0  0  0  0  0  0  0  0  0
    1.4077   -9.3615    1.4943 H   0  0  0  0  0  0  0  0  0  0  0  0
    0.2011  -10.0866    2.5036 H   0  0  0  0  0  0  0  0  0  0  0  0
   -1.3561   -8.2733    1.2962 H   0  0  0  0  0  0  0  0  0  0  0  0
    0.0468   -7.4932    0.5631 H   0  0  0  0  0  0  0  0  0  0  0  0
   -1.0094   -6.5639    1.6042 H   0  0  0  0  0  0  0  0  0  0  0  0
   -1.3774   -8.6623    3.9269 H   0  0  0  0  0  0  0  0  0  0  0  0
   -1.1068   -6.9347    4.0832 H   0  0  0  0  0  0  0  0  0  0  0  0
   -0.0173   -8.0617    4.8631 H   0  0  0  0  0  0  0  0  0  0  0  0
    6.1171   -4.7175   -0.3894 H   0  0  0  0  0  0  0  0  0  0  0  0
    3.6692   -0.9247   -3.0852 H   0  0  0  0  0  0  0  0  0  0  0  0
    1.8433   -4.0039   -0.4384 H   0  0  0  0  0  0  0  0  0  0  0  0
    7.6603   -8.2906    1.1805 H   0  0  0  0  0  0  0  0  0  0  0  0
    7.0198   -7.1140    2.3072 H   0  0  0  0  0  0  0  0  0  0  0  0
    8.5416   -8.7904    3.4390 H   0  0  0  0  0  0  0  0  0  0  0  0
    6.9327   -8.8308    4.1203 H   0  0  0  0  0  0  0  0  0  0  0  0
    6.0921  -11.9183    2.3613 H   0  0  0  0  0  0  0  0  0  0  0  0
    5.5229  -10.7748    3.5600 H   0  0  0  0  0  0  0  0  0  0  0  0
    4.4159  -10.2579    1.3402 H   0  0  0  0  0  0  0  0  0  0  0  0
    5.9616  -10.2970    0.5351 H   0  0  0  0  0  0  0  0  0  0  0  0
  1  2  1  0
  1 30  1  0
  1 31  1  0
  1 32  1  0
  2 27  1  0
  2  3  1  0
  3  4  1  0
  3 33  1  0
  3 34  1  0
  4  5  1  0
  4  6  1  0
  4  7  1  0
  5 35  1  0
  5 36  1  0
  5 37  1  0
  6 38  1  0
  6 39  1  0
  6 40  1  0
  7  8  1  0
  8 26  2  0
  8  9  1  0
  9 10  2  0
 10 18  1  0
 10 11  1  0
 11 12  2  0
 11 17  1  0
 12 13  1  0
 12 41  1  0
 13 14  2  0
 14 15  1  0
 14 16  1  0
 15 42  1  0
 15 29  1  0
 16 17  2  0
 17 43  1  0
 18 19  2  0
 19 20  1  0
 19 26  1  0
 20 25  1  0
 20 21  1  0
 21 22  1  0
 21 44  1  0
 21 45  1  0
 22 23  1  0
 22 46  1  0
 22 47  1  0
 23 24  1  0
 24 25  1  0
 24 48  1  0
 24 49  1  0
 25 50  1  0
 25 51  1  0
 26 27  1  0
 27 28  2  0
M  END
>  <i_m_ct_stereo_status>  (268) 
1

>  <s_m_source_file>  (268) 
/var/tmp/pbs.5076255.sched01/tmpc36l9o9d/84wsylf1cs.sdf

>  <i_m_source_file_index>  (268) 
35

>  <i_lp_mmshare_version>  (268) 
48012

>  <i_f3d_flags>  (268) 
0

>  <s_epik_input>  (268) 
W0NIM11DKE8xKShbQ0gzXSlbQ0gyXU4oW0NIM10pQyg9TyljKGMxMiljKE4zW0NIMl1bQ0gyXU9bQ0gyXVtDSDJdMyluYyhuMiktYzRbY0hdbmMoPVtOSF0pW25IXVtjSF00

>  <s_epik_cmdline>  (268) 
J2VwaWtfcHl0aG9uJywgJy1waHQnLCAnMi4wJywgJy1waCcsICc3LjAnLCAnLXRuJywgJzgnLCAnLW1hJywgJzIwMCcsICctaW1hZScsICc8aW5maWxlLm1hZT4nLCAnLW9tYWUnLCAnPG91dGZpbGUubWFlPic=

>  <r_lp_tautomer_probability>  (268) 
1

>  <r_epik_Ionization_Penalty>  (268) 
3.12169e-05

>  <r_epik_Ionization_Penalty_Charging>  (268) 
0

>  <r_epik_Ionization_Penalty_Neutral>  (268) 
3.12169e-05

>  <r_epik_State_Penalty>  (268) 
-0

>  <r_epik_Charging_Adjusted_Penalty>  (268) 
0

>  <i_epik_Tot_Q>  (268) 
0

>  <i_epik_Tot_abs_Q>  (268) 
0

>  <s_lp_Force_Field>  (268) 
OPLS3e

>  <r_lp_Energy>  (268) 
53.1409

>  <b_lp_Chiralities_Consistent>  (268) 
1

>  <s_lp_Variant>  (268) 
87:0-1

>  <s_i_glide_gridfile>  (268) 
pfpi4k_grid

>  <i_i_glide_lignum>  (268) 
35

>  <i_i_glide_rotatable_bonds>  (268) 
2

>  <r_i_docking_score>  (268) 
-2.83394

>  <r_i_glide_ligand_efficiency>  (268) 
-0.101212

>  <r_i_glide_ligand_efficiency_sa>  (268) 
-0.30734

>  <r_i_glide_ligand_efficiency_ln>  (268) 
-0.654157

>  <r_i_glide_gscore>  (268) 
-2.83394

>  <r_i_glide_lipo>  (268) 
-0.269817

>  <r_i_glide_hbond>  (268) 
0

>  <r_i_glide_metal>  (268) 
-0

>  <r_i_glide_rewards>  (268) 
-0.885032

>  <r_i_glide_evdw>  (268) 
-31.9024

>  <r_i_glide_ecoul>  (268) 
-2.06816

>  <r_i_glide_erotb>  (268) 
0.261905

>  <r_i_glide_esite>  (268) 
-0.0356563

>  <r_i_glide_emodel>  (268) 
-39.118

>  <r_i_glide_energy>  (268) 
-33.9705

>  <r_i_glide_einternal>  (268) 
1.01777

>  <r_i_glide_intrahb_reward>  (268) 
-0

>  <i_i_glide_confnum>  (268) 
3

>  <i_i_glide_posenum>  (268) 
28

>  <r_i_glide_eff_state_penalty>  (268) 
0

>  <ligand_id>  (268) 
87

>  <original_smiles>  (268) 
CN1CC(C)(C)Oc2nc(-c3cnc(=N)[nH]c3)nc(N3CCOCC3)c2C1=O

>  <smiles>  (268) 
[H]c1nc(N([H])[H])nc([H])c1-c1nc2c(c(N3C([H])([H])C([H])([H])OC([H])([H])C3([H])[H])n1)C(=O)N(C([H])([H])[H])C([H])([H])C(C([H])([H])[H])(C([H])([H])[H])O2

$$$$
87:0:2
     RDKit          3D

 51 54  0  0  1  0  0  0  0  0999 V2000
    4.9239   -7.9592    1.1185 C   0  0  0  0  0  0  0  0  0  0  0  0
    4.1363   -6.7403    1.3762 N   0  0  0  0  0  0  0  0  0  0  0  0
    2.6967   -6.9353    1.5988 C   0  0  0  0  0  0  0  0  0  0  0  0
    2.2796   -6.6149    3.0621 C   0  0  0  0  0  0  0  0  0  0  0  0
    0.7485   -6.5470    3.1628 C   0  0  0  0  0  0  0  0  0  0  0  0
    2.8161   -7.6852    4.0318 C   0  0  0  0  0  0  0  0  0  0  0  0
    2.7915   -5.3727    3.5561 O   0  0  0  0  0  0  0  0  0  0  0  0
    2.8934   -4.3177    2.6845 C   0  0  0  0  0  0  0  0  0  0  0  0
    2.1520   -3.2368    3.0061 N   0  0  0  0  0  0  0  0  0  0  0  0
    2.2705   -2.1493    2.2499 C   0  0  0  0  0  0  0  0  0  0  0  0
    1.4629   -0.9672    2.6327 C   0  0  0  0  0  0  0  0  0  0  0  0
    0.5906   -0.9694    3.7525 C   0  0  0  0  0  0  0  0  0  0  0  0
   -0.1637    0.1045    4.0847 N   0  0  0  0  0  0  0  0  0  0  0  0
   -0.0290    1.1833    3.3185 C   0  0  0  0  0  0  0  0  0  0  0  0
   -0.7644    2.2838    3.6650 N   0  0  0  0  0  0  0  0  0  0  0  0
    0.7569    1.3150    2.2570 N   0  0  0  0  0  0  0  0  0  0  0  0
    1.4958    0.2453    1.8996 C   0  0  0  0  0  0  0  0  0  0  0  0
    3.0638   -2.0557    1.1763 N   0  0  0  0  0  0  0  0  0  0  0  0
    3.8123   -3.1280    0.8143 C   0  0  0  0  0  0  0  0  0  0  0  0
    4.5799   -2.9605   -0.3574 N   0  0  0  0  0  0  0  0  0  0  0  0
    4.6543   -3.9916   -1.3852 C   0  0  0  0  0  0  0  0  0  0  0  0
    4.2195   -3.4333   -2.7480 C   0  0  0  0  0  0  0  0  0  0  0  0
    4.9941   -2.2759   -3.0486 O   0  0  0  0  0  0  0  0  0  0  0  0
    4.8011   -1.2372   -2.0887 C   0  0  0  0  0  0  0  0  0  0  0  0
    5.2271   -1.7030   -0.6833 C   0  0  0  0  0  0  0  0  0  0  0  0
    3.7796   -4.3287    1.5767 C   0  0  0  0  0  0  0  0  0  0  0  0
    4.6968   -5.5121    1.3378 C   0  0  0  0  0  0  0  0  0  0  0  0
    5.8896   -5.3221    1.0999 O   0  0  0  0  0  0  0  0  0  0  0  0
   -1.3921    2.2396    4.4524 H   0  0  0  0  0  0  0  0  0  0  0  0
    5.9908   -7.7680    0.9883 H   0  0  0  0  0  0  0  0  0  0  0  0
    4.5855   -8.4584    0.2104 H   0  0  0  0  0  0  0  0  0  0  0  0
    4.8432   -8.6588    1.9497 H   0  0  0  0  0  0  0  0  0  0  0  0
    2.1374   -6.3340    0.8754 H   0  0  0  0  0  0  0  0  0  0  0  0
    2.4324   -7.9654    1.3657 H   0  0  0  0  0  0  0  0  0  0  0  0
    0.2856   -7.4923    2.8799 H   0  0  0  0  0  0  0  0  0  0  0  0
    0.3552   -5.7680    2.5147 H   0  0  0  0  0  0  0  0  0  0  0  0
    0.4429   -6.3185    4.1832 H   0  0  0  0  0  0  0  0  0  0  0  0
    2.4669   -8.6874    3.7781 H   0  0  0  0  0  0  0  0  0  0  0  0
    2.4913   -7.4843    5.0520 H   0  0  0  0  0  0  0  0  0  0  0  0
    3.9068   -7.7141    4.0470 H   0  0  0  0  0  0  0  0  0  0  0  0
    0.4615   -1.8227    4.3931 H   0  0  0  0  0  0  0  0  0  0  0  0
   -0.7012    3.1058    3.0801 H   0  0  0  0  0  0  0  0  0  0  0  0
    2.1053    0.3786    1.0249 H   0  0  0  0  0  0  0  0  0  0  0  0
    5.6793   -4.3630   -1.4618 H   0  0  0  0  0  0  0  0  0  0  0  0
    4.0139   -4.8264   -1.1181 H   0  0  0  0  0  0  0  0  0  0  0  0
    4.3747   -4.1883   -3.5250 H   0  0  0  0  0  0  0  0  0  0  0  0
    3.1553   -3.1938   -2.7488 H   0  0  0  0  0  0  0  0  0  0  0  0
    5.3963   -0.3705   -2.3751 H   0  0  0  0  0  0  0  0  0  0  0  0
    3.7550   -0.9299   -2.0921 H   0  0  0  0  0  0  0  0  0  0  0  0
    5.0363   -0.9189    0.0518 H   0  0  0  0  0  0  0  0  0  0  0  0
    6.3006   -1.8965   -0.6596 H   0  0  0  0  0  0  0  0  0  0  0  0
  1  2  1  0
  1 30  1  0
  1 31  1  0
  1 32  1  0
  2 27  1  0
  2  3  1  0
  3  4  1  0
  3 33  1  0
  3 34  1  0
  4  5  1  0
  4  6  1  0
  4  7  1  0
  5 35  1  0
  5 36  1  0
  5 37  1  0
  6 38  1  0
  6 39  1  0
  6 40  1  0
  7  8  1  0
  8 26  2  0
  8  9  1  0
  9 10  2  0
 10 18  1  0
 10 11  1  0
 11 12  2  0
 11 17  1  0
 12 13  1  0
 12 41  1  0
 13 14  2  0
 14 15  1  0
 14 16  1  0
 15 42  1  0
 15 29  1  0
 16 17  2  0
 17 43  1  0
 18 19  2  0
 19 20  1  0
 19 26  1  0
 20 25  1  0
 20 21  1  0
 21 22  1  0
 21 44  1  0
 21 45  1  0
 22 23  1  0
 22 46  1  0
 22 47  1  0
 23 24  1  0
 24 25  1  0
 24 48  1  0
 24 49  1  0
 25 50  1  0
 25 51  1  0
 26 27  1  0
 27 28  2  0
M  END
>  <i_m_ct_stereo_status>  (269) 
1

>  <s_m_source_file>  (269) 
/var/tmp/pbs.5076255.sched01/tmpc36l9o9d/84wsylf1cs.sdf

>  <i_m_source_file_index>  (269) 
35

>  <i_lp_mmshare_version>  (269) 
48012

>  <i_f3d_flags>  (269) 
0

>  <s_epik_input>  (269) 
W0NIM11DKE8xKShbQ0gzXSlbQ0gyXU4oW0NIM10pQyg9TyljKGMxMiljKE4zW0NIMl1bQ0gyXU9bQ0gyXVtDSDJdMyluYyhuMiktYzRbY0hdbmMoPVtOSF0pW25IXVtjSF00

>  <s_epik_cmdline>  (269) 
J2VwaWtfcHl0aG9uJywgJy1waHQnLCAnMi4wJywgJy1waCcsICc3LjAnLCAnLXRuJywgJzgnLCAnLW1hJywgJzIwMCcsICctaW1hZScsICc8aW5maWxlLm1hZT4nLCAnLW9tYWUnLCAnPG91dGZpbGUubWFlPic=

>  <r_lp_tautomer_probability>  (269) 
1

>  <r_epik_Ionization_Penalty>  (269) 
3.12169e-05

>  <r_epik_Ionization_Penalty_Charging>  (269) 
0

>  <r_epik_Ionization_Penalty_Neutral>  (269) 
3.12169e-05

>  <r_epik_State_Penalty>  (269) 
-0

>  <r_epik_Charging_Adjusted_Penalty>  (269) 
0

>  <i_epik_Tot_Q>  (269) 
0

>  <i_epik_Tot_abs_Q>  (269) 
0

>  <s_lp_Force_Field>  (269) 
OPLS3e

>  <r_lp_Energy>  (269) 
53.1409

>  <b_lp_Chiralities_Consistent>  (269) 
1

>  <s_lp_Variant>  (269) 
87:0-1

>  <s_i_glide_gridfile>  (269) 
pfpi4k_grid

>  <i_i_glide_lignum>  (269) 
35

>  <i_i_glide_rotatable_bonds>  (269) 
2

>  <r_i_docking_score>  (269) 
-2.57534

>  <r_i_glide_ligand_efficiency>  (269) 
-0.0919766

>  <r_i_glide_ligand_efficiency_sa>  (269) 
-0.279295

>  <r_i_glide_ligand_efficiency_ln>  (269) 
-0.594465

>  <r_i_glide_gscore>  (269) 
-2.57534

>  <r_i_glide_lipo>  (269) 
-0.0569308

>  <r_i_glide_hbond>  (269) 
0

>  <r_i_glide_metal>  (269) 
-0

>  <r_i_glide_rewards>  (269) 
-0.958988

>  <r_i_glide_evdw>  (269) 
-29.207

>  <r_i_glide_ecoul>  (269) 
-1.81094

>  <r_i_glide_erotb>  (269) 
0.261905

>  <r_i_glide_esite>  (269) 
-0.0893401

>  <r_i_glide_emodel>  (269) 
-36.157

>  <r_i_glide_energy>  (269) 
-31.0179

>  <r_i_glide_einternal>  (269) 
0.236304

>  <r_i_glide_intrahb_reward>  (269) 
-0

>  <i_i_glide_confnum>  (269) 
4

>  <i_i_glide_posenum>  (269) 
2

>  <r_i_glide_eff_state_penalty>  (269) 
0

>  <ligand_id>  (269) 
87

>  <original_smiles>  (269) 
CN1CC(C)(C)Oc2nc(-c3cnc(=N)[nH]c3)nc(N3CCOCC3)c2C1=O

>  <smiles>  (269) 
[H]c1nc(N([H])[H])nc([H])c1-c1nc2c(c(N3C([H])([H])C([H])([H])OC([H])([H])C3([H])[H])n1)C(=O)N(C([H])([H])[H])C([H])([H])C(C([H])([H])[H])(C([H])([H])[H])O2

$$$$
88:0:0
     RDKit          3D

 20 22  0  0  1  0  0  0  0  0999 V2000
    3.0955   -4.6281    0.6872 C   0  0  0  0  0  0  0  0  0  0  0  0
    2.8957   -5.1805    1.8806 N   0  0  0  0  0  0  0  0  0  0  0  0
    1.8124   -5.9556    1.5852 C   0  0  0  0  0  0  0  0  0  0  0  0
    1.1472   -6.7930    2.6112 C   0  0  0  0  0  0  0  0  0  0  0  0
   -0.0583   -7.4930    2.3368 C   0  0  0  0  0  0  0  0  0  0  0  0
   -0.7419   -8.2424    3.2313 N   0  0  0  0  0  0  0  0  0  0  0  0
   -0.1545   -8.3369    4.4565 C   0  0  0  0  0  0  0  0  0  0  0  0
   -0.5664   -9.0547    5.5620 N   0  0  0  0  0  0  0  0  0  0  0  0
    0.2385   -8.8954    6.6507 N   0  0  0  0  0  0  0  0  0  0  0  0
    1.2157   -8.1120    6.2511 C   0  0  0  0  0  0  0  0  0  0  0  0
    1.0391   -7.7126    4.8879 C   0  0  0  0  0  0  0  0  0  0  0  0
    1.6874   -6.9231    3.9161 C   0  0  0  0  0  0  0  0  0  0  0  0
    1.3399   -5.8817    0.3383 N   0  0  0  0  0  0  0  0  0  0  0  0
    2.2124   -5.0241   -0.2318 N   0  0  0  0  0  0  0  0  0  0  0  0
   -1.3481   -9.7278    5.5754 H   0  0  0  0  0  0  0  0  0  0  0  0
    2.2147   -4.8128   -1.2272 H   0  0  0  0  0  0  0  0  0  0  0  0
    3.8992   -3.9442    0.4657 H   0  0  0  0  0  0  0  0  0  0  0  0
   -0.5140   -7.4304    1.3576 H   0  0  0  0  0  0  0  0  0  0  0  0
    2.0141   -7.8533    6.9361 H   0  0  0  0  0  0  0  0  0  0  0  0
    2.6029   -6.4154    4.1774 H   0  0  0  0  0  0  0  0  0  0  0  0
  1 14  1  0
  1  2  2  0
  1 17  1  0
  2  3  1  0
  3  4  1  0
  3 13  2  0
  4 12  1  0
  4  5  2  0
  5  6  1  0
  5 18  1  0
  6  7  2  0
  7 11  1  0
  7  8  1  0
  8 15  1  0
  8  9  1  0
  9 10  2  0
 10 11  1  0
 10 19  1  0
 11 12  2  0
 12 20  1  0
 13 14  1  0
 14 16  1  0
M  END
>  <i_m_ct_stereo_status>  (270) 
1

>  <s_m_source_file>  (270) 
/var/tmp/pbs.5076255.sched01/tmpc36l9o9d/84wsylf1cs.sdf

>  <i_m_source_file_index>  (270) 
36

>  <i_lp_mmshare_version>  (270) 
48012

>  <i_f3d_flags>  (270) 
0

>  <s_epik_input>  (270) 
bjFbbkhdW2NIXW5jMS1jKFtjSF1uMilbY0hdYyhjMjMpW2NIXW5bbkhdMw==

>  <s_epik_cmdline>  (270) 
J2VwaWtfcHl0aG9uJywgJy1waHQnLCAnMi4wJywgJy1waCcsICc3LjAnLCAnLXRuJywgJzgnLCAnLW1hJywgJzIwMCcsICctaW1hZScsICc8aW5maWxlLm1hZT4nLCAnLW9tYWUnLCAnPG91dGZpbGUubWFlPic=

>  <r_lp_tautomer_probability>  (270) 
0.913125

>  <r_epik_Ionization_Penalty>  (270) 
0.0023657

>  <r_epik_Ionization_Penalty_Charging>  (270) 
0

>  <r_epik_Ionization_Penalty_Neutral>  (270) 
0.0023657

>  <r_epik_State_Penalty>  (270) 
0.247506

>  <r_epik_Charging_Adjusted_Penalty>  (270) 
0.247506

>  <i_epik_Tot_Q>  (270) 
0

>  <i_epik_Tot_abs_Q>  (270) 
0

>  <s_lp_Force_Field>  (270) 
OPLS3e

>  <r_lp_Energy>  (270) 
17.241

>  <b_lp_Chiralities_Consistent>  (270) 
1

>  <s_lp_Variant>  (270) 
88:0-1

>  <s_i_glide_gridfile>  (270) 
pfpi4k_grid

>  <i_i_glide_lignum>  (270) 
36

>  <i_i_glide_rotatable_bonds>  (270) 
1

>  <r_i_docking_score>  (270) 
-4.53574

>  <r_i_glide_ligand_efficiency>  (270) 
-0.323982

>  <r_i_glide_ligand_efficiency_sa>  (270) 
-0.780842

>  <r_i_glide_ligand_efficiency_ln>  (270) 
-1.24641

>  <r_i_glide_gscore>  (270) 
-4.53574

>  <r_i_glide_lipo>  (270) 
0

>  <r_i_glide_hbond>  (270) 
-0.460016

>  <r_i_glide_metal>  (270) 
-0

>  <r_i_glide_rewards>  (270) 
-2.13973

>  <r_i_glide_evdw>  (270) 
-11.7225

>  <r_i_glide_ecoul>  (270) 
-10.1474

>  <r_i_glide_erotb>  (270) 
0.459853

>  <r_i_glide_esite>  (270) 
-0.287616

>  <r_i_glide_emodel>  (270) 
-29.7466

>  <r_i_glide_energy>  (270) 
-21.8699

>  <r_i_glide_einternal>  (270) 
0.023032

>  <r_i_glide_intrahb_reward>  (270) 
-0

>  <i_i_glide_confnum>  (270) 
3

>  <i_i_glide_posenum>  (270) 
11

>  <r_i_glide_eff_state_penalty>  (270) 
0

>  <ligand_id>  (270) 
88

>  <original_smiles>  (270) 
c1nc(-c2cnc3[nH]ncc3c2)n[nH]1

>  <smiles>  (270) 
[H]c1nc2c(c([H])nn2[H])c([H])c1-c1nc([H])n([H])n1

$$$$
88:0:1
     RDKit          3D

 20 22  0  0  1  0  0  0  0  0999 V2000
   -0.4437    1.5823    2.9606 C   0  0  0  0  0  0  0  0  0  0  0  0
   -0.7015    1.1054    4.1709 N   0  0  0  0  0  0  0  0  0  0  0  0
   -0.9010    2.2886    4.8199 C   0  0  0  0  0  0  0  0  0  0  0  0
   -1.2272    2.3235    6.2585 C   0  0  0  0  0  0  0  0  0  0  0  0
   -0.7283    1.3403    7.1453 C   0  0  0  0  0  0  0  0  0  0  0  0
   -0.9871    1.2878    8.4764 N   0  0  0  0  0  0  0  0  0  0  0  0
   -1.7673    2.3099    8.9384 C   0  0  0  0  0  0  0  0  0  0  0  0
   -2.2113    2.5595   10.2285 N   0  0  0  0  0  0  0  0  0  0  0  0
   -2.9845    3.6711   10.3247 N   0  0  0  0  0  0  0  0  0  0  0  0
   -3.0744    4.1542    9.1109 C   0  0  0  0  0  0  0  0  0  0  0  0
   -2.3333    3.3613    8.1756 C   0  0  0  0  0  0  0  0  0  0  0  0
   -2.0405    3.3448    6.7979 C   0  0  0  0  0  0  0  0  0  0  0  0
   -0.7943    3.4104    4.1020 N   0  0  0  0  0  0  0  0  0  0  0  0
   -0.4695    2.9178    2.8804 N   0  0  0  0  0  0  0  0  0  0  0  0
   -2.0287    2.0071   11.0613 H   0  0  0  0  0  0  0  0  0  0  0  0
   -0.2768    3.4906    2.0482 H   0  0  0  0  0  0  0  0  0  0  0  0
   -0.2294    0.9518    2.1138 H   0  0  0  0  0  0  0  0  0  0  0  0
   -0.0952    0.5481    6.7679 H   0  0  0  0  0  0  0  0  0  0  0  0
   -3.6656    5.0401    8.9401 H   0  0  0  0  0  0  0  0  0  0  0  0
   -2.4376    4.1207    6.1607 H   0  0  0  0  0  0  0  0  0  0  0  0
  1 14  1  0
  1  2  2  0
  1 17  1  0
  2  3  1  0
  3  4  1  0
  3 13  2  0
  4 12  1  0
  4  5  2  0
  5  6  1  0
  5 18  1  0
  6  7  2  0
  7 11  1  0
  7  8  1  0
  8 15  1  0
  8  9  1  0
  9 10  2  0
 10 11  1  0
 10 19  1  0
 11 12  2  0
 12 20  1  0
 13 14  1  0
 14 16  1  0
M  END
>  <i_m_ct_stereo_status>  (271) 
1

>  <s_m_source_file>  (271) 
/var/tmp/pbs.5076255.sched01/tmpc36l9o9d/84wsylf1cs.sdf

>  <i_m_source_file_index>  (271) 
36

>  <i_lp_mmshare_version>  (271) 
48012

>  <i_f3d_flags>  (271) 
0

>  <s_epik_input>  (271) 
bjFbbkhdW2NIXW5jMS1jKFtjSF1uMilbY0hdYyhjMjMpW2NIXW5bbkhdMw==

>  <s_epik_cmdline>  (271) 
J2VwaWtfcHl0aG9uJywgJy1waHQnLCAnMi4wJywgJy1waCcsICc3LjAnLCAnLXRuJywgJzgnLCAnLW1hJywgJzIwMCcsICctaW1hZScsICc8aW5maWxlLm1hZT4nLCAnLW9tYWUnLCAnPG91dGZpbGUubWFlPic=

>  <r_lp_tautomer_probability>  (271) 
0.913125

>  <r_epik_Ionization_Penalty>  (271) 
0.0023657

>  <r_epik_Ionization_Penalty_Charging>  (271) 
0

>  <r_epik_Ionization_Penalty_Neutral>  (271) 
0.0023657

>  <r_epik_State_Penalty>  (271) 
0.247506

>  <r_epik_Charging_Adjusted_Penalty>  (271) 
0.247506

>  <i_epik_Tot_Q>  (271) 
0

>  <i_epik_Tot_abs_Q>  (271) 
0

>  <s_lp_Force_Field>  (271) 
OPLS3e

>  <r_lp_Energy>  (271) 
17.241

>  <b_lp_Chiralities_Consistent>  (271) 
1

>  <s_lp_Variant>  (271) 
88:0-1

>  <s_i_glide_gridfile>  (271) 
pfpi4k_grid

>  <i_i_glide_lignum>  (271) 
36

>  <i_i_glide_rotatable_bonds>  (271) 
1

>  <r_i_docking_score>  (271) 
-4.03399

>  <r_i_glide_ligand_efficiency>  (271) 
-0.288142

>  <r_i_glide_ligand_efficiency_sa>  (271) 
-0.694463

>  <r_i_glide_ligand_efficiency_ln>  (271) 
-1.10853

>  <r_i_glide_gscore>  (271) 
-4.03399

>  <r_i_glide_lipo>  (271) 
-0.175295

>  <r_i_glide_hbond>  (271) 
-0.194354

>  <r_i_glide_metal>  (271) 
-0

>  <r_i_glide_rewards>  (271) 
-2.13973

>  <r_i_glide_evdw>  (271) 
-14.9898

>  <r_i_glide_ecoul>  (271) 
-6.36099

>  <r_i_glide_erotb>  (271) 
0.459853

>  <r_i_glide_esite>  (271) 
-0.280829

>  <r_i_glide_emodel>  (271) 
-28.029

>  <r_i_glide_energy>  (271) 
-21.3507

>  <r_i_glide_einternal>  (271) 
0.651862

>  <r_i_glide_intrahb_reward>  (271) 
-0

>  <i_i_glide_confnum>  (271) 
1

>  <i_i_glide_posenum>  (271) 
26

>  <r_i_glide_eff_state_penalty>  (271) 
0

>  <ligand_id>  (271) 
88

>  <original_smiles>  (271) 
c1nc(-c2cnc3[nH]ncc3c2)n[nH]1

>  <smiles>  (271) 
[H]c1nc2c(c([H])nn2[H])c([H])c1-c1nc([H])n([H])n1

$$$$
88:0:2
     RDKit          3D

 20 22  0  0  1  0  0  0  0  0999 V2000
    1.3196   -7.3403    1.6758 C   0  0  0  0  0  0  0  0  0  0  0  0
    1.3463   -6.0569    1.3297 N   0  0  0  0  0  0  0  0  0  0  0  0
    2.6911   -5.9227    1.1222 C   0  0  0  0  0  0  0  0  0  0  0  0
    3.2804   -4.6349    0.7180 C   0  0  0  0  0  0  0  0  0  0  0  0
    2.8907   -3.4226    1.3391 C   0  0  0  0  0  0  0  0  0  0  0  0
    3.3775   -2.1964    1.0356 N   0  0  0  0  0  0  0  0  0  0  0  0
    4.2910   -2.1913    0.0265 C   0  0  0  0  0  0  0  0  0  0  0  0
    4.9545   -1.1172   -0.5346 N   0  0  0  0  0  0  0  0  0  0  0  0
    5.8127   -1.4687   -1.5256 N   0  0  0  0  0  0  0  0  0  0  0  0
    5.7246   -2.7743   -1.6281 C   0  0  0  0  0  0  0  0  0  0  0  0
    4.7871   -3.3102   -0.6838 C   0  0  0  0  0  0  0  0  0  0  0  0
    4.2601   -4.5619   -0.3018 C   0  0  0  0  0  0  0  0  0  0  0  0
    3.4469   -7.0053    1.3013 N   0  0  0  0  0  0  0  0  0  0  0  0
    2.5209   -7.9212    1.6786 N   0  0  0  0  0  0  0  0  0  0  0  0
    4.8425   -0.1475   -0.2681 H   0  0  0  0  0  0  0  0  0  0  0  0
    2.7409   -8.8835    1.8998 H   0  0  0  0  0  0  0  0  0  0  0  0
    0.4126   -7.8698    1.9198 H   0  0  0  0  0  0  0  0  0  0  0  0
    2.1497   -3.4402    2.1271 H   0  0  0  0  0  0  0  0  0  0  0  0
    6.3289   -3.2960   -2.3588 H   0  0  0  0  0  0  0  0  0  0  0  0
    4.5899   -5.4566   -0.8103 H   0  0  0  0  0  0  0  0  0  0  0  0
  1 14  1  0
  1  2  2  0
  1 17  1  0
  2  3  1  0
  3  4  1  0
  3 13  2  0
  4 12  1  0
  4  5  2  0
  5  6  1  0
  5 18  1  0
  6  7  2  0
  7 11  1  0
  7  8  1  0
  8 15  1  0
  8  9  1  0
  9 10  2  0
 10 11  1  0
 10 19  1  0
 11 12  2  0
 12 20  1  0
 13 14  1  0
 14 16  1  0
M  END
>  <i_m_ct_stereo_status>  (272) 
1

>  <s_m_source_file>  (272) 
/var/tmp/pbs.5076255.sched01/tmpc36l9o9d/84wsylf1cs.sdf

>  <i_m_source_file_index>  (272) 
36

>  <i_lp_mmshare_version>  (272) 
48012

>  <i_f3d_flags>  (272) 
0

>  <s_epik_input>  (272) 
bjFbbkhdW2NIXW5jMS1jKFtjSF1uMilbY0hdYyhjMjMpW2NIXW5bbkhdMw==

>  <s_epik_cmdline>  (272) 
J2VwaWtfcHl0aG9uJywgJy1waHQnLCAnMi4wJywgJy1waCcsICc3LjAnLCAnLXRuJywgJzgnLCAnLW1hJywgJzIwMCcsICctaW1hZScsICc8aW5maWxlLm1hZT4nLCAnLW9tYWUnLCAnPG91dGZpbGUubWFlPic=

>  <r_lp_tautomer_probability>  (272) 
0.913125

>  <r_epik_Ionization_Penalty>  (272) 
0.0023657

>  <r_epik_Ionization_Penalty_Charging>  (272) 
0

>  <r_epik_Ionization_Penalty_Neutral>  (272) 
0.0023657

>  <r_epik_State_Penalty>  (272) 
0.247506

>  <r_epik_Charging_Adjusted_Penalty>  (272) 
0.247506

>  <i_epik_Tot_Q>  (272) 
0

>  <i_epik_Tot_abs_Q>  (272) 
0

>  <s_lp_Force_Field>  (272) 
OPLS3e

>  <r_lp_Energy>  (272) 
17.241

>  <b_lp_Chiralities_Consistent>  (272) 
1

>  <s_lp_Variant>  (272) 
88:0-1

>  <s_i_glide_gridfile>  (272) 
pfpi4k_grid

>  <i_i_glide_lignum>  (272) 
36

>  <i_i_glide_rotatable_bonds>  (272) 
1

>  <r_i_docking_score>  (272) 
-3.85345

>  <r_i_glide_ligand_efficiency>  (272) 
-0.275246

>  <r_i_glide_ligand_efficiency_sa>  (272) 
-0.663382

>  <r_i_glide_ligand_efficiency_ln>  (272) 
-1.05891

>  <r_i_glide_gscore>  (272) 
-3.85345

>  <r_i_glide_lipo>  (272) 
-0.0451379

>  <r_i_glide_hbond>  (272) 
-0.231855

>  <r_i_glide_metal>  (272) 
-0

>  <r_i_glide_rewards>  (272) 
-2.13973

>  <r_i_glide_evdw>  (272) 
-17.1095

>  <r_i_glide_ecoul>  (272) 
-6.19218

>  <r_i_glide_erotb>  (272) 
0.459853

>  <r_i_glide_esite>  (272) 
-0.112278

>  <r_i_glide_emodel>  (272) 
-29.2892

>  <r_i_glide_energy>  (272) 
-23.3017

>  <r_i_glide_einternal>  (272) 
1.30824

>  <r_i_glide_intrahb_reward>  (272) 
-0

>  <i_i_glide_confnum>  (272) 
4

>  <i_i_glide_posenum>  (272) 
8

>  <r_i_glide_eff_state_penalty>  (272) 
0

>  <ligand_id>  (272) 
88

>  <original_smiles>  (272) 
c1nc(-c2cnc3[nH]ncc3c2)n[nH]1

>  <smiles>  (272) 
[H]c1nc2c(c([H])nn2[H])c([H])c1-c1nc([H])n([H])n1

$$$$
88:1:0
     RDKit          3D

 20 22  0  0  1  0  0  0  0  0999 V2000
    3.5486    0.3287    3.0020 C   0  0  0  0  0  0  0  0  0  0  0  0
    4.5418   -0.2699    2.2768 N   0  0  0  0  0  0  0  0  0  0  0  0
    3.8737   -0.6574    1.1898 C   0  0  0  0  0  0  0  0  0  0  0  0
    4.4902   -1.3704    0.0700 C   0  0  0  0  0  0  0  0  0  0  0  0
    5.9008   -1.4620   -0.0433 C   0  0  0  0  0  0  0  0  0  0  0  0
    6.5542   -2.0822   -1.0550 N   0  0  0  0  0  0  0  0  0  0  0  0
    5.7303   -2.6700   -1.9741 C   0  0  0  0  0  0  0  0  0  0  0  0
    6.0665   -3.3893   -3.1032 N   0  0  0  0  0  0  0  0  0  0  0  0
    4.9959   -3.8239   -3.8258 N   0  0  0  0  0  0  0  0  0  0  0  0
    3.9423   -3.3917   -3.1719 C   0  0  0  0  0  0  0  0  0  0  0  0
    4.3161   -2.6586   -1.9961 C   0  0  0  0  0  0  0  0  0  0  0  0
    3.6961   -1.9796   -0.9289 C   0  0  0  0  0  0  0  0  0  0  0  0
    2.5815   -0.3084    1.2746 N   0  0  0  0  0  0  0  0  0  0  0  0
    2.3472    0.3348    2.4354 N   0  0  0  0  0  0  0  0  0  0  0  0
    7.0162   -3.5572   -3.4255 H   0  0  0  0  0  0  0  0  0  0  0  0
    3.7194    0.7763    3.9724 H   0  0  0  0  0  0  0  0  0  0  0  0
    6.5414   -1.0006    0.6989 H   0  0  0  0  0  0  0  0  0  0  0  0
    2.9505   -3.6222   -3.5411 H   0  0  0  0  0  0  0  0  0  0  0  0
    2.6222   -1.9445   -0.8924 H   0  0  0  0  0  0  0  0  0  0  0  0
    1.8568   -0.4643    0.5734 H   0  0  0  0  0  0  0  0  0  0  0  0
  1 14  2  0
  1  2  1  0
  1 16  1  0
  2  3  2  0
  3  4  1  0
  3 13  1  0
  4 12  1  0
  4  5  2  0
  5  6  1  0
  5 17  1  0
  6  7  2  0
  7 11  1  0
  7  8  1  0
  8 15  1  0
  8  9  1  0
  9 10  2  0
 10 11  1  0
 10 18  1  0
 11 12  2  0
 12 19  1  0
 13 14  1  0
 13 20  1  0
M  END
>  <i_m_ct_stereo_status>  (273) 
1

>  <s_m_source_file>  (273) 
/var/tmp/pbs.5076255.sched01/tmpc36l9o9d/84wsylf1cs.sdf

>  <i_m_source_file_index>  (273) 
37

>  <i_lp_mmshare_version>  (273) 
48012

>  <i_f3d_flags>  (273) 
0

>  <s_epik_input>  (273) 
bjFbbkhdW2NIXW5jMS1jKFtjSF1uMilbY0hdYyhjMjMpW2NIXW5bbkhdMw==

>  <s_epik_cmdline>  (273) 
J2VwaWtfcHl0aG9uJywgJy1waHQnLCAnMi4wJywgJy1waCcsICc3LjAnLCAnLXRuJywgJzgnLCAnLW1hJywgJzIwMCcsICctaW1hZScsICc8aW5maWxlLm1hZT4nLCAnLW9tYWUnLCAnPG91dGZpbGUubWFlPic=

>  <r_epik_Ionization_Penalty>  (273) 
0.00522488

>  <r_epik_Ionization_Penalty_Charging>  (273) 
0

>  <r_epik_Ionization_Penalty_Neutral>  (273) 
0.00522488

>  <r_epik_State_Penalty>  (273) 
0.751797

>  <r_epik_Charging_Adjusted_Penalty>  (273) 
0.751797

>  <i_epik_Tot_Q>  (273) 
0

>  <i_epik_Tot_abs_Q>  (273) 
0

>  <s_lp_Force_Field>  (273) 
OPLS3e

>  <r_lp_Energy>  (273) 
15.9794

>  <b_lp_Chiralities_Consistent>  (273) 
1

>  <s_lp_Variant>  (273) 
88:0-2

>  <s_i_glide_gridfile>  (273) 
pfpi4k_grid

>  <i_i_glide_lignum>  (273) 
37

>  <i_i_glide_rotatable_bonds>  (273) 
1

>  <r_i_docking_score>  (273) 
-4.87925

>  <r_i_glide_ligand_efficiency>  (273) 
-0.348518

>  <r_i_glide_ligand_efficiency_sa>  (273) 
-0.839978

>  <r_i_glide_ligand_efficiency_ln>  (273) 
-1.3408

>  <r_i_glide_gscore>  (273) 
-4.87925

>  <r_i_glide_lipo>  (273) 
-0.0515265

>  <r_i_glide_hbond>  (273) 
-0.608

>  <r_i_glide_metal>  (273) 
-0

>  <r_i_glide_rewards>  (273) 
-2.18397

>  <r_i_glide_evdw>  (273) 
-17.3939

>  <r_i_glide_ecoul>  (273) 
-10.3875

>  <r_i_glide_erotb>  (273) 
0.459853

>  <r_i_glide_esite>  (273) 
-0.0677921

>  <r_i_glide_emodel>  (273) 
-37.0954

>  <r_i_glide_energy>  (273) 
-27.7814

>  <r_i_glide_einternal>  (273) 
0.151676

>  <r_i_glide_intrahb_reward>  (273) 
-0

>  <i_i_glide_confnum>  (273) 
2

>  <i_i_glide_posenum>  (273) 
21

>  <r_i_glide_eff_state_penalty>  (273) 
0

>  <ligand_id>  (273) 
88

>  <original_smiles>  (273) 
c1nc(-c2cnc3[nH]ncc3c2)n[nH]1

>  <smiles>  (273) 
[H]c1nc(-c2c([H])nc3c(c([H])nn3[H])c2[H])n([H])n1

$$$$
88:1:1
     RDKit          3D

 20 22  0  0  1  0  0  0  0  0999 V2000
    3.8934   -0.4275   -3.4015 C   0  0  0  0  0  0  0  0  0  0  0  0
    4.3315   -1.0908   -2.2892 N   0  0  0  0  0  0  0  0  0  0  0  0
    3.5881   -2.1963   -2.3473 C   0  0  0  0  0  0  0  0  0  0  0  0
    3.6183   -3.2490   -1.3343 C   0  0  0  0  0  0  0  0  0  0  0  0
    2.4174   -3.8322   -0.8586 C   0  0  0  0  0  0  0  0  0  0  0  0
    2.3529   -4.8111    0.0783 N   0  0  0  0  0  0  0  0  0  0  0  0
    3.5714   -5.2279    0.5281 C   0  0  0  0  0  0  0  0  0  0  0  0
    3.8559   -6.2106    1.4568 N   0  0  0  0  0  0  0  0  0  0  0  0
    5.1856   -6.3740    1.6911 N   0  0  0  0  0  0  0  0  0  0  0  0
    5.7894   -5.5055    0.9137 C   0  0  0  0  0  0  0  0  0  0  0  0
    4.8462   -4.7443    0.1439 C   0  0  0  0  0  0  0  0  0  0  0  0
    4.8465   -3.7152   -0.8191 C   0  0  0  0  0  0  0  0  0  0  0  0
    2.8279   -2.2100   -3.4478 N   0  0  0  0  0  0  0  0  0  0  0  0
    3.0295   -1.0841   -4.1633 N   0  0  0  0  0  0  0  0  0  0  0  0
    3.1798   -6.7788    1.9484 H   0  0  0  0  0  0  0  0  0  0  0  0
    4.2520    0.5546   -3.6810 H   0  0  0  0  0  0  0  0  0  0  0  0
    1.4657   -3.4929   -1.2489 H   0  0  0  0  0  0  0  0  0  0  0  0
    6.8696   -5.4467    0.9310 H   0  0  0  0  0  0  0  0  0  0  0  0
    5.7794   -3.2963   -1.1582 H   0  0  0  0  0  0  0  0  0  0  0  0
    2.1814   -2.9293   -3.7396 H   0  0  0  0  0  0  0  0  0  0  0  0
  1 14  2  0
  1  2  1  0
  1 16  1  0
  2  3  2  0
  3  4  1  0
  3 13  1  0
  4 12  1  0
  4  5  2  0
  5  6  1  0
  5 17  1  0
  6  7  2  0
  7 11  1  0
  7  8  1  0
  8 15  1  0
  8  9  1  0
  9 10  2  0
 10 11  1  0
 10 18  1  0
 11 12  2  0
 12 19  1  0
 13 14  1  0
 13 20  1  0
M  END
>  <i_m_ct_stereo_status>  (274) 
1

>  <s_m_source_file>  (274) 
/var/tmp/pbs.5076255.sched01/tmpc36l9o9d/84wsylf1cs.sdf

>  <i_m_source_file_index>  (274) 
37

>  <i_lp_mmshare_version>  (274) 
48012

>  <i_f3d_flags>  (274) 
0

>  <s_epik_input>  (274) 
bjFbbkhdW2NIXW5jMS1jKFtjSF1uMilbY0hdYyhjMjMpW2NIXW5bbkhdMw==

>  <s_epik_cmdline>  (274) 
J2VwaWtfcHl0aG9uJywgJy1waHQnLCAnMi4wJywgJy1waCcsICc3LjAnLCAnLXRuJywgJzgnLCAnLW1hJywgJzIwMCcsICctaW1hZScsICc8aW5maWxlLm1hZT4nLCAnLW9tYWUnLCAnPG91dGZpbGUubWFlPic=

>  <r_epik_Ionization_Penalty>  (274) 
0.00522488

>  <r_epik_Ionization_Penalty_Charging>  (274) 
0

>  <r_epik_Ionization_Penalty_Neutral>  (274) 
0.00522488

>  <r_epik_State_Penalty>  (274) 
0.751797

>  <r_epik_Charging_Adjusted_Penalty>  (274) 
0.751797

>  <i_epik_Tot_Q>  (274) 
0

>  <i_epik_Tot_abs_Q>  (274) 
0

>  <s_lp_Force_Field>  (274) 
OPLS3e

>  <r_lp_Energy>  (274) 
15.9794

>  <b_lp_Chiralities_Consistent>  (274) 
1

>  <s_lp_Variant>  (274) 
88:0-2

>  <s_i_glide_gridfile>  (274) 
pfpi4k_grid

>  <i_i_glide_lignum>  (274) 
37

>  <i_i_glide_rotatable_bonds>  (274) 
1

>  <r_i_docking_score>  (274) 
-3.70329

>  <r_i_glide_ligand_efficiency>  (274) 
-0.264521

>  <r_i_glide_ligand_efficiency_sa>  (274) 
-0.637532

>  <r_i_glide_ligand_efficiency_ln>  (274) 
-1.01765

>  <r_i_glide_gscore>  (274) 
-3.70329

>  <r_i_glide_lipo>  (274) 
-0.179121

>  <r_i_glide_hbond>  (274) 
0

>  <r_i_glide_metal>  (274) 
-0

>  <r_i_glide_rewards>  (274) 
-2.45052

>  <r_i_glide_evdw>  (274) 
-21.128

>  <r_i_glide_ecoul>  (274) 
-2.97593

>  <r_i_glide_erotb>  (274) 
0.459853

>  <r_i_glide_esite>  (274) 
-0.0307088

>  <r_i_glide_emodel>  (274) 
-30.3282

>  <r_i_glide_energy>  (274) 
-24.104

>  <r_i_glide_einternal>  (274) 
1.67048

>  <r_i_glide_intrahb_reward>  (274) 
-0

>  <i_i_glide_confnum>  (274) 
3

>  <i_i_glide_posenum>  (274) 
12

>  <r_i_glide_eff_state_penalty>  (274) 
0

>  <ligand_id>  (274) 
88

>  <original_smiles>  (274) 
c1nc(-c2cnc3[nH]ncc3c2)n[nH]1

>  <smiles>  (274) 
[H]c1nc(-c2c([H])nc3c(c([H])nn3[H])c2[H])n([H])n1

$$$$
88:1:2
     RDKit          3D

 20 22  0  0  1  0  0  0  0  0999 V2000
    4.8655   -1.5206    3.9774 C   0  0  0  0  0  0  0  0  0  0  0  0
    4.5370   -2.3854    2.9732 N   0  0  0  0  0  0  0  0  0  0  0  0
    4.2597   -1.5376    1.9831 C   0  0  0  0  0  0  0  0  0  0  0  0
    3.8513   -1.9626    0.6488 C   0  0  0  0  0  0  0  0  0  0  0  0
    3.0692   -3.1311    0.4754 C   0  0  0  0  0  0  0  0  0  0  0  0
    2.6327   -3.5945   -0.7173 N   0  0  0  0  0  0  0  0  0  0  0  0
    3.0185   -2.8381   -1.7859 C   0  0  0  0  0  0  0  0  0  0  0  0
    2.7535   -3.0394   -3.1272 N   0  0  0  0  0  0  0  0  0  0  0  0
    3.3099   -2.0978   -3.9378 N   0  0  0  0  0  0  0  0  0  0  0  0
    3.9205   -1.2561   -3.1376 C   0  0  0  0  0  0  0  0  0  0  0  0
    3.8041   -1.6580   -1.7659 C   0  0  0  0  0  0  0  0  0  0  0  0
    4.2143   -1.2145   -0.4934 C   0  0  0  0  0  0  0  0  0  0  0  0
    4.4050   -0.2669    2.3808 N   0  0  0  0  0  0  0  0  0  0  0  0
    4.8045   -0.2302    3.6701 N   0  0  0  0  0  0  0  0  0  0  0  0
    2.1987   -3.7953   -3.5096 H   0  0  0  0  0  0  0  0  0  0  0  0
    5.1600   -1.8535    4.9633 H   0  0  0  0  0  0  0  0  0  0  0  0
    2.7735   -3.7206    1.3328 H   0  0  0  0  0  0  0  0  0  0  0  0
    4.4214   -0.3914   -3.5517 H   0  0  0  0  0  0  0  0  0  0  0  0
    4.8051   -0.3163   -0.4094 H   0  0  0  0  0  0  0  0  0  0  0  0
    4.2170    0.5699    1.8466 H   0  0  0  0  0  0  0  0  0  0  0  0
  1 14  2  0
  1  2  1  0
  1 16  1  0
  2  3  2  0
  3  4  1  0
  3 13  1  0
  4 12  1  0
  4  5  2  0
  5  6  1  0
  5 17  1  0
  6  7  2  0
  7 11  1  0
  7  8  1  0
  8 15  1  0
  8  9  1  0
  9 10  2  0
 10 11  1  0
 10 18  1  0
 11 12  2  0
 12 19  1  0
 13 14  1  0
 13 20  1  0
M  END
>  <i_m_ct_stereo_status>  (275) 
1

>  <s_m_source_file>  (275) 
/var/tmp/pbs.5076255.sched01/tmpc36l9o9d/84wsylf1cs.sdf

>  <i_m_source_file_index>  (275) 
37

>  <i_lp_mmshare_version>  (275) 
48012

>  <i_f3d_flags>  (275) 
0

>  <s_epik_input>  (275) 
bjFbbkhdW2NIXW5jMS1jKFtjSF1uMilbY0hdYyhjMjMpW2NIXW5bbkhdMw==

>  <s_epik_cmdline>  (275) 
J2VwaWtfcHl0aG9uJywgJy1waHQnLCAnMi4wJywgJy1waCcsICc3LjAnLCAnLXRuJywgJzgnLCAnLW1hJywgJzIwMCcsICctaW1hZScsICc8aW5maWxlLm1hZT4nLCAnLW9tYWUnLCAnPG91dGZpbGUubWFlPic=

>  <r_epik_Ionization_Penalty>  (275) 
0.00522488

>  <r_epik_Ionization_Penalty_Charging>  (275) 
0

>  <r_epik_Ionization_Penalty_Neutral>  (275) 
0.00522488

>  <r_epik_State_Penalty>  (275) 
0.751797

>  <r_epik_Charging_Adjusted_Penalty>  (275) 
0.751797

>  <i_epik_Tot_Q>  (275) 
0

>  <i_epik_Tot_abs_Q>  (275) 
0

>  <s_lp_Force_Field>  (275) 
OPLS3e

>  <r_lp_Energy>  (275) 
15.9794

>  <b_lp_Chiralities_Consistent>  (275) 
1

>  <s_lp_Variant>  (275) 
88:0-2

>  <s_i_glide_gridfile>  (275) 
pfpi4k_grid

>  <i_i_glide_lignum>  (275) 
37

>  <i_i_glide_rotatable_bonds>  (275) 
1

>  <r_i_docking_score>  (275) 
-3.43342

>  <r_i_glide_ligand_efficiency>  (275) 
-0.245244

>  <r_i_glide_ligand_efficiency_sa>  (275) 
-0.591073

>  <r_i_glide_ligand_efficiency_ln>  (275) 
-0.943491

>  <r_i_glide_gscore>  (275) 
-3.43342

>  <r_i_glide_lipo>  (275) 
-0.0620574

>  <r_i_glide_hbond>  (275) 
-0.0307743

>  <r_i_glide_metal>  (275) 
-0

>  <r_i_glide_rewards>  (275) 
-2.21881

>  <r_i_glide_evdw>  (275) 
-21.0534

>  <r_i_glide_ecoul>  (275) 
-3.38832

>  <r_i_glide_erotb>  (275) 
0.459853

>  <r_i_glide_esite>  (275) 
-0.0207098

>  <r_i_glide_emodel>  (275) 
-30.4942

>  <r_i_glide_energy>  (275) 
-24.4417

>  <r_i_glide_einternal>  (275) 
0.978546

>  <r_i_glide_intrahb_reward>  (275) 
-0

>  <i_i_glide_confnum>  (275) 
2

>  <i_i_glide_posenum>  (275) 
5

>  <r_i_glide_eff_state_penalty>  (275) 
0

>  <ligand_id>  (275) 
88

>  <original_smiles>  (275) 
c1nc(-c2cnc3[nH]ncc3c2)n[nH]1

>  <smiles>  (275) 
[H]c1nc(-c2c([H])nc3c(c([H])nn3[H])c2[H])n([H])n1

$$$$
88:2:0
     RDKit          3D

 20 22  0  0  1  0  0  0  0  0999 V2000
    3.3118   -0.7282   -3.5358 C   0  0  0  0  0  0  0  0  0  0  0  0
    3.0163   -1.3341   -2.3782 N   0  0  0  0  0  0  0  0  0  0  0  0
    3.8048   -2.4196   -2.3960 C   0  0  0  0  0  0  0  0  0  0  0  0
    3.8282   -3.4288   -1.3409 C   0  0  0  0  0  0  0  0  0  0  0  0
    2.6315   -3.8149   -0.6924 C   0  0  0  0  0  0  0  0  0  0  0  0
    2.5586   -4.7313    0.3033 N   0  0  0  0  0  0  0  0  0  0  0  0
    3.7599   -5.2829    0.6491 C   0  0  0  0  0  0  0  0  0  0  0  0
    4.0282   -6.2358    1.6148 N   0  0  0  0  0  0  0  0  0  0  0  0
    5.3442   -6.5577    1.7136 N   0  0  0  0  0  0  0  0  0  0  0  0
    5.9570   -5.8245    0.8147 C   0  0  0  0  0  0  0  0  0  0  0  0
    5.0321   -4.9940    0.0947 C   0  0  0  0  0  0  0  0  0  0  0  0
    5.0404   -4.0355   -0.9411 C   0  0  0  0  0  0  0  0  0  0  0  0
    4.5590   -2.4736   -3.5051 N   0  0  0  0  0  0  0  0  0  0  0  0
    4.2126   -1.3719   -4.2682 N   0  0  0  0  0  0  0  0  0  0  0  0
    3.3528   -6.6794    2.2214 H   0  0  0  0  0  0  0  0  0  0  0  0
    2.3092   -1.0647   -1.6920 H   0  0  0  0  0  0  0  0  0  0  0  0
    2.8443    0.1888   -3.8651 H   0  0  0  0  0  0  0  0  0  0  0  0
    1.6869   -3.3789   -0.9940 H   0  0  0  0  0  0  0  0  0  0  0  0
    7.0265   -5.9151    0.7039 H   0  0  0  0  0  0  0  0  0  0  0  0
    5.9725   -3.7695   -1.4132 H   0  0  0  0  0  0  0  0  0  0  0  0
  1  2  1  0
  1 17  1  0
  1 14  2  0
  2 16  1  0
  2  3  1  0
  3 13  2  0
  3  4  1  0
  4 12  1  0
  4  5  2  0
  5  6  1  0
  5 18  1  0
  6  7  2  0
  7 11  1  0
  7  8  1  0
  8 15  1  0
  8  9  1  0
  9 10  2  0
 10 11  1  0
 10 19  1  0
 11 12  2  0
 12 20  1  0
 13 14  1  0
M  END
>  <i_m_ct_stereo_status>  (276) 
1

>  <s_m_source_file>  (276) 
/var/tmp/pbs.5076255.sched01/tmpc36l9o9d/84wsylf1cs.sdf

>  <i_m_source_file_index>  (276) 
38

>  <i_lp_mmshare_version>  (276) 
48012

>  <i_f3d_flags>  (276) 
0

>  <s_epik_input>  (276) 
bjFbbkhdW2NIXW5jMS1jKFtjSF1uMilbY0hdYyhjMjMpW2NIXW5bbkhdMw==

>  <s_epik_cmdline>  (276) 
J2VwaWtfcHl0aG9uJywgJy1waHQnLCAnMi4wJywgJy1waCcsICc3LjAnLCAnLXRuJywgJzgnLCAnLW1hJywgJzIwMCcsICctaW1hZScsICc8aW5maWxlLm1hZT4nLCAnLW9tYWUnLCAnPG91dGZpbGUubWFlPic=

>  <r_lp_tautomer_probability>  (276) 
0.0497981

>  <r_epik_Ionization_Penalty>  (276) 
0.020511

>  <r_epik_Ionization_Penalty_Charging>  (276) 
0

>  <r_epik_Ionization_Penalty_Neutral>  (276) 
0.020511

>  <r_epik_State_Penalty>  (276) 
2.0866

>  <r_epik_Charging_Adjusted_Penalty>  (276) 
2.0866

>  <i_epik_Tot_Q>  (276) 
0

>  <i_epik_Tot_abs_Q>  (276) 
0

>  <s_lp_Force_Field>  (276) 
OPLS3e

>  <r_lp_Energy>  (276) 
16.1109

>  <b_lp_Chiralities_Consistent>  (276) 
1

>  <s_lp_Variant>  (276) 
88:0-3

>  <s_i_glide_gridfile>  (276) 
pfpi4k_grid

>  <i_i_glide_lignum>  (276) 
38

>  <i_i_glide_rotatable_bonds>  (276) 
1

>  <r_i_docking_score>  (276) 
-4.56328

>  <r_i_glide_ligand_efficiency>  (276) 
-0.325949

>  <r_i_glide_ligand_efficiency_sa>  (276) 
-0.785583

>  <r_i_glide_ligand_efficiency_ln>  (276) 
-1.25397

>  <r_i_glide_gscore>  (276) 
-4.56328

>  <r_i_glide_lipo>  (276) 
-0.145387

>  <r_i_glide_hbond>  (276) 
-0.16

>  <r_i_glide_metal>  (276) 
-0

>  <r_i_glide_rewards>  (276) 
-2.43516

>  <r_i_glide_evdw>  (276) 
-19.9694

>  <r_i_glide_ecoul>  (276) 
-7.8137

>  <r_i_glide_erotb>  (276) 
0.459853

>  <r_i_glide_esite>  (276) 
-0.112069

>  <r_i_glide_emodel>  (276) 
-36.0193

>  <r_i_glide_energy>  (276) 
-27.7831

>  <r_i_glide_einternal>  (276) 
1.21674

>  <r_i_glide_intrahb_reward>  (276) 
-0

>  <i_i_glide_confnum>  (276) 
1

>  <i_i_glide_posenum>  (276) 
15

>  <r_i_glide_eff_state_penalty>  (276) 
0

>  <ligand_id>  (276) 
88

>  <original_smiles>  (276) 
c1nc(-c2cnc3[nH]ncc3c2)n[nH]1

>  <smiles>  (276) 
[H]c1nc2c(c([H])nn2[H])c([H])c1-c1nnc([H])n1[H]

$$$$
88:2:1
     RDKit          3D

 20 22  0  0  1  0  0  0  0  0999 V2000
    4.2428   -1.0668   -1.8989 C   0  0  0  0  0  0  0  0  0  0  0  0
    3.4019   -1.9137   -1.3072 N   0  0  0  0  0  0  0  0  0  0  0  0
    4.1942   -2.9429   -0.9442 C   0  0  0  0  0  0  0  0  0  0  0  0
    3.7309   -4.1535   -0.2624 C   0  0  0  0  0  0  0  0  0  0  0  0
    2.3514   -4.4250   -0.1633 C   0  0  0  0  0  0  0  0  0  0  0  0
    1.8152   -5.4919    0.4733 N   0  0  0  0  0  0  0  0  0  0  0  0
    2.7330   -6.3472    1.0023 C   0  0  0  0  0  0  0  0  0  0  0  0
    2.5134   -7.5346    1.6810 N   0  0  0  0  0  0  0  0  0  0  0  0
    3.6577   -8.1546    2.0662 N   0  0  0  0  0  0  0  0  0  0  0  0
    4.6376   -7.3834    1.6532 C   0  0  0  0  0  0  0  0  0  0  0  0
    4.1430   -6.2243    0.9646 C   0  0  0  0  0  0  0  0  0  0  0  0
    4.6397   -5.0757    0.3090 C   0  0  0  0  0  0  0  0  0  0  0  0
    5.4728   -2.7189   -1.2780 N   0  0  0  0  0  0  0  0  0  0  0  0
    5.5026   -1.4868   -1.9067 N   0  0  0  0  0  0  0  0  0  0  0  0
    1.6176   -7.9645    1.8709 H   0  0  0  0  0  0  0  0  0  0  0  0
    2.4041   -1.7713   -1.1558 H   0  0  0  0  0  0  0  0  0  0  0  0
    3.9290   -0.1261   -2.3283 H   0  0  0  0  0  0  0  0  0  0  0  0
    1.6372   -3.7473   -0.6089 H   0  0  0  0  0  0  0  0  0  0  0  0
    5.6566   -7.6749    1.8566 H   0  0  0  0  0  0  0  0  0  0  0  0
    5.7037   -4.9174    0.2528 H   0  0  0  0  0  0  0  0  0  0  0  0
  1  2  1  0
  1 17  1  0
  1 14  2  0
  2 16  1  0
  2  3  1  0
  3 13  2  0
  3  4  1  0
  4 12  1  0
  4  5  2  0
  5  6  1  0
  5 18  1  0
  6  7  2  0
  7 11  1  0
  7  8  1  0
  8 15  1  0
  8  9  1  0
  9 10  2  0
 10 11  1  0
 10 19  1  0
 11 12  2  0
 12 20  1  0
 13 14  1  0
M  END
>  <i_m_ct_stereo_status>  (277) 
1

>  <s_m_source_file>  (277) 
/var/tmp/pbs.5076255.sched01/tmpc36l9o9d/84wsylf1cs.sdf

>  <i_m_source_file_index>  (277) 
38

>  <i_lp_mmshare_version>  (277) 
48012

>  <i_f3d_flags>  (277) 
0

>  <s_epik_input>  (277) 
bjFbbkhdW2NIXW5jMS1jKFtjSF1uMilbY0hdYyhjMjMpW2NIXW5bbkhdMw==

>  <s_epik_cmdline>  (277) 
J2VwaWtfcHl0aG9uJywgJy1waHQnLCAnMi4wJywgJy1waCcsICc3LjAnLCAnLXRuJywgJzgnLCAnLW1hJywgJzIwMCcsICctaW1hZScsICc8aW5maWxlLm1hZT4nLCAnLW9tYWUnLCAnPG91dGZpbGUubWFlPic=

>  <r_lp_tautomer_probability>  (277) 
0.0497981

>  <r_epik_Ionization_Penalty>  (277) 
0.020511

>  <r_epik_Ionization_Penalty_Charging>  (277) 
0

>  <r_epik_Ionization_Penalty_Neutral>  (277) 
0.020511

>  <r_epik_State_Penalty>  (277) 
2.0866

>  <r_epik_Charging_Adjusted_Penalty>  (277) 
2.0866

>  <i_epik_Tot_Q>  (277) 
0

>  <i_epik_Tot_abs_Q>  (277) 
0

>  <s_lp_Force_Field>  (277) 
OPLS3e

>  <r_lp_Energy>  (277) 
16.1109

>  <b_lp_Chiralities_Consistent>  (277) 
1

>  <s_lp_Variant>  (277) 
88:0-3

>  <s_i_glide_gridfile>  (277) 
pfpi4k_grid

>  <i_i_glide_lignum>  (277) 
38

>  <i_i_glide_rotatable_bonds>  (277) 
1

>  <r_i_docking_score>  (277) 
-4.25643

>  <r_i_glide_ligand_efficiency>  (277) 
-0.304031

>  <r_i_glide_ligand_efficiency_sa>  (277) 
-0.732757

>  <r_i_glide_ligand_efficiency_ln>  (277) 
-1.16965

>  <r_i_glide_gscore>  (277) 
-4.25643

>  <r_i_glide_lipo>  (277) 
-0.208024

>  <r_i_glide_hbond>  (277) 
-0.258473

>  <r_i_glide_metal>  (277) 
-0

>  <r_i_glide_rewards>  (277) 
-2.13973

>  <r_i_glide_evdw>  (277) 
-15.5409

>  <r_i_glide_ecoul>  (277) 
-7.56734

>  <r_i_glide_erotb>  (277) 
0.459853

>  <r_i_glide_esite>  (277) 
-0.197913

>  <r_i_glide_emodel>  (277) 
-31.3403

>  <r_i_glide_energy>  (277) 
-23.1083

>  <r_i_glide_einternal>  (277) 
0.116417

>  <r_i_glide_intrahb_reward>  (277) 
-0

>  <i_i_glide_confnum>  (277) 
1

>  <i_i_glide_posenum>  (277) 
25

>  <r_i_glide_eff_state_penalty>  (277) 
0

>  <ligand_id>  (277) 
88

>  <original_smiles>  (277) 
c1nc(-c2cnc3[nH]ncc3c2)n[nH]1

>  <smiles>  (277) 
[H]c1nc2c(c([H])nn2[H])c([H])c1-c1nnc([H])n1[H]

$$$$
88:2:2
     RDKit          3D

 20 22  0  0  1  0  0  0  0  0999 V2000
    0.2421   -3.5706    5.8245 C   0  0  0  0  0  0  0  0  0  0  0  0
    0.5518   -2.5289    5.0435 N   0  0  0  0  0  0  0  0  0  0  0  0
   -0.4810   -1.6855    5.2253 C   0  0  0  0  0  0  0  0  0  0  0  0
   -0.6089   -0.3730    4.5868 C   0  0  0  0  0  0  0  0  0  0  0  0
    0.2515   -0.0008    3.5274 C   0  0  0  0  0  0  0  0  0  0  0  0
    0.2109    1.1861    2.8826 N   0  0  0  0  0  0  0  0  0  0  0  0
   -0.7450    2.0461    3.3352 C   0  0  0  0  0  0  0  0  0  0  0  0
   -1.0422    3.3225    2.8946 N   0  0  0  0  0  0  0  0  0  0  0  0
   -2.0505    3.9207    3.5889 N   0  0  0  0  0  0  0  0  0  0  0  0
   -2.4400    3.0300    4.4745 C   0  0  0  0  0  0  0  0  0  0  0  0
   -1.6659    1.8245    4.3892 C   0  0  0  0  0  0  0  0  0  0  0  0
   -1.5782    0.5632    5.0189 C   0  0  0  0  0  0  0  0  0  0  0  0
   -1.3818   -2.1936    6.0762 N   0  0  0  0  0  0  0  0  0  0  0  0
   -0.9075   -3.4287    6.4788 N   0  0  0  0  0  0  0  0  0  0  0  0
   -0.5654    3.8075    2.1240 H   0  0  0  0  0  0  0  0  0  0  0  0
    1.3830   -2.4071    4.4793 H   0  0  0  0  0  0  0  0  0  0  0  0
    0.8688   -4.4446    5.9195 H   0  0  0  0  0  0  0  0  0  0  0  0
    1.0034   -0.6873    3.1645 H   0  0  0  0  0  0  0  0  0  0  0  0
   -3.2533    3.2691    5.1439 H   0  0  0  0  0  0  0  0  0  0  0  0
   -2.2596    0.3358    5.8216 H   0  0  0  0  0  0  0  0  0  0  0  0
  1  2  1  0
  1 17  1  0
  1 14  2  0
  2 16  1  0
  2  3  1  0
  3 13  2  0
  3  4  1  0
  4 12  1  0
  4  5  2  0
  5  6  1  0
  5 18  1  0
  6  7  2  0
  7 11  1  0
  7  8  1  0
  8 15  1  0
  8  9  1  0
  9 10  2  0
 10 11  1  0
 10 19  1  0
 11 12  2  0
 12 20  1  0
 13 14  1  0
M  END
>  <i_m_ct_stereo_status>  (278) 
1

>  <s_m_source_file>  (278) 
/var/tmp/pbs.5076255.sched01/tmpc36l9o9d/84wsylf1cs.sdf

>  <i_m_source_file_index>  (278) 
38

>  <i_lp_mmshare_version>  (278) 
48012

>  <i_f3d_flags>  (278) 
0

>  <s_epik_input>  (278) 
bjFbbkhdW2NIXW5jMS1jKFtjSF1uMilbY0hdYyhjMjMpW2NIXW5bbkhdMw==

>  <s_epik_cmdline>  (278) 
J2VwaWtfcHl0aG9uJywgJy1waHQnLCAnMi4wJywgJy1waCcsICc3LjAnLCAnLXRuJywgJzgnLCAnLW1hJywgJzIwMCcsICctaW1hZScsICc8aW5maWxlLm1hZT4nLCAnLW9tYWUnLCAnPG91dGZpbGUubWFlPic=

>  <r_lp_tautomer_probability>  (278) 
0.0497981

>  <r_epik_Ionization_Penalty>  (278) 
0.020511

>  <r_epik_Ionization_Penalty_Charging>  (278) 
0

>  <r_epik_Ionization_Penalty_Neutral>  (278) 
0.020511

>  <r_epik_State_Penalty>  (278) 
2.0866

>  <r_epik_Charging_Adjusted_Penalty>  (278) 
2.0866

>  <i_epik_Tot_Q>  (278) 
0

>  <i_epik_Tot_abs_Q>  (278) 
0

>  <s_lp_Force_Field>  (278) 
OPLS3e

>  <r_lp_Energy>  (278) 
16.1109

>  <b_lp_Chiralities_Consistent>  (278) 
1

>  <s_lp_Variant>  (278) 
88:0-3

>  <s_i_glide_gridfile>  (278) 
pfpi4k_grid

>  <i_i_glide_lignum>  (278) 
38

>  <i_i_glide_rotatable_bonds>  (278) 
1

>  <r_i_docking_score>  (278) 
-4.06775

>  <r_i_glide_ligand_efficiency>  (278) 
-0.290554

>  <r_i_glide_ligand_efficiency_sa>  (278) 
-0.700276

>  <r_i_glide_ligand_efficiency_ln>  (278) 
-1.1178

>  <r_i_glide_gscore>  (278) 
-4.06775

>  <r_i_glide_lipo>  (278) 
0

>  <r_i_glide_hbond>  (278) 
-0.16

>  <r_i_glide_metal>  (278) 
-0

>  <r_i_glide_rewards>  (278) 
-2.13973

>  <r_i_glide_evdw>  (278) 
-14.7302

>  <r_i_glide_ecoul>  (278) 
-8.17162

>  <r_i_glide_erotb>  (278) 
0.459853

>  <r_i_glide_esite>  (278) 
-0.265628

>  <r_i_glide_emodel>  (278) 
-30.7625

>  <r_i_glide_energy>  (278) 
-22.9018

>  <r_i_glide_einternal>  (278) 
0.130148

>  <r_i_glide_intrahb_reward>  (278) 
-0

>  <i_i_glide_confnum>  (278) 
4

>  <i_i_glide_posenum>  (278) 
3

>  <r_i_glide_eff_state_penalty>  (278) 
0

>  <ligand_id>  (278) 
88

>  <original_smiles>  (278) 
c1nc(-c2cnc3[nH]ncc3c2)n[nH]1

>  <smiles>  (278) 
[H]c1nc2c(c([H])nn2[H])c([H])c1-c1nnc([H])n1[H]

$$$$
88:3:0
     RDKit          3D

 20 22  0  0  1  0  0  0  0  0999 V2000
   -1.3053    2.3860    2.9208 C   0  0  0  0  0  0  0  0  0  0  0  0
   -0.7839    1.9567    4.0601 N   0  0  0  0  0  0  0  0  0  0  0  0
   -1.6248    2.5909    4.9296 C   0  0  0  0  0  0  0  0  0  0  0  0
   -1.4504    2.4579    6.3877 C   0  0  0  0  0  0  0  0  0  0  0  0
   -0.2495    1.9303    6.9159 C   0  0  0  0  0  0  0  0  0  0  0  0
   -0.0112    1.7593    8.2319 N   0  0  0  0  0  0  0  0  0  0  0  0
   -0.9520    2.1449    9.1126 C   0  0  0  0  0  0  0  0  0  0  0  0
   -0.9189    2.0766   10.4595 N   0  0  0  0  0  0  0  0  0  0  0  0
   -2.1199    2.5921   10.8776 N   0  0  0  0  0  0  0  0  0  0  0  0
   -2.9268    2.9549    9.8255 C   0  0  0  0  0  0  0  0  0  0  0  0
   -2.1656    2.6751    8.6942 C   0  0  0  0  0  0  0  0  0  0  0  0
   -2.4444    2.8434    7.3223 C   0  0  0  0  0  0  0  0  0  0  0  0
   -2.5899    3.3435    4.4030 N   0  0  0  0  0  0  0  0  0  0  0  0
   -2.3580    3.1913    3.0806 N   0  0  0  0  0  0  0  0  0  0  0  0
   -2.4279    2.5079   11.8743 H   0  0  0  0  0  0  0  0  0  0  0  0
   -2.9032    3.6252    2.3501 H   0  0  0  0  0  0  0  0  0  0  0  0
   -0.9136    2.1109    1.9559 H   0  0  0  0  0  0  0  0  0  0  0  0
    0.5669    1.6224    6.2784 H   0  0  0  0  0  0  0  0  0  0  0  0
   -3.9242    3.3418   10.0028 H   0  0  0  0  0  0  0  0  0  0  0  0
   -3.3882    3.2584    7.0083 H   0  0  0  0  0  0  0  0  0  0  0  0
  1 14  1  0
  1  2  2  0
  1 17  1  0
  2  3  1  0
  3 13  2  0
  3  4  1  0
  4  5  1  0
  4 12  2  0
  5  6  2  0
  5 18  1  0
  6  7  1  0
  7  8  2  0
  7 11  1  0
  8  9  1  0
  9 10  1  0
  9 15  1  0
 10 11  2  0
 10 19  1  0
 11 12  1  0
 12 20  1  0
 13 14  1  0
 14 16  1  0
M  END
>  <i_m_ct_stereo_status>  (279) 
1

>  <s_m_source_file>  (279) 
/var/tmp/pbs.5076255.sched01/tmpc36l9o9d/84wsylf1cs.sdf

>  <i_m_source_file_index>  (279) 
39

>  <i_lp_mmshare_version>  (279) 
48012

>  <i_f3d_flags>  (279) 
0

>  <s_epik_input>  (279) 
bjFbbkhdW2NIXW5jMS1jKFtjSF1uMilbY0hdYyhjMjMpW2NIXW5bbkhdMw==

>  <s_epik_cmdline>  (279) 
J2VwaWtfcHl0aG9uJywgJy1waHQnLCAnMi4wJywgJy1waCcsICc3LjAnLCAnLXRuJywgJzgnLCAnLW1hJywgJzIwMCcsICctaW1hZScsICc8aW5maWxlLm1hZT4nLCAnLW9tYWUnLCAnPG91dGZpbGUubWFlPic=

>  <r_lp_tautomer_probability>  (279) 
0.0370761

>  <r_epik_Ionization_Penalty>  (279) 
0.00235888

>  <r_epik_Ionization_Penalty_Charging>  (279) 
0

>  <r_epik_Ionization_Penalty_Neutral>  (279) 
0.00235888

>  <r_epik_State_Penalty>  (279) 
2.27311

>  <r_epik_Charging_Adjusted_Penalty>  (279) 
2.27311

>  <i_epik_Tot_Q>  (279) 
0

>  <i_epik_Tot_abs_Q>  (279) 
0

>  <s_lp_Force_Field>  (279) 
OPLS3e

>  <r_lp_Energy>  (279) 
17.5523

>  <b_lp_Chiralities_Consistent>  (279) 
1

>  <s_lp_Variant>  (279) 
88:0-4

>  <s_i_glide_gridfile>  (279) 
pfpi4k_grid

>  <i_i_glide_lignum>  (279) 
39

>  <i_i_glide_rotatable_bonds>  (279) 
1

>  <r_i_docking_score>  (279) 
-4.01935

>  <r_i_glide_ligand_efficiency>  (279) 
-0.287097

>  <r_i_glide_ligand_efficiency_sa>  (279) 
-0.691944

>  <r_i_glide_ligand_efficiency_ln>  (279) 
-1.1045

>  <r_i_glide_gscore>  (279) 
-4.01935

>  <r_i_glide_lipo>  (279) 
-0.145802

>  <r_i_glide_hbond>  (279) 
-0.16

>  <r_i_glide_metal>  (279) 
-0

>  <r_i_glide_rewards>  (279) 
-2.13973

>  <r_i_glide_evdw>  (279) 
-14.9201

>  <r_i_glide_ecoul>  (279) 
-6.99385

>  <r_i_glide_erotb>  (279) 
0.459853

>  <r_i_glide_esite>  (279) 
-0.238593

>  <r_i_glide_emodel>  (279) 
-28.9906

>  <r_i_glide_energy>  (279) 
-21.914

>  <r_i_glide_einternal>  (279) 
0.132644

>  <r_i_glide_intrahb_reward>  (279) 
-0

>  <i_i_glide_confnum>  (279) 
2

>  <i_i_glide_posenum>  (279) 
3

>  <r_i_glide_eff_state_penalty>  (279) 
0

>  <ligand_id>  (279) 
88

>  <original_smiles>  (279) 
c1nc(-c2cnc3[nH]ncc3c2)n[nH]1

>  <smiles>  (279) 
[H]c1nc2nn([H])c([H])c2c([H])c1-c1nc([H])n([H])n1

$$$$
88:3:1
     RDKit          3D

 20 22  0  0  1  0  0  0  0  0999 V2000
    1.6815    1.5449    2.0827 C   0  0  0  0  0  0  0  0  0  0  0  0
    1.7554    0.4650    2.8547 N   0  0  0  0  0  0  0  0  0  0  0  0
    0.4704    0.4590    3.3198 C   0  0  0  0  0  0  0  0  0  0  0  0
   -0.0063   -0.5811    4.2631 C   0  0  0  0  0  0  0  0  0  0  0  0
   -1.3080   -0.5112    4.8115 C   0  0  0  0  0  0  0  0  0  0  0  0
   -1.8142   -1.4119    5.6792 N   0  0  0  0  0  0  0  0  0  0  0  0
   -1.0471   -2.4511    6.0475 C   0  0  0  0  0  0  0  0  0  0  0  0
   -1.3678   -3.4584    6.8866 N   0  0  0  0  0  0  0  0  0  0  0  0
   -0.2497   -4.2641    6.9201 N   0  0  0  0  0  0  0  0  0  0  0  0
    0.7649   -3.7760    6.1185 C   0  0  0  0  0  0  0  0  0  0  0  0
    0.2404   -2.6170    5.5602 C   0  0  0  0  0  0  0  0  0  0  0  0
    0.7947   -1.6852    4.6636 C   0  0  0  0  0  0  0  0  0  0  0  0
   -0.3349    1.4470    2.9037 N   0  0  0  0  0  0  0  0  0  0  0  0
    0.4858    2.1409    2.0859 N   0  0  0  0  0  0  0  0  0  0  0  0
   -0.2103   -5.1097    7.4805 H   0  0  0  0  0  0  0  0  0  0  0  0
    0.2188    3.0146    1.5956 H   0  0  0  0  0  0  0  0  0  0  0  0
    2.5253    1.9145    1.5326 H   0  0  0  0  0  0  0  0  0  0  0  0
   -1.9838    0.2897    4.5487 H   0  0  0  0  0  0  0  0  0  0  0  0
    1.7145   -4.2910    6.0445 H   0  0  0  0  0  0  0  0  0  0  0  0
    1.8070   -1.8105    4.2945 H   0  0  0  0  0  0  0  0  0  0  0  0
  1 14  1  0
  1  2  2  0
  1 17  1  0
  2  3  1  0
  3 13  2  0
  3  4  1  0
  4  5  1  0
  4 12  2  0
  5  6  2  0
  5 18  1  0
  6  7  1  0
  7  8  2  0
  7 11  1  0
  8  9  1  0
  9 10  1  0
  9 15  1  0
 10 11  2  0
 10 19  1  0
 11 12  1  0
 12 20  1  0
 13 14  1  0
 14 16  1  0
M  END
>  <i_m_ct_stereo_status>  (280) 
1

>  <s_m_source_file>  (280) 
/var/tmp/pbs.5076255.sched01/tmpc36l9o9d/84wsylf1cs.sdf

>  <i_m_source_file_index>  (280) 
39

>  <i_lp_mmshare_version>  (280) 
48012

>  <i_f3d_flags>  (280) 
0

>  <s_epik_input>  (280) 
bjFbbkhdW2NIXW5jMS1jKFtjSF1uMilbY0hdYyhjMjMpW2NIXW5bbkhdMw==

>  <s_epik_cmdline>  (280) 
J2VwaWtfcHl0aG9uJywgJy1waHQnLCAnMi4wJywgJy1waCcsICc3LjAnLCAnLXRuJywgJzgnLCAnLW1hJywgJzIwMCcsICctaW1hZScsICc8aW5maWxlLm1hZT4nLCAnLW9tYWUnLCAnPG91dGZpbGUubWFlPic=

>  <r_lp_tautomer_probability>  (280) 
0.0370761

>  <r_epik_Ionization_Penalty>  (280) 
0.00235888

>  <r_epik_Ionization_Penalty_Charging>  (280) 
0

>  <r_epik_Ionization_Penalty_Neutral>  (280) 
0.00235888

>  <r_epik_State_Penalty>  (280) 
2.27311

>  <r_epik_Charging_Adjusted_Penalty>  (280) 
2.27311

>  <i_epik_Tot_Q>  (280) 
0

>  <i_epik_Tot_abs_Q>  (280) 
0

>  <s_lp_Force_Field>  (280) 
OPLS3e

>  <r_lp_Energy>  (280) 
17.5523

>  <b_lp_Chiralities_Consistent>  (280) 
1

>  <s_lp_Variant>  (280) 
88:0-4

>  <s_i_glide_gridfile>  (280) 
pfpi4k_grid

>  <i_i_glide_lignum>  (280) 
39

>  <i_i_glide_rotatable_bonds>  (280) 
1

>  <r_i_docking_score>  (280) 
-3.84106

>  <r_i_glide_ligand_efficiency>  (280) 
-0.274362

>  <r_i_glide_ligand_efficiency_sa>  (280) 
-0.661251

>  <r_i_glide_ligand_efficiency_ln>  (280) 
-1.05551

>  <r_i_glide_gscore>  (280) 
-3.84106

>  <r_i_glide_lipo>  (280) 
0

>  <r_i_glide_hbond>  (280) 
-0.166714

>  <r_i_glide_metal>  (280) 
-0

>  <r_i_glide_rewards>  (280) 
-2.13973

>  <r_i_glide_evdw>  (280) 
-13.701

>  <r_i_glide_ecoul>  (280) 
-7.48237

>  <r_i_glide_erotb>  (280) 
0.459853

>  <r_i_glide_esite>  (280) 
-0.187069

>  <r_i_glide_emodel>  (280) 
-28.048

>  <r_i_glide_energy>  (280) 
-21.1834

>  <r_i_glide_einternal>  (280) 
0.0080693

>  <r_i_glide_intrahb_reward>  (280) 
-0

>  <i_i_glide_confnum>  (280) 
1

>  <i_i_glide_posenum>  (280) 
17

>  <r_i_glide_eff_state_penalty>  (280) 
0

>  <ligand_id>  (280) 
88

>  <original_smiles>  (280) 
c1nc(-c2cnc3[nH]ncc3c2)n[nH]1

>  <smiles>  (280) 
[H]c1nc2nn([H])c([H])c2c([H])c1-c1nc([H])n([H])n1

$$$$
88:3:2
     RDKit          3D

 20 22  0  0  1  0  0  0  0  0999 V2000
   -2.8492    4.1993    9.4243 C   0  0  0  0  0  0  0  0  0  0  0  0
   -2.5880    4.1631    8.1205 N   0  0  0  0  0  0  0  0  0  0  0  0
   -2.1757    2.8653    8.0203 C   0  0  0  0  0  0  0  0  0  0  0  0
   -1.7635    2.2672    6.7277 C   0  0  0  0  0  0  0  0  0  0  0  0
   -1.2424    0.9500    6.6828 C   0  0  0  0  0  0  0  0  0  0  0  0
   -0.8633    0.3097    5.5566 N   0  0  0  0  0  0  0  0  0  0  0  0
   -0.9425    0.9734    4.3858 C   0  0  0  0  0  0  0  0  0  0  0  0
   -0.5883    0.5457    3.1539 N   0  0  0  0  0  0  0  0  0  0  0  0
   -0.8744    1.5968    2.3146 N   0  0  0  0  0  0  0  0  0  0  0  0
   -1.3947    2.6802    2.9991 C   0  0  0  0  0  0  0  0  0  0  0  0
   -1.4340    2.2731    4.3249 C   0  0  0  0  0  0  0  0  0  0  0  0
   -1.8588    2.9461    5.4891 C   0  0  0  0  0  0  0  0  0  0  0  0
   -2.1699    2.1469    9.1413 N   0  0  0  0  0  0  0  0  0  0  0  0
   -2.6184    3.0405   10.0512 N   0  0  0  0  0  0  0  0  0  0  0  0
   -0.7018    1.5591    1.3125 H   0  0  0  0  0  0  0  0  0  0  0  0
   -2.7324    2.8277   11.0415 H   0  0  0  0  0  0  0  0  0  0  0  0
   -3.2048    5.0855    9.9224 H   0  0  0  0  0  0  0  0  0  0  0  0
   -1.1346    0.3604    7.5801 H   0  0  0  0  0  0  0  0  0  0  0  0
   -1.6608    3.5913    2.4809 H   0  0  0  0  0  0  0  0  0  0  0  0
   -2.2413    3.9538    5.4301 H   0  0  0  0  0  0  0  0  0  0  0  0
  1 14  1  0
  1  2  2  0
  1 17  1  0
  2  3  1  0
  3 13  2  0
  3  4  1  0
  4  5  1  0
  4 12  2  0
  5  6  2  0
  5 18  1  0
  6  7  1  0
  7  8  2  0
  7 11  1  0
  8  9  1  0
  9 10  1  0
  9 15  1  0
 10 11  2  0
 10 19  1  0
 11 12  1  0
 12 20  1  0
 13 14  1  0
 14 16  1  0
M  END
>  <i_m_ct_stereo_status>  (281) 
1

>  <s_m_source_file>  (281) 
/var/tmp/pbs.5076255.sched01/tmpc36l9o9d/84wsylf1cs.sdf

>  <i_m_source_file_index>  (281) 
39

>  <i_lp_mmshare_version>  (281) 
48012

>  <i_f3d_flags>  (281) 
0

>  <s_epik_input>  (281) 
bjFbbkhdW2NIXW5jMS1jKFtjSF1uMilbY0hdYyhjMjMpW2NIXW5bbkhdMw==

>  <s_epik_cmdline>  (281) 
J2VwaWtfcHl0aG9uJywgJy1waHQnLCAnMi4wJywgJy1waCcsICc3LjAnLCAnLXRuJywgJzgnLCAnLW1hJywgJzIwMCcsICctaW1hZScsICc8aW5maWxlLm1hZT4nLCAnLW9tYWUnLCAnPG91dGZpbGUubWFlPic=

>  <r_lp_tautomer_probability>  (281) 
0.0370761

>  <r_epik_Ionization_Penalty>  (281) 
0.00235888

>  <r_epik_Ionization_Penalty_Charging>  (281) 
0

>  <r_epik_Ionization_Penalty_Neutral>  (281) 
0.00235888

>  <r_epik_State_Penalty>  (281) 
2.27311

>  <r_epik_Charging_Adjusted_Penalty>  (281) 
2.27311

>  <i_epik_Tot_Q>  (281) 
0

>  <i_epik_Tot_abs_Q>  (281) 
0

>  <s_lp_Force_Field>  (281) 
OPLS3e

>  <r_lp_Energy>  (281) 
17.5523

>  <b_lp_Chiralities_Consistent>  (281) 
1

>  <s_lp_Variant>  (281) 
88:0-4

>  <s_i_glide_gridfile>  (281) 
pfpi4k_grid

>  <i_i_glide_lignum>  (281) 
39

>  <i_i_glide_rotatable_bonds>  (281) 
1

>  <r_i_docking_score>  (281) 
-3.26655

>  <r_i_glide_ligand_efficiency>  (281) 
-0.233325

>  <r_i_glide_ligand_efficiency_sa>  (281) 
-0.562346

>  <r_i_glide_ligand_efficiency_ln>  (281) 
-0.897636

>  <r_i_glide_gscore>  (281) 
-3.26655

>  <r_i_glide_lipo>  (281) 
-0.0232949

>  <r_i_glide_hbond>  (281) 
-0.0377193

>  <r_i_glide_metal>  (281) 
-0

>  <r_i_glide_rewards>  (281) 
-2.20031

>  <r_i_glide_evdw>  (281) 
-18.4511

>  <r_i_glide_ecoul>  (281) 
-2.5644

>  <r_i_glide_erotb>  (281) 
0.459853

>  <r_i_glide_esite>  (281) 
-0.157864

>  <r_i_glide_emodel>  (281) 
-26.8217

>  <r_i_glide_energy>  (281) 
-21.0155

>  <r_i_glide_einternal>  (281) 
0.0140383

>  <r_i_glide_intrahb_reward>  (281) 
-0

>  <i_i_glide_confnum>  (281) 
1

>  <i_i_glide_posenum>  (281) 
2

>  <r_i_glide_eff_state_penalty>  (281) 
0

>  <ligand_id>  (281) 
88

>  <original_smiles>  (281) 
c1nc(-c2cnc3[nH]ncc3c2)n[nH]1

>  <smiles>  (281) 
[H]c1nc2nn([H])c([H])c2c([H])c1-c1nc([H])n([H])n1

$$$$
91:1:0
     RDKit          3D

 72 78  0  0  1  0  0  0  0  0999 V2000
    3.5561   -3.9702    6.7771 C   0  0  0  0  0  0  0  0  0  0  0  0
    2.6946   -4.5148    5.7827 O   0  0  0  0  0  0  0  0  0  0  0  0
    3.3626   -5.2443    4.7532 C   0  0  2  0  0  0  0  0  0  0  0  0
    3.8831   -4.2777    3.7325 C   0  0  0  0  0  0  0  0  0  0  0  0
    3.6230   -2.9190    3.7543 N   0  0  0  0  0  0  0  0  0  0  0  0
    4.2452   -2.2801    2.6993 C   0  0  0  0  0  0  0  0  0  0  0  0
    4.3044   -0.9311    2.3094 C   0  0  0  0  0  0  0  0  0  0  0  0
    5.0337   -0.5757    1.1610 C   0  0  0  0  0  0  0  0  0  0  0  0
    5.7037   -1.5712    0.4256 C   0  0  0  0  0  0  0  0  0  0  0  0
    5.6375   -2.9180    0.8271 C   0  0  0  0  0  0  0  0  0  0  0  0
    4.9044   -3.3109    1.9729 C   0  0  0  0  0  0  0  0  0  0  0  0
    4.6384   -4.5660    2.6260 C   0  0  0  0  0  0  0  0  0  0  0  0
    5.0926   -5.9401    2.2188 C   0  0  0  0  0  0  0  0  0  0  0  0
    4.0286   -7.0918    2.2629 C   0  0  1  0  0  0  0  0  0  0  0  0
    4.4999   -8.3565    2.8742 N   0  0  0  0  0  0  0  0  0  0  0  0
    5.6209   -8.9410    2.1365 C   0  0  0  0  0  0  0  0  0  0  0  0
    5.8853  -10.3920    2.5007 C   0  0  0  0  0  0  0  0  0  0  0  0
    7.2097  -10.8114    3.1086 C   0  0  0  0  0  0  0  0  0  0  0  0
    6.8623  -11.2188    1.7017 C   0  0  0  0  0  0  0  0  0  0  0  0
    4.7902   -8.2598    4.3104 C   0  0  0  0  0  0  0  0  0  0  0  0
    3.5928   -8.3046    5.2867 C   0  0  0  0  0  0  0  0  0  0  0  0
    2.2397   -7.6327    4.9119 C   0  0  2  0  0  0  0  0  0  0  0  0
    1.4428   -7.4495    6.2276 C   0  0  0  0  0  0  0  0  0  0  0  0
    1.4536   -8.5294    3.9127 C   0  0  1  0  0  0  0  0  0  0  0  0
    0.0605   -8.5071    4.1723 O   0  0  0  0  0  0  0  0  0  0  0  0
   -0.6007   -8.1131    3.0269 C   0  0  0  0  0  0  0  0  0  0  0  0
   -1.2392   -9.3358    2.3458 C   0  0  0  0  0  0  0  0  0  0  0  0
   -1.6380   -7.0677    3.4296 C   0  0  0  0  0  0  0  0  0  0  0  0
    0.2853   -7.4960    2.1684 O   0  0  0  0  0  0  0  0  0  0  0  0
    1.5988   -7.9092    2.5185 C   0  0  1  0  0  0  0  0  0  0  0  0
    2.5602   -6.6952    2.6598 C   0  0  2  0  0  0  0  0  0  0  0  0
    2.0380   -5.6176    1.8581 O   0  0  0  0  0  0  0  0  0  0  0  0
    2.0979   -5.7359    0.4384 C   0  0  0  0  0  0  0  0  0  0  0  0
    2.3829   -6.2923    4.1505 C   0  0  2  0  0  0  0  0  0  0  0  0
    3.0530   -2.4954    4.4689 H   0  0  0  0  0  0  0  0  0  0  0  0
    2.9583   -3.4821    7.5476 H   0  0  0  0  0  0  0  0  0  0  0  0
    4.2349   -3.2217    6.3674 H   0  0  0  0  0  0  0  0  0  0  0  0
    4.1530   -4.7407    7.2673 H   0  0  0  0  0  0  0  0  0  0  0  0
    4.2169   -5.7527    5.1917 H   0  0  0  0  0  0  0  0  0  0  0  0
    3.7858   -0.1772    2.8757 H   0  0  0  0  0  0  0  0  0  0  0  0
    5.0730    0.4550    0.8376 H   0  0  0  0  0  0  0  0  0  0  0  0
    6.2619   -1.3040   -0.4582 H   0  0  0  0  0  0  0  0  0  0  0  0
    6.1495   -3.6744    0.2568 H   0  0  0  0  0  0  0  0  0  0  0  0
    5.4372   -5.8766    1.1884 H   0  0  0  0  0  0  0  0  0  0  0  0
    5.9904   -6.1975    2.7778 H   0  0  0  0  0  0  0  0  0  0  0  0
    3.9169   -7.3495    1.2113 H   0  0  0  0  0  0  0  0  0  0  0  0
    5.4096   -8.9179    1.0666 H   0  0  0  0  0  0  0  0  0  0  0  0
    6.5318   -8.3568    2.2890 H   0  0  0  0  0  0  0  0  0  0  0  0
    4.9970  -10.9312    2.8278 H   0  0  0  0  0  0  0  0  0  0  0  0
    7.9624  -10.0379    3.2594 H   0  0  0  0  0  0  0  0  0  0  0  0
    7.1757  -11.5829    3.8756 H   0  0  0  0  0  0  0  0  0  0  0  0
    6.5939  -12.2584    1.5251 H   0  0  0  0  0  0  0  0  0  0  0  0
    7.3557  -10.7151    0.8820 H   0  0  0  0  0  0  0  0  0  0  0  0
    5.4269   -9.0908    4.6220 H   0  0  0  0  0  0  0  0  0  0  0  0
    5.4154   -7.3920    4.5052 H   0  0  0  0  0  0  0  0  0  0  0  0
    3.3926   -9.3530    5.5105 H   0  0  0  0  0  0  0  0  0  0  0  0
    3.9462   -7.8914    6.2327 H   0  0  0  0  0  0  0  0  0  0  0  0
    0.4908   -6.9436    6.0658 H   0  0  0  0  0  0  0  0  0  0  0  0
    1.9983   -6.8547    6.9519 H   0  0  0  0  0  0  0  0  0  0  0  0
    1.2255   -8.4127    6.6913 H   0  0  0  0  0  0  0  0  0  0  0  0
    1.7899   -9.5673    3.9188 H   0  0  0  0  0  0  0  0  0  0  0  0
   -0.4841  -10.0752    2.0835 H   0  0  0  0  0  0  0  0  0  0  0  0
   -1.7633   -9.0305    1.4411 H   0  0  0  0  0  0  0  0  0  0  0  0
   -1.9604   -9.7980    3.0177 H   0  0  0  0  0  0  0  0  0  0  0  0
   -1.1301   -6.2433    3.9350 H   0  0  0  0  0  0  0  0  0  0  0  0
   -2.3608   -7.5068    4.1160 H   0  0  0  0  0  0  0  0  0  0  0  0
   -2.1625   -6.7100    2.5422 H   0  0  0  0  0  0  0  0  0  0  0  0
    1.9444   -8.6433    1.7873 H   0  0  0  0  0  0  0  0  0  0  0  0
    1.5584   -4.9087   -0.0207 H   0  0  0  0  0  0  0  0  0  0  0  0
    1.6288   -6.6535    0.0895 H   0  0  0  0  0  0  0  0  0  0  0  0
    3.1207   -5.6852    0.0638 H   0  0  0  0  0  0  0  0  0  0  0  0
    1.3993   -5.8182    4.1707 H   0  0  0  0  0  0  0  0  0  0  0  0
  1  2  1  0
  1 36  1  0
  1 37  1  0
  1 38  1  0
  2  3  1  0
  3 34  1  0
  3  4  1  0
  3 39  1  1
  4 12  2  0
  4  5  1  0
  5 35  1  0
  5  6  1  0
  6 11  2  0
  6  7  1  0
  7  8  2  0
  7 40  1  0
  8  9  1  0
  8 41  1  0
  9 10  2  0
  9 42  1  0
 10 11  1  0
 10 43  1  0
 11 12  1  0
 12 13  1  0
 13 14  1  0
 13 44  1  0
 13 45  1  0
 14 31  1  0
 14 15  1  0
 14 46  1  6
 15 16  1  0
 15 20  1  0
 16 17  1  0
 16 47  1  0
 16 48  1  0
 17 19  1  0
 17 18  1  0
 17 49  1  0
 18 19  1  0
 18 50  1  0
 18 51  1  0
 19 52  1  0
 19 53  1  0
 20 21  1  0
 20 54  1  0
 20 55  1  0
 21 22  1  0
 21 56  1  0
 21 57  1  0
 22 34  1  0
 22 23  1  1
 22 24  1  0
 23 58  1  0
 23 59  1  0
 23 60  1  0
 24 30  1  0
 24 25  1  0
 24 61  1  6
 25 26  1  0
 26 27  1  0
 26 28  1  0
 26 29  1  0
 27 62  1  0
 27 63  1  0
 27 64  1  0
 28 65  1  0
 28 66  1  0
 28 67  1  0
 29 30  1  0
 30 31  1  0
 30 68  1  6
 31 32  1  6
 31 34  1  0
 32 33  1  0
 33 69  1  0
 33 70  1  0
 33 71  1  0
 34 72  1  6
M  END
>  <i_m_ct_stereo_status>  (282) 
1

>  <s_m_source_file>  (282) 
/var/tmp/pbs.5076255.sched01/tmp1uy3qkd6/1269t22etaf.sdf

>  <i_m_source_file_index>  (282) 
1

>  <i_lp_mmshare_version>  (282) 
48012

>  <i_f3d_flags>  (282) 
0

>  <s_epik_input>  (282) 
W2NIXTFbY0hdW2NIXVtjSF1jMmMxW25IXWMoW0NASF0oW0NASF0zNClPW0NIM10pYzJbQ0gyXVtDQEBIXShOKFtDSDJdW0NIMl01KVtDSDJdW0NIXTZbQ0gyXVtDSDJdNilbQ0BAXTQoT1tDSDNdKVtDQEBIXShbQ0BIXTdbQ0BdMzVbQ0gzXSlPQyhPNykoW0NIM10pW0NIM10=

>  <s_epik_cmdline>  (282) 
J2VwaWtfcHl0aG9uJywgJy1waHQnLCAnMi4wJywgJy1waCcsICc3LjAnLCAnLXRuJywgJzgnLCAnLW1hJywgJzIwMCcsICctaW1hZScsICc8aW5maWxlLm1hZT4nLCAnLW9tYWUnLCAnPG91dGZpbGUubWFlPic=

>  <r_epik_Ionization_Penalty>  (282) 
0.862037

>  <r_epik_Ionization_Penalty_Charging>  (282) 
0

>  <r_epik_Ionization_Penalty_Neutral>  (282) 
0.862037

>  <r_epik_State_Penalty>  (282) 
0.8986

>  <r_epik_Charging_Adjusted_Penalty>  (282) 
0.8986

>  <i_epik_Tot_Q>  (282) 
0

>  <i_epik_Tot_abs_Q>  (282) 
0

>  <s_lp_Force_Field>  (282) 
OPLS3e

>  <r_lp_Energy>  (282) 
56.7236

>  <b_lp_Chiralities_Consistent>  (282) 
1

>  <s_lp_Variant>  (282) 
91:0-2

>  <s_i_glide_gridfile>  (282) 
pfpi4k_grid

>  <i_i_glide_lignum>  (282) 
1

>  <i_i_glide_rotatable_bonds>  (282) 
4

>  <r_i_docking_score>  (282) 
-1.95011

>  <r_i_glide_ligand_efficiency>  (282) 
-0.0573562

>  <r_i_glide_ligand_efficiency_sa>  (282) 
-0.185812

>  <r_i_glide_ligand_efficiency_ln>  (282) 
-0.430834

>  <r_i_glide_gscore>  (282) 
-1.95011

>  <r_i_glide_lipo>  (282) 
-0.70562

>  <r_i_glide_hbond>  (282) 
0

>  <r_i_glide_metal>  (282) 
-0

>  <r_i_glide_rewards>  (282) 
-0.227643

>  <r_i_glide_evdw>  (282) 
-25.9529

>  <r_i_glide_ecoul>  (282) 
0.997539

>  <r_i_glide_erotb>  (282) 
0.185333

>  <r_i_glide_esite>  (282) 
-0.0541676

>  <r_i_glide_emodel>  (282) 
-28.0172

>  <r_i_glide_energy>  (282) 
-24.9554

>  <r_i_glide_einternal>  (282) 
0.197796

>  <r_i_glide_intrahb_reward>  (282) 
-0

>  <i_i_glide_confnum>  (282) 
3

>  <i_i_glide_posenum>  (282) 
10

>  <r_i_glide_eff_state_penalty>  (282) 
0

>  <ligand_id>  (282) 
91

>  <original_smiles>  (282) 
COC1c2[nH]c3ccccc3c2CC2N(CC3CC3)CCC3(C)C4OC(C)(C)OC4C2(OC)C13

>  <smiles>  (282) 
[H]c1c([H])c([H])c2c(c1[H])c1c(n2[H])C([H])(OC([H])([H])[H])C2([H])C3(OC([H])([H])[H])C4([H])OC(C([H])([H])[H])(C([H])([H])[H])OC4([H])C2(C([H])([H])[H])C([H])([H])C([H])([H])N(C([H])([H])C2([H])C([H])([H])C2([H])[H])C3([H])C1([H])[H]

$$$$
91:1:1
     RDKit          3D

 72 78  0  0  1  0  0  0  0  0999 V2000
    1.3042   -0.6290    2.6637 C   0  0  0  0  0  0  0  0  0  0  0  0
    1.2158   -2.0497    2.6680 O   0  0  0  0  0  0  0  0  0  0  0  0
    2.4265   -2.7354    2.9780 C   0  0  2  0  0  0  0  0  0  0  0  0
    3.3169   -2.7412    1.7703 C   0  0  0  0  0  0  0  0  0  0  0  0
    2.9510   -2.2608    0.5222 N   0  0  0  0  0  0  0  0  0  0  0  0
    3.9876   -2.3857   -0.3749 C   0  0  0  0  0  0  0  0  0  0  0  0
    4.1059   -2.0270   -1.7237 C   0  0  0  0  0  0  0  0  0  0  0  0
    5.3118   -2.2790   -2.3971 C   0  0  0  0  0  0  0  0  0  0  0  0
    6.3916   -2.8653   -1.7103 C   0  0  0  0  0  0  0  0  0  0  0  0
    6.2577   -3.2196   -0.3540 C   0  0  0  0  0  0  0  0  0  0  0  0
    5.0498   -2.9939    0.3507 C   0  0  0  0  0  0  0  0  0  0  0  0
    4.5942   -3.2369    1.6944 C   0  0  0  0  0  0  0  0  0  0  0  0
    5.3474   -3.8834    2.8252 C   0  0  0  0  0  0  0  0  0  0  0  0
    4.5839   -4.9521    3.6823 C   0  0  1  0  0  0  0  0  0  0  0  0
    4.7582   -4.8258    5.1494 N   0  0  0  0  0  0  0  0  0  0  0  0
    6.1557   -4.9856    5.5550 C   0  0  0  0  0  0  0  0  0  0  0  0
    6.3283   -5.2256    7.0413 C   0  0  0  0  0  0  0  0  0  0  0  0
    6.8066   -4.1107    7.9506 C   0  0  0  0  0  0  0  0  0  0  0  0
    7.7068   -5.2827    7.6609 C   0  0  0  0  0  0  0  0  0  0  0  0
    4.1681   -3.6063    5.7163 C   0  0  0  0  0  0  0  0  0  0  0  0
    2.6444   -3.5978    5.9625 C   0  0  0  0  0  0  0  0  0  0  0  0
    1.6804   -4.3079    4.9716 C   0  0  2  0  0  0  0  0  0  0  0  0
    0.2673   -3.7347    5.2302 C   0  0  0  0  0  0  0  0  0  0  0  0
    1.7005   -5.8463    5.2071 C   0  0  1  0  0  0  0  0  0  0  0  0
    0.4121   -6.4252    5.0577 O   0  0  0  0  0  0  0  0  0  0  0  0
    0.4821   -7.4207    4.1001 C   0  0  0  0  0  0  0  0  0  0  0  0
    0.4870   -8.8011    4.7828 C   0  0  0  0  0  0  0  0  0  0  0  0
   -0.7061   -7.2435    3.1541 C   0  0  0  0  0  0  0  0  0  0  0  0
    1.6279   -7.2588    3.3485 O   0  0  0  0  0  0  0  0  0  0  0  0
    2.5452   -6.4718    4.0920 C   0  0  1  0  0  0  0  0  0  0  0  0
    3.1178   -5.3019    3.2426 C   0  0  2  0  0  0  0  0  0  0  0  0
    3.0339   -5.6731    1.8555 O   0  0  0  0  0  0  0  0  0  0  0  0
    3.8891   -6.7056    1.3699 C   0  0  0  0  0  0  0  0  0  0  0  0
    2.0829   -4.1675    3.4835 C   0  0  2  0  0  0  0  0  0  0  0  0
    2.0504   -1.8390    0.3097 H   0  0  0  0  0  0  0  0  0  0  0  0
    0.3202   -0.2092    2.4555 H   0  0  0  0  0  0  0  0  0  0  0  0
    1.9810   -0.2530    1.8963 H   0  0  0  0  0  0  0  0  0  0  0  0
    1.6330   -0.2428    3.6287 H   0  0  0  0  0  0  0  0  0  0  0  0
    2.9342   -2.1816    3.7629 H   0  0  0  0  0  0  0  0  0  0  0  0
    3.2685   -1.5760   -2.2313 H   0  0  0  0  0  0  0  0  0  0  0  0
    5.4033   -2.0302   -3.4433 H   0  0  0  0  0  0  0  0  0  0  0  0
    7.3195   -3.0606   -2.2316 H   0  0  0  0  0  0  0  0  0  0  0  0
    7.0830   -3.6773    0.1654 H   0  0  0  0  0  0  0  0  0  0  0  0
    6.2082   -4.3916    2.3935 H   0  0  0  0  0  0  0  0  0  0  0  0
    5.7899   -3.1073    3.4463 H   0  0  0  0  0  0  0  0  0  0  0  0
    5.1176   -5.8711    3.4443 H   0  0  0  0  0  0  0  0  0  0  0  0
    6.5954   -5.8427    5.0415 H   0  0  0  0  0  0  0  0  0  0  0  0
    6.7433   -4.1093    5.2791 H   0  0  0  0  0  0  0  0  0  0  0  0
    5.5974   -5.9168    7.4552 H   0  0  0  0  0  0  0  0  0  0  0  0
    7.0410   -3.1518    7.4889 H   0  0  0  0  0  0  0  0  0  0  0  0
    6.3465   -4.0543    8.9354 H   0  0  0  0  0  0  0  0  0  0  0  0
    7.8569   -6.0030    8.4631 H   0  0  0  0  0  0  0  0  0  0  0  0
    8.5645   -5.1203    7.0084 H   0  0  0  0  0  0  0  0  0  0  0  0
    4.5939   -3.4024    6.6993 H   0  0  0  0  0  0  0  0  0  0  0  0
    4.4749   -2.7390    5.1362 H   0  0  0  0  0  0  0  0  0  0  0  0
    2.4717   -4.0164    6.9545 H   0  0  0  0  0  0  0  0  0  0  0  0
    2.3520   -2.5507    6.0570 H   0  0  0  0  0  0  0  0  0  0  0  0
   -0.4618   -4.1508    4.5397 H   0  0  0  0  0  0  0  0  0  0  0  0
    0.2418   -2.6529    5.1015 H   0  0  0  0  0  0  0  0  0  0  0  0
   -0.0717   -3.9585    6.2423 H   0  0  0  0  0  0  0  0  0  0  0  0
    2.0899   -6.1174    6.1897 H   0  0  0  0  0  0  0  0  0  0  0  0
    1.3396   -8.9063    5.4521 H   0  0  0  0  0  0  0  0  0  0  0  0
    0.5293   -9.5903    4.0314 H   0  0  0  0  0  0  0  0  0  0  0  0
   -0.4289   -8.9351    5.3577 H   0  0  0  0  0  0  0  0  0  0  0  0
   -0.6384   -6.2581    2.6935 H   0  0  0  0  0  0  0  0  0  0  0  0
   -1.6442   -7.3322    3.7058 H   0  0  0  0  0  0  0  0  0  0  0  0
   -0.6785   -8.0039    2.3698 H   0  0  0  0  0  0  0  0  0  0  0  0
    3.3238   -7.1229    4.4950 H   0  0  0  0  0  0  0  0  0  0  0  0
    3.6004   -6.9516    0.3490 H   0  0  0  0  0  0  0  0  0  0  0  0
    3.8212   -7.6171    1.9640 H   0  0  0  0  0  0  0  0  0  0  0  0
    4.9310   -6.3876    1.3314 H   0  0  0  0  0  0  0  0  0  0  0  0
    1.2184   -4.4851    2.8973 H   0  0  0  0  0  0  0  0  0  0  0  0
  1  2  1  0
  1 36  1  0
  1 37  1  0
  1 38  1  0
  2  3  1  0
  3 34  1  0
  3  4  1  0
  3 39  1  1
  4 12  2  0
  4  5  1  0
  5 35  1  0
  5  6  1  0
  6 11  2  0
  6  7  1  0
  7  8  2  0
  7 40  1  0
  8  9  1  0
  8 41  1  0
  9 10  2  0
  9 42  1  0
 10 11  1  0
 10 43  1  0
 11 12  1  0
 12 13  1  0
 13 14  1  0
 13 44  1  0
 13 45  1  0
 14 31  1  0
 14 15  1  0
 14 46  1  6
 15 16  1  0
 15 20  1  0
 16 17  1  0
 16 47  1  0
 16 48  1  0
 17 19  1  0
 17 18  1  0
 17 49  1  0
 18 19  1  0
 18 50  1  0
 18 51  1  0
 19 52  1  0
 19 53  1  0
 20 21  1  0
 20 54  1  0
 20 55  1  0
 21 22  1  0
 21 56  1  0
 21 57  1  0
 22 34  1  0
 22 23  1  6
 22 24  1  0
 23 58  1  0
 23 59  1  0
 23 60  1  0
 24 30  1  0
 24 25  1  0
 24 61  1  1
 25 26  1  0
 26 27  1  0
 26 28  1  0
 26 29  1  0
 27 62  1  0
 27 63  1  0
 27 64  1  0
 28 65  1  0
 28 66  1  0
 28 67  1  0
 29 30  1  0
 30 31  1  0
 30 68  1  1
 31 32  1  6
 31 34  1  0
 32 33  1  0
 33 69  1  0
 33 70  1  0
 33 71  1  0
 34 72  1  6
M  END
>  <i_m_ct_stereo_status>  (283) 
1

>  <s_m_source_file>  (283) 
/var/tmp/pbs.5076255.sched01/tmp1uy3qkd6/1269t22etaf.sdf

>  <i_m_source_file_index>  (283) 
1

>  <i_lp_mmshare_version>  (283) 
48012

>  <i_f3d_flags>  (283) 
0

>  <s_epik_input>  (283) 
W2NIXTFbY0hdW2NIXVtjSF1jMmMxW25IXWMoW0NASF0oW0NASF0zNClPW0NIM10pYzJbQ0gyXVtDQEBIXShOKFtDSDJdW0NIMl01KVtDSDJdW0NIXTZbQ0gyXVtDSDJdNilbQ0BAXTQoT1tDSDNdKVtDQEBIXShbQ0BIXTdbQ0BdMzVbQ0gzXSlPQyhPNykoW0NIM10pW0NIM10=

>  <s_epik_cmdline>  (283) 
J2VwaWtfcHl0aG9uJywgJy1waHQnLCAnMi4wJywgJy1waCcsICc3LjAnLCAnLXRuJywgJzgnLCAnLW1hJywgJzIwMCcsICctaW1hZScsICc8aW5maWxlLm1hZT4nLCAnLW9tYWUnLCAnPG91dGZpbGUubWFlPic=

>  <r_epik_Ionization_Penalty>  (283) 
0.862037

>  <r_epik_Ionization_Penalty_Charging>  (283) 
0

>  <r_epik_Ionization_Penalty_Neutral>  (283) 
0.862037

>  <r_epik_State_Penalty>  (283) 
0.8986

>  <r_epik_Charging_Adjusted_Penalty>  (283) 
0.8986

>  <i_epik_Tot_Q>  (283) 
0

>  <i_epik_Tot_abs_Q>  (283) 
0

>  <s_lp_Force_Field>  (283) 
OPLS3e

>  <r_lp_Energy>  (283) 
56.7236

>  <b_lp_Chiralities_Consistent>  (283) 
1

>  <s_lp_Variant>  (283) 
91:0-2

>  <s_i_glide_gridfile>  (283) 
pfpi4k_grid

>  <i_i_glide_lignum>  (283) 
1

>  <i_i_glide_rotatable_bonds>  (283) 
4

>  <r_i_docking_score>  (283) 
-1.83028

>  <r_i_glide_ligand_efficiency>  (283) 
-0.0538317

>  <r_i_glide_ligand_efficiency_sa>  (283) 
-0.174394

>  <r_i_glide_ligand_efficiency_ln>  (283) 
-0.404359

>  <r_i_glide_gscore>  (283) 
-1.83028

>  <r_i_glide_lipo>  (283) 
-0.300432

>  <r_i_glide_hbond>  (283) 
-0.16

>  <r_i_glide_metal>  (283) 
-0

>  <r_i_glide_rewards>  (283) 
-0.227643

>  <r_i_glide_evdw>  (283) 
-22.4968

>  <r_i_glide_ecoul>  (283) 
-0.811581

>  <r_i_glide_erotb>  (283) 
0.185333

>  <r_i_glide_esite>  (283) 
-0.0809552

>  <r_i_glide_emodel>  (283) 
-26.1766

>  <r_i_glide_energy>  (283) 
-23.3084

>  <r_i_glide_einternal>  (283) 
0.0728319

>  <r_i_glide_intrahb_reward>  (283) 
-0

>  <i_i_glide_confnum>  (283) 
3

>  <i_i_glide_posenum>  (283) 
19

>  <r_i_glide_eff_state_penalty>  (283) 
0

>  <ligand_id>  (283) 
91

>  <original_smiles>  (283) 
COC1c2[nH]c3ccccc3c2CC2N(CC3CC3)CCC3(C)C4OC(C)(C)OC4C2(OC)C13

>  <smiles>  (283) 
[H]c1c([H])c([H])c2c(c1[H])c1c(n2[H])C([H])(OC([H])([H])[H])C2([H])C3(OC([H])([H])[H])C4([H])OC(C([H])([H])[H])(C([H])([H])[H])OC4([H])C2(C([H])([H])[H])C([H])([H])C([H])([H])N(C([H])([H])C2([H])C([H])([H])C2([H])[H])C3([H])C1([H])[H]

$$$$
91:1:2
     RDKit          3D

 72 78  0  0  1  0  0  0  0  0999 V2000
    5.0423   -2.8546    5.0995 C   0  0  0  0  0  0  0  0  0  0  0  0
    3.9100   -3.5817    4.6393 O   0  0  0  0  0  0  0  0  0  0  0  0
    4.2095   -4.6216    3.7105 C   0  0  2  0  0  0  0  0  0  0  0  0
    4.3443   -4.0257    2.3395 C   0  0  0  0  0  0  0  0  0  0  0  0
    4.0820   -2.6971    2.0483 N   0  0  0  0  0  0  0  0  0  0  0  0
    4.3113   -2.4322    0.7130 C   0  0  0  0  0  0  0  0  0  0  0  0
    4.2173   -1.2551   -0.0524 C   0  0  0  0  0  0  0  0  0  0  0  0
    4.5219   -1.2921   -1.4243 C   0  0  0  0  0  0  0  0  0  0  0  0
    4.9235   -2.5081   -2.0161 C   0  0  0  0  0  0  0  0  0  0  0  0
    5.0080   -3.6783   -1.2402 C   0  0  0  0  0  0  0  0  0  0  0  0
    4.7064   -3.6746    0.1428 C   0  0  0  0  0  0  0  0  0  0  0  0
    4.6950   -4.6696    1.1851 C   0  0  0  0  0  0  0  0  0  0  0  0
    5.0128   -6.1380    1.0715 C   0  0  0  0  0  0  0  0  0  0  0  0
    4.0405   -7.1375    1.7897 C   0  0  1  0  0  0  0  0  0  0  0  0
    4.7038   -8.2164    2.5556 N   0  0  0  0  0  0  0  0  0  0  0  0
    5.5318   -9.0745    1.7052 C   0  0  0  0  0  0  0  0  0  0  0  0
    5.8095  -10.4272    2.3325 C   0  0  0  0  0  0  0  0  0  0  0  0
    7.1112  -10.7021    3.0617 C   0  0  0  0  0  0  0  0  0  0  0  0
    6.8339  -11.3626    1.7411 C   0  0  0  0  0  0  0  0  0  0  0  0
    5.4523   -7.7451    3.7275 C   0  0  0  0  0  0  0  0  0  0  0  0
    4.6537   -7.4168    5.0069 C   0  0  0  0  0  0  0  0  0  0  0  0
    3.2445   -6.7698    4.9109 C   0  0  2  0  0  0  0  0  0  0  0  0
    2.9260   -6.1624    6.2996 C   0  0  0  0  0  0  0  0  0  0  0  0
    2.1923   -7.8456    4.5228 C   0  0  1  0  0  0  0  0  0  0  0  0
    0.9666   -7.6451    5.2066 O   0  0  0  0  0  0  0  0  0  0  0  0
   -0.0394   -7.5283    4.2717 C   0  0  0  0  0  0  0  0  0  0  0  0
   -0.8530   -8.8289    4.2082 C   0  0  0  0  0  0  0  0  0  0  0  0
   -0.9130   -6.3428    4.6653 C   0  0  0  0  0  0  0  0  0  0  0  0
    0.4939   -7.2436    3.0324 O   0  0  0  0  0  0  0  0  0  0  0  0
    1.8549   -7.6515    3.0409 C   0  0  1  0  0  0  0  0  0  0  0  0
    2.7817   -6.5257    2.5074 C   0  0  2  0  0  0  0  0  0  0  0  0
    1.9961   -5.6762    1.6503 O   0  0  0  0  0  0  0  0  0  0  0  0
    1.6409   -6.1723    0.3678 C   0  0  0  0  0  0  0  0  0  0  0  0
    3.1036   -5.7106    3.7899 C   0  0  2  0  0  0  0  0  0  0  0  0
    3.7700   -2.0473    2.7521 H   0  0  0  0  0  0  0  0  0  0  0  0
    4.7274   -2.1233    5.8450 H   0  0  0  0  0  0  0  0  0  0  0  0
    5.5317   -2.3082    4.2930 H   0  0  0  0  0  0  0  0  0  0  0  0
    5.7809   -3.5040    5.5719 H   0  0  0  0  0  0  0  0  0  0  0  0
    5.1693   -5.0542    3.9768 H   0  0  0  0  0  0  0  0  0  0  0  0
    3.8971   -0.3359    0.4079 H   0  0  0  0  0  0  0  0  0  0  0  0
    4.4295   -0.3941   -2.0218 H   0  0  0  0  0  0  0  0  0  0  0  0
    5.1490   -2.5494   -3.0723 H   0  0  0  0  0  0  0  0  0  0  0  0
    5.2982   -4.6065   -1.7016 H   0  0  0  0  0  0  0  0  0  0  0  0
    4.9926   -6.3908    0.0141 H   0  0  0  0  0  0  0  0  0  0  0  0
    6.0499   -6.3021    1.3591 H   0  0  0  0  0  0  0  0  0  0  0  0
    3.5912   -7.6695    0.9544 H   0  0  0  0  0  0  0  0  0  0  0  0
    5.0247   -9.2716    0.7601 H   0  0  0  0  0  0  0  0  0  0  0  0
    6.4754   -8.5785    1.4580 H   0  0  0  0  0  0  0  0  0  0  0  0
    4.9147  -10.9084    2.7207 H   0  0  0  0  0  0  0  0  0  0  0  0
    7.8397   -9.8931    3.0925 H   0  0  0  0  0  0  0  0  0  0  0  0
    7.0497  -11.3102    3.9594 H   0  0  0  0  0  0  0  0  0  0  0  0
    6.6021  -12.4242    1.7475 H   0  0  0  0  0  0  0  0  0  0  0  0
    7.3886  -11.0089    0.8837 H   0  0  0  0  0  0  0  0  0  0  0  0
    6.1697   -8.5019    4.0482 H   0  0  0  0  0  0  0  0  0  0  0  0
    6.0932   -6.9120    3.4464 H   0  0  0  0  0  0  0  0  0  0  0  0
    4.5583   -8.3399    5.5772 H   0  0  0  0  0  0  0  0  0  0  0  0
    5.2960   -6.7837    5.6212 H   0  0  0  0  0  0  0  0  0  0  0  0
    1.9652   -5.6463    6.3122 H   0  0  0  0  0  0  0  0  0  0  0  0
    3.6799   -5.4347    6.5979 H   0  0  0  0  0  0  0  0  0  0  0  0
    2.8934   -6.9358    7.0676 H   0  0  0  0  0  0  0  0  0  0  0  0
    2.5283   -8.8642    4.7206 H   0  0  0  0  0  0  0  0  0  0  0  0
   -0.2255   -9.6773    3.9317 H   0  0  0  0  0  0  0  0  0  0  0  0
   -1.6648   -8.7410    3.4855 H   0  0  0  0  0  0  0  0  0  0  0  0
   -1.2922   -9.0300    5.1840 H   0  0  0  0  0  0  0  0  0  0  0  0
   -0.3194   -5.4264    4.6564 H   0  0  0  0  0  0  0  0  0  0  0  0
   -1.3277   -6.4802    5.6623 H   0  0  0  0  0  0  0  0  0  0  0  0
   -1.7275   -6.2805    3.9452 H   0  0  0  0  0  0  0  0  0  0  0  0
    1.9460   -8.5864    2.4827 H   0  0  0  0  0  0  0  0  0  0  0  0
    0.9705   -5.4773   -0.1331 H   0  0  0  0  0  0  0  0  0  0  0  0
    1.1375   -7.1363    0.4409 H   0  0  0  0  0  0  0  0  0  0  0  0
    2.5119   -6.2525   -0.2797 H   0  0  0  0  0  0  0  0  0  0  0  0
    2.1753   -5.1718    3.9870 H   0  0  0  0  0  0  0  0  0  0  0  0
  1  2  1  0
  1 36  1  0
  1 37  1  0
  1 38  1  0
  2  3  1  0
  3 34  1  0
  3  4  1  0
  3 39  1  1
  4 12  2  0
  4  5  1  0
  5 35  1  0
  5  6  1  0
  6 11  2  0
  6  7  1  0
  7  8  2  0
  7 40  1  0
  8  9  1  0
  8 41  1  0
  9 10  2  0
  9 42  1  0
 10 11  1  0
 10 43  1  0
 11 12  1  0
 12 13  1  0
 13 14  1  0
 13 44  1  0
 13 45  1  0
 14 31  1  0
 14 15  1  0
 14 46  1  6
 15 16  1  0
 15 20  1  0
 16 17  1  0
 16 47  1  0
 16 48  1  0
 17 19  1  0
 17 18  1  0
 17 49  1  0
 18 19  1  0
 18 50  1  0
 18 51  1  0
 19 52  1  0
 19 53  1  0
 20 21  1  0
 20 54  1  0
 20 55  1  0
 21 22  1  0
 21 56  1  0
 21 57  1  0
 22 34  1  0
 22 23  1  1
 22 24  1  0
 23 58  1  0
 23 59  1  0
 23 60  1  0
 24 30  1  0
 24 25  1  0
 24 61  1  6
 25 26  1  0
 26 27  1  0
 26 28  1  0
 26 29  1  0
 27 62  1  0
 27 63  1  0
 27 64  1  0
 28 65  1  0
 28 66  1  0
 28 67  1  0
 29 30  1  0
 30 31  1  0
 30 68  1  6
 31 32  1  6
 31 34  1  0
 32 33  1  0
 33 69  1  0
 33 70  1  0
 33 71  1  0
 34 72  1  1
M  END
>  <i_m_ct_stereo_status>  (284) 
1

>  <s_m_source_file>  (284) 
/var/tmp/pbs.5076255.sched01/tmp1uy3qkd6/1269t22etaf.sdf

>  <i_m_source_file_index>  (284) 
1

>  <i_lp_mmshare_version>  (284) 
48012

>  <i_f3d_flags>  (284) 
0

>  <s_epik_input>  (284) 
W2NIXTFbY0hdW2NIXVtjSF1jMmMxW25IXWMoW0NASF0oW0NASF0zNClPW0NIM10pYzJbQ0gyXVtDQEBIXShOKFtDSDJdW0NIMl01KVtDSDJdW0NIXTZbQ0gyXVtDSDJdNilbQ0BAXTQoT1tDSDNdKVtDQEBIXShbQ0BIXTdbQ0BdMzVbQ0gzXSlPQyhPNykoW0NIM10pW0NIM10=

>  <s_epik_cmdline>  (284) 
J2VwaWtfcHl0aG9uJywgJy1waHQnLCAnMi4wJywgJy1waCcsICc3LjAnLCAnLXRuJywgJzgnLCAnLW1hJywgJzIwMCcsICctaW1hZScsICc8aW5maWxlLm1hZT4nLCAnLW9tYWUnLCAnPG91dGZpbGUubWFlPic=

>  <r_epik_Ionization_Penalty>  (284) 
0.862037

>  <r_epik_Ionization_Penalty_Charging>  (284) 
0

>  <r_epik_Ionization_Penalty_Neutral>  (284) 
0.862037

>  <r_epik_State_Penalty>  (284) 
0.8986

>  <r_epik_Charging_Adjusted_Penalty>  (284) 
0.8986

>  <i_epik_Tot_Q>  (284) 
0

>  <i_epik_Tot_abs_Q>  (284) 
0

>  <s_lp_Force_Field>  (284) 
OPLS3e

>  <r_lp_Energy>  (284) 
56.7236

>  <b_lp_Chiralities_Consistent>  (284) 
1

>  <s_lp_Variant>  (284) 
91:0-2

>  <s_i_glide_gridfile>  (284) 
pfpi4k_grid

>  <i_i_glide_lignum>  (284) 
1

>  <i_i_glide_rotatable_bonds>  (284) 
4

>  <r_i_docking_score>  (284) 
-1.56696

>  <r_i_glide_ligand_efficiency>  (284) 
-0.0460869

>  <r_i_glide_ligand_efficiency_sa>  (284) 
-0.149304

>  <r_i_glide_ligand_efficiency_ln>  (284) 
-0.346184

>  <r_i_glide_gscore>  (284) 
-1.56696

>  <r_i_glide_lipo>  (284) 
-0.305713

>  <r_i_glide_hbond>  (284) 
0

>  <r_i_glide_metal>  (284) 
-0

>  <r_i_glide_rewards>  (284) 
-0.227643

>  <r_i_glide_evdw>  (284) 
-26.5763

>  <r_i_glide_ecoul>  (284) 
0.952739

>  <r_i_glide_erotb>  (284) 
0.185333

>  <r_i_glide_esite>  (284) 
-0.0330306

>  <r_i_glide_emodel>  (284) 
-27.8438

>  <r_i_glide_energy>  (284) 
-25.6235

>  <r_i_glide_einternal>  (284) 
0.385975

>  <r_i_glide_intrahb_reward>  (284) 
-0

>  <i_i_glide_confnum>  (284) 
2

>  <i_i_glide_posenum>  (284) 
38

>  <r_i_glide_eff_state_penalty>  (284) 
0

>  <ligand_id>  (284) 
91

>  <original_smiles>  (284) 
COC1c2[nH]c3ccccc3c2CC2N(CC3CC3)CCC3(C)C4OC(C)(C)OC4C2(OC)C13

>  <smiles>  (284) 
[H]c1c([H])c([H])c2c(c1[H])c1c(n2[H])C([H])(OC([H])([H])[H])C2([H])C3(OC([H])([H])[H])C4([H])OC(C([H])([H])[H])(C([H])([H])[H])OC4([H])C2(C([H])([H])[H])C([H])([H])C([H])([H])N(C([H])([H])C2([H])C([H])([H])C2([H])[H])C3([H])C1([H])[H]

$$$$
93:0:0
     RDKit          3D

 47 50  0  0  1  0  0  0  0  0999 V2000
    0.6293    3.4035    3.6598 C   0  0  0  0  0  0  0  0  0  0  0  0
   -0.7822    2.8191    3.3868 C   0  0  0  0  0  0  0  0  0  0  0  0
   -1.8261    3.9525    3.3531 C   0  0  0  0  0  0  0  0  0  0  0  0
   -0.8079    2.1481    2.1745 O   0  0  0  0  0  0  0  0  0  0  0  0
   -0.3661    0.8687    2.4030 C   0  0  1  0  0  0  0  0  0  0  0  0
    1.0009    0.7777    2.1555 O   0  0  0  0  0  0  0  0  0  0  0  0
    1.6026   -0.4724    2.4630 C   0  0  1  0  0  0  0  0  0  0  0  0
    3.0885   -0.3646    2.0581 C   0  0  0  0  0  0  0  0  0  0  0  0
    3.3071   -0.7914    0.6931 N   0  0  0  0  0  0  0  0  0  0  0  0
    4.5342   -0.9624    0.1748 C   0  0  0  0  0  0  0  0  0  0  0  0
    5.5609   -0.6756    0.7820 O   0  0  0  0  0  0  0  0  0  0  0  0
    4.5646   -1.6519   -1.1622 C   0  0  0  0  0  0  0  0  0  0  0  0
    3.5636   -1.5806   -2.1099 C   0  0  0  0  0  0  0  0  0  0  0  0
    3.9300   -2.5389   -3.5314 S   0  0  0  0  0  0  0  0  0  0  0  0
    5.4621   -2.9626   -2.7717 C   0  0  0  0  0  0  0  0  0  0  0  0
    5.6817   -2.4089   -1.5847 N   0  0  0  0  0  0  0  0  0  0  0  0
    1.4485   -0.7507    3.9764 C   0  0  2  0  0  0  0  0  0  0  0  0
    0.8180   -1.9881    4.2647 O   0  0  0  0  0  0  0  0  0  0  0  0
    0.4393   -1.8694    5.5956 C   0  0  0  0  0  0  0  0  0  0  0  0
   -0.8155   -2.6982    5.8386 C   0  0  0  0  0  0  0  0  0  0  0  0
    1.6039   -2.3146    6.5045 C   0  0  0  0  0  0  0  0  0  0  0  0
    0.1156   -0.5489    5.8591 O   0  0  0  0  0  0  0  0  0  0  0  0
    0.5369    0.2122    4.7361 C   0  0  2  0  0  0  0  0  0  0  0  0
   -0.6892    0.6432    3.8988 C   0  0  1  0  0  0  0  0  0  0  0  0
   -1.1338    1.9021    4.3727 O   0  0  0  0  0  0  0  0  0  0  0  0
    1.4131    2.6486    3.6473 H   0  0  0  0  0  0  0  0  0  0  0  0
    0.6285    3.8886    4.6345 H   0  0  0  0  0  0  0  0  0  0  0  0
    0.8564    4.1503    2.8978 H   0  0  0  0  0  0  0  0  0  0  0  0
   -2.8401    3.5824    3.1958 H   0  0  0  0  0  0  0  0  0  0  0  0
   -1.5819    4.6430    2.5448 H   0  0  0  0  0  0  0  0  0  0  0  0
   -1.7955    4.5071    4.2912 H   0  0  0  0  0  0  0  0  0  0  0  0
   -0.8926    0.1910    1.7312 H   0  0  0  0  0  0  0  0  0  0  0  0
    1.1065   -1.2727    1.9053 H   0  0  0  0  0  0  0  0  0  0  0  0
    3.4728    0.6388    2.2022 H   0  0  0  0  0  0  0  0  0  0  0  0
    3.7149   -1.0024    2.6702 H   0  0  0  0  0  0  0  0  0  0  0  0
    2.4865   -1.0546    0.1551 H   0  0  0  0  0  0  0  0  0  0  0  0
    2.6212   -1.0545   -2.0303 H   0  0  0  0  0  0  0  0  0  0  0  0
    6.2179   -3.5784   -3.2390 H   0  0  0  0  0  0  0  0  0  0  0  0
    2.4283   -0.7082    4.4544 H   0  0  0  0  0  0  0  0  0  0  0  0
   -1.6455   -2.3087    5.2492 H   0  0  0  0  0  0  0  0  0  0  0  0
   -1.0859   -2.6363    6.8917 H   0  0  0  0  0  0  0  0  0  0  0  0
   -0.6108   -3.7361    5.5778 H   0  0  0  0  0  0  0  0  0  0  0  0
    2.4837   -1.6850    6.3943 H   0  0  0  0  0  0  0  0  0  0  0  0
    1.8823   -3.3351    6.2516 H   0  0  0  0  0  0  0  0  0  0  0  0
    1.3000   -2.2768    7.5477 H   0  0  0  0  0  0  0  0  0  0  0  0
    1.1085    1.0594    5.1170 H   0  0  0  0  0  0  0  0  0  0  0  0
   -1.4861   -0.0943    3.9616 H   0  0  0  0  0  0  0  0  0  0  0  0
  1  2  1  0
  1 26  1  0
  1 27  1  0
  1 28  1  0
  2 25  1  0
  2  3  1  0
  2  4  1  0
  3 29  1  0
  3 30  1  0
  3 31  1  0
  4  5  1  0
  5 24  1  0
  5  6  1  0
  5 32  1  6
  6  7  1  0
  7  8  1  0
  7 17  1  0
  7 33  1  6
  8  9  1  0
  8 34  1  0
  8 35  1  0
  9 10  1  0
  9 36  1  0
 10 11  2  0
 10 12  1  0
 12 16  1  0
 12 13  2  0
 13 14  1  0
 13 37  1  0
 14 15  1  0
 15 16  2  0
 15 38  1  0
 17 23  1  0
 17 18  1  0
 17 39  1  1
 18 19  1  0
 19 20  1  0
 19 21  1  0
 19 22  1  0
 20 40  1  0
 20 41  1  0
 20 42  1  0
 21 43  1  0
 21 44  1  0
 21 45  1  0
 22 23  1  0
 23 24  1  0
 23 46  1  1
 24 25  1  0
 24 47  1  6
M  END
>  <i_m_ct_stereo_status>  (285) 
1

>  <s_m_source_file>  (285) 
/var/tmp/pbs.5076255.sched01/tmp1uy3qkd6/1269t22etaf.sdf

>  <i_m_source_file_index>  (285) 
3

>  <i_lp_mmshare_version>  (285) 
48012

>  <i_f3d_flags>  (285) 
0

>  <s_epik_input>  (285) 
W0NIM11DKE8xKShbQ0gzXSlPW0NAQEhdKFtDQEBIXTEyKVtDQEBIXTNbQ0BASF0oT0MoTzMpKFtDSDNdKVtDSDNdKVtDQEBIXShPMilbQ0gyXVtOSF1DKD1PKWM0W2NIXXNbY0hdbjQ=

>  <s_epik_cmdline>  (285) 
J2VwaWtfcHl0aG9uJywgJy1waHQnLCAnMi4wJywgJy1waCcsICc3LjAnLCAnLXRuJywgJzgnLCAnLW1hJywgJzIwMCcsICctaW1hZScsICc8aW5maWxlLm1hZT4nLCAnLW9tYWUnLCAnPG91dGZpbGUubWFlPic=

>  <r_lp_tautomer_probability>  (285) 
1

>  <r_epik_Ionization_Penalty>  (285) 
2.36246e-06

>  <r_epik_Ionization_Penalty_Charging>  (285) 
0

>  <r_epik_Ionization_Penalty_Neutral>  (285) 
2.36246e-06

>  <r_epik_State_Penalty>  (285) 
-0

>  <r_epik_Charging_Adjusted_Penalty>  (285) 
0

>  <i_epik_Tot_Q>  (285) 
0

>  <i_epik_Tot_abs_Q>  (285) 
0

>  <s_epik_Chemistry_Notes>  (285) 
This compound contains an acetal/aminal-like group ( X-CH(R)-Y where X, Y are N, S, or O) that may be acid/base labile, releasing an aldehyde.

>  <s_lp_Force_Field>  (285) 
OPLS3e

>  <r_lp_Energy>  (285) 
6.28098

>  <b_lp_Chiralities_Consistent>  (285) 
1

>  <s_lp_Variant>  (285) 
93:0-1

>  <s_i_glide_gridfile>  (285) 
pfpi4k_grid

>  <i_i_glide_lignum>  (285) 
3

>  <i_i_glide_rotatable_bonds>  (285) 
4

>  <r_i_docking_score>  (285) 
-3.3143

>  <r_i_glide_ligand_efficiency>  (285) 
-0.132572

>  <r_i_glide_ligand_efficiency_sa>  (285) 
-0.387643

>  <r_i_glide_ligand_efficiency_ln>  (285) 
-0.785589

>  <r_i_glide_gscore>  (285) 
-3.3143

>  <r_i_glide_lipo>  (285) 
-0.379401

>  <r_i_glide_hbond>  (285) 
-0.16

>  <r_i_glide_metal>  (285) 
-0

>  <r_i_glide_rewards>  (285) 
-0.903166

>  <r_i_glide_evdw>  (285) 
-30.9107

>  <r_i_glide_ecoul>  (285) 
-3.70205

>  <r_i_glide_erotb>  (285) 
0.421797

>  <r_i_glide_esite>  (285) 
-0.192687

>  <r_i_glide_emodel>  (285) 
-39.8178

>  <r_i_glide_energy>  (285) 
-34.6128

>  <r_i_glide_einternal>  (285) 
3.34751

>  <r_i_glide_intrahb_reward>  (285) 
-0

>  <i_i_glide_confnum>  (285) 
2

>  <i_i_glide_posenum>  (285) 
1

>  <r_i_glide_eff_state_penalty>  (285) 
0

>  <ligand_id>  (285) 
93

>  <original_smiles>  (285) 
CC1(C)OC2OC(CNC(=O)c3cscn3)C3OC(C)(C)OC3C2O1

>  <smiles>  (285) 
[H]c1nc(C(=O)N([H])C([H])([H])C2([H])OC3([H])OC(C([H])([H])[H])(C([H])([H])[H])OC3([H])C3([H])OC(C([H])([H])[H])(C([H])([H])[H])OC23[H])c([H])s1

$$$$
93:0:1
     RDKit          3D

 47 50  0  0  1  0  0  0  0  0999 V2000
    0.6624    3.2199    4.5068 C   0  0  0  0  0  0  0  0  0  0  0  0
   -0.7434    2.6004    4.3089 C   0  0  0  0  0  0  0  0  0  0  0  0
   -1.8243    3.6051    4.7484 C   0  0  0  0  0  0  0  0  0  0  0  0
   -0.9399    2.2762    2.9789 O   0  0  0  0  0  0  0  0  0  0  0  0
   -0.3903    1.0223    2.7871 C   0  0  1  0  0  0  0  0  0  0  0  0
    0.9260    1.1362    2.3440 O   0  0  0  0  0  0  0  0  0  0  0  0
    1.6233   -0.0902    2.2019 C   0  0  1  0  0  0  0  0  0  0  0  0
    3.0117    0.2442    1.5999 C   0  0  0  0  0  0  0  0  0  0  0  0
    3.3408   -0.6565    0.5108 N   0  0  0  0  0  0  0  0  0  0  0  0
    4.5867   -0.9797    0.1273 C   0  0  0  0  0  0  0  0  0  0  0  0
    5.5823   -0.6155    0.7524 O   0  0  0  0  0  0  0  0  0  0  0  0
    4.6873   -1.8061   -1.1096 C   0  0  0  0  0  0  0  0  0  0  0  0
    3.6585   -2.0743   -1.9855 C   0  0  0  0  0  0  0  0  0  0  0  0
    4.1752   -3.0561   -3.3410 S   0  0  0  0  0  0  0  0  0  0  0  0
    5.7913   -3.0489   -2.6502 C   0  0  0  0  0  0  0  0  0  0  0  0
    5.9174   -2.3548   -1.5225 N   0  0  0  0  0  0  0  0  0  0  0  0
    1.7458   -0.7835    3.5748 C   0  0  2  0  0  0  0  0  0  0  0  0
    1.2319   -2.1009    3.6131 O   0  0  0  0  0  0  0  0  0  0  0  0
    1.0913   -2.3615    4.9702 C   0  0  0  0  0  0  0  0  0  0  0  0
   -0.0553   -3.3410    5.1770 C   0  0  0  0  0  0  0  0  0  0  0  0
    2.4199   -2.9094    5.5317 C   0  0  0  0  0  0  0  0  0  0  0  0
    0.7594   -1.1848    5.6238 O   0  0  0  0  0  0  0  0  0  0  0  0
    0.9347   -0.1287    4.6898 C   0  0  2  0  0  0  0  0  0  0  0  0
   -0.4433    0.3841    4.1990 C   0  0  1  0  0  0  0  0  0  0  0  0
   -0.8726    1.4327    5.0518 O   0  0  0  0  0  0  0  0  0  0  0  0
    1.4673    2.5621    4.1856 H   0  0  0  0  0  0  0  0  0  0  0  0
    0.8079    3.4443    5.5631 H   0  0  0  0  0  0  0  0  0  0  0  0
    0.7246    4.1492    3.9367 H   0  0  0  0  0  0  0  0  0  0  0  0
   -2.8305    3.1943    4.6608 H   0  0  0  0  0  0  0  0  0  0  0  0
   -1.7555    4.5004    4.1315 H   0  0  0  0  0  0  0  0  0  0  0  0
   -1.6558    3.8980    5.7857 H   0  0  0  0  0  0  0  0  0  0  0  0
   -0.9891    0.4925    2.0414 H   0  0  0  0  0  0  0  0  0  0  0  0
    1.0529   -0.7298    1.5260 H   0  0  0  0  0  0  0  0  0  0  0  0
    3.0275    1.2561    1.2061 H   0  0  0  0  0  0  0  0  0  0  0  0
    3.8014    0.2528    2.3488 H   0  0  0  0  0  0  0  0  0  0  0  0
    2.5471   -0.9880   -0.0373 H   0  0  0  0  0  0  0  0  0  0  0  0
    2.6304   -1.7523   -1.9197 H   0  0  0  0  0  0  0  0  0  0  0  0
    6.6374   -3.5583   -3.0839 H   0  0  0  0  0  0  0  0  0  0  0  0
    2.7877   -0.7984    3.8896 H   0  0  0  0  0  0  0  0  0  0  0  0
   -0.9862   -2.8861    4.8345 H   0  0  0  0  0  0  0  0  0  0  0  0
   -0.1414   -3.5712    6.2399 H   0  0  0  0  0  0  0  0  0  0  0  0
    0.1483   -4.2550    4.6205 H   0  0  0  0  0  0  0  0  0  0  0  0
    3.2361   -2.1891    5.4633 H   0  0  0  0  0  0  0  0  0  0  0  0
    2.7023   -3.8004    4.9715 H   0  0  0  0  0  0  0  0  0  0  0  0
    2.2989   -3.1692    6.5824 H   0  0  0  0  0  0  0  0  0  0  0  0
    1.5170    0.6558    5.1744 H   0  0  0  0  0  0  0  0  0  0  0  0
   -1.1759   -0.4226    4.1768 H   0  0  0  0  0  0  0  0  0  0  0  0
  1  2  1  0
  1 26  1  0
  1 27  1  0
  1 28  1  0
  2 25  1  0
  2  3  1  0
  2  4  1  0
  3 29  1  0
  3 30  1  0
  3 31  1  0
  4  5  1  0
  5 24  1  0
  5  6  1  0
  5 32  1  6
  6  7  1  0
  7  8  1  0
  7 17  1  0
  7 33  1  6
  8  9  1  0
  8 34  1  0
  8 35  1  0
  9 10  1  0
  9 36  1  0
 10 11  2  0
 10 12  1  0
 12 16  1  0
 12 13  2  0
 13 14  1  0
 13 37  1  0
 14 15  1  0
 15 16  2  0
 15 38  1  0
 17 23  1  0
 17 18  1  0
 17 39  1  1
 18 19  1  0
 19 20  1  0
 19 21  1  0
 19 22  1  0
 20 40  1  0
 20 41  1  0
 20 42  1  0
 21 43  1  0
 21 44  1  0
 21 45  1  0
 22 23  1  0
 23 24  1  0
 23 46  1  1
 24 25  1  0
 24 47  1  6
M  END
>  <i_m_ct_stereo_status>  (286) 
1

>  <s_m_source_file>  (286) 
/var/tmp/pbs.5076255.sched01/tmp1uy3qkd6/1269t22etaf.sdf

>  <i_m_source_file_index>  (286) 
3

>  <i_lp_mmshare_version>  (286) 
48012

>  <i_f3d_flags>  (286) 
0

>  <s_epik_input>  (286) 
W0NIM11DKE8xKShbQ0gzXSlPW0NAQEhdKFtDQEBIXTEyKVtDQEBIXTNbQ0BASF0oT0MoTzMpKFtDSDNdKVtDSDNdKVtDQEBIXShPMilbQ0gyXVtOSF1DKD1PKWM0W2NIXXNbY0hdbjQ=

>  <s_epik_cmdline>  (286) 
J2VwaWtfcHl0aG9uJywgJy1waHQnLCAnMi4wJywgJy1waCcsICc3LjAnLCAnLXRuJywgJzgnLCAnLW1hJywgJzIwMCcsICctaW1hZScsICc8aW5maWxlLm1hZT4nLCAnLW9tYWUnLCAnPG91dGZpbGUubWFlPic=

>  <r_lp_tautomer_probability>  (286) 
1

>  <r_epik_Ionization_Penalty>  (286) 
2.36246e-06

>  <r_epik_Ionization_Penalty_Charging>  (286) 
0

>  <r_epik_Ionization_Penalty_Neutral>  (286) 
2.36246e-06

>  <r_epik_State_Penalty>  (286) 
-0

>  <r_epik_Charging_Adjusted_Penalty>  (286) 
0

>  <i_epik_Tot_Q>  (286) 
0

>  <i_epik_Tot_abs_Q>  (286) 
0

>  <s_epik_Chemistry_Notes>  (286) 
This compound contains an acetal/aminal-like group ( X-CH(R)-Y where X, Y are N, S, or O) that may be acid/base labile, releasing an aldehyde.

>  <s_lp_Force_Field>  (286) 
OPLS3e

>  <r_lp_Energy>  (286) 
6.28098

>  <b_lp_Chiralities_Consistent>  (286) 
1

>  <s_lp_Variant>  (286) 
93:0-1

>  <s_i_glide_gridfile>  (286) 
pfpi4k_grid

>  <i_i_glide_lignum>  (286) 
3

>  <i_i_glide_rotatable_bonds>  (286) 
4

>  <r_i_docking_score>  (286) 
-3.28643

>  <r_i_glide_ligand_efficiency>  (286) 
-0.131457

>  <r_i_glide_ligand_efficiency_sa>  (286) 
-0.384384

>  <r_i_glide_ligand_efficiency_ln>  (286) 
-0.778983

>  <r_i_glide_gscore>  (286) 
-3.28643

>  <r_i_glide_lipo>  (286) 
-0.392897

>  <r_i_glide_hbond>  (286) 
-0.16

>  <r_i_glide_metal>  (286) 
-0

>  <r_i_glide_rewards>  (286) 
-0.894993

>  <r_i_glide_evdw>  (286) 
-29.9148

>  <r_i_glide_ecoul>  (286) 
-4.2147

>  <r_i_glide_erotb>  (286) 
0.421797

>  <r_i_glide_esite>  (286) 
-0.132399

>  <r_i_glide_emodel>  (286) 
-38.6433

>  <r_i_glide_energy>  (286) 
-34.1294

>  <r_i_glide_einternal>  (286) 
4.52816

>  <r_i_glide_intrahb_reward>  (286) 
-0

>  <i_i_glide_confnum>  (286) 
2

>  <i_i_glide_posenum>  (286) 
27

>  <r_i_glide_eff_state_penalty>  (286) 
0

>  <ligand_id>  (286) 
93

>  <original_smiles>  (286) 
CC1(C)OC2OC(CNC(=O)c3cscn3)C3OC(C)(C)OC3C2O1

>  <smiles>  (286) 
[H]c1nc(C(=O)N([H])C([H])([H])C2([H])OC3([H])OC(C([H])([H])[H])(C([H])([H])[H])OC3([H])C3([H])OC(C([H])([H])[H])(C([H])([H])[H])OC23[H])c([H])s1

$$$$
93:0:2
     RDKit          3D

 47 50  0  0  1  0  0  0  0  0999 V2000
    5.3531   -3.3708   -2.3258 C   0  0  0  0  0  0  0  0  0  0  0  0
    4.1052   -2.4643   -2.5345 C   0  0  0  0  0  0  0  0  0  0  0  0
    4.0178   -1.9950   -3.9934 C   0  0  0  0  0  0  0  0  0  0  0  0
    2.9503   -3.1558   -2.2369 O   0  0  0  0  0  0  0  0  0  0  0  0
    2.7661   -3.0485   -0.8781 C   0  0  1  0  0  0  0  0  0  0  0  0
    3.3383   -4.1364   -0.2319 O   0  0  0  0  0  0  0  0  0  0  0  0
    3.2774   -4.0566    1.1830 C   0  0  1  0  0  0  0  0  0  0  0  0
    3.8136   -5.4097    1.7346 C   0  0  0  0  0  0  0  0  0  0  0  0
    2.8535   -6.4993    1.7359 N   0  0  0  0  0  0  0  0  0  0  0  0
    1.6630   -6.4744    2.3082 C   0  0  0  0  0  0  0  0  0  0  0  0
    1.1257   -5.4181    2.7044 O   0  0  0  0  0  0  0  0  0  0  0  0
    0.9957   -7.8108    2.4563 C   0  0  0  0  0  0  0  0  0  0  0  0
    1.6434   -9.0197    2.5444 C   0  0  0  0  0  0  0  0  0  0  0  0
    0.5317  -10.3426    2.8845 S   0  0  0  0  0  0  0  0  0  0  0  0
   -0.7796   -9.1688    2.8762 C   0  0  0  0  0  0  0  0  0  0  0  0
   -0.4021   -7.9209    2.6319 N   0  0  0  0  0  0  0  0  0  0  0  0
    4.1271   -2.8800    1.6907 C   0  0  2  0  0  0  0  0  0  0  0  0
    3.3800   -2.0273    2.5332 O   0  0  0  0  0  0  0  0  0  0  0  0
    4.0911   -0.8409    2.5479 C   0  0  0  0  0  0  0  0  0  0  0  0
    3.1378    0.3398    2.7312 C   0  0  0  0  0  0  0  0  0  0  0  0
    5.1381   -0.9152    3.6743 C   0  0  0  0  0  0  0  0  0  0  0  0
    4.7335   -0.6849    1.3285 O   0  0  0  0  0  0  0  0  0  0  0  0
    4.5740   -1.9039    0.6127 C   0  0  2  0  0  0  0  0  0  0  0  0
    3.5103   -1.7351   -0.5032 C   0  0  1  0  0  0  0  0  0  0  0  0
    4.1697   -1.3547   -1.7007 O   0  0  0  0  0  0  0  0  0  0  0  0
    5.4463   -3.7610   -1.3131 H   0  0  0  0  0  0  0  0  0  0  0  0
    6.2476   -2.7854   -2.5401 H   0  0  0  0  0  0  0  0  0  0  0  0
    5.3047   -4.2154   -3.0199 H   0  0  0  0  0  0  0  0  0  0  0  0
    3.1587   -1.3474   -4.1651 H   0  0  0  0  0  0  0  0  0  0  0  0
    3.9316   -2.8692   -4.6365 H   0  0  0  0  0  0  0  0  0  0  0  0
    4.9257   -1.4527   -4.2528 H   0  0  0  0  0  0  0  0  0  0  0  0
    1.6938   -3.0391   -0.6729 H   0  0  0  0  0  0  0  0  0  0  0  0
    2.2550   -3.8339    1.4716 H   0  0  0  0  0  0  0  0  0  0  0  0
    4.7144   -5.7243    1.1920 H   0  0  0  0  0  0  0  0  0  0  0  0
    4.1682   -5.3289    2.7631 H   0  0  0  0  0  0  0  0  0  0  0  0
    3.2102   -7.4098    1.4613 H   0  0  0  0  0  0  0  0  0  0  0  0
    2.7043   -9.2198    2.4981 H   0  0  0  0  0  0  0  0  0  0  0  0
   -1.8215   -9.3854    3.0763 H   0  0  0  0  0  0  0  0  0  0  0  0
    5.0174   -3.2419    2.2161 H   0  0  0  0  0  0  0  0  0  0  0  0
    2.4426    0.4113    1.8944 H   0  0  0  0  0  0  0  0  0  0  0  0
    3.7260    1.2575    2.7749 H   0  0  0  0  0  0  0  0  0  0  0  0
    2.5876    0.2284    3.6642 H   0  0  0  0  0  0  0  0  0  0  0  0
    5.8259   -1.7389    3.5106 H   0  0  0  0  0  0  0  0  0  0  0  0
    4.6384   -1.0838    4.6272 H   0  0  0  0  0  0  0  0  0  0  0  0
    5.7109    0.0091    3.7143 H   0  0  0  0  0  0  0  0  0  0  0  0
    5.5430   -2.2062    0.2154 H   0  0  0  0  0  0  0  0  0  0  0  0
    2.7729   -0.9996   -0.1859 H   0  0  0  0  0  0  0  0  0  0  0  0
  1  2  1  0
  1 26  1  0
  1 27  1  0
  1 28  1  0
  2 25  1  0
  2  3  1  0
  2  4  1  0
  3 29  1  0
  3 30  1  0
  3 31  1  0
  4  5  1  0
  5 24  1  0
  5  6  1  0
  5 32  1  6
  6  7  1  0
  7  8  1  0
  7 17  1  0
  7 33  1  6
  8  9  1  0
  8 34  1  0
  8 35  1  0
  9 10  1  0
  9 36  1  0
 10 11  2  0
 10 12  1  0
 12 16  1  0
 12 13  2  0
 13 14  1  0
 13 37  1  0
 14 15  1  0
 15 16  2  0
 15 38  1  0
 17 23  1  0
 17 18  1  0
 17 39  1  1
 18 19  1  0
 19 20  1  0
 19 21  1  0
 19 22  1  0
 20 40  1  0
 20 41  1  0
 20 42  1  0
 21 43  1  0
 21 44  1  0
 21 45  1  0
 22 23  1  0
 23 24  1  0
 23 46  1  6
 24 25  1  0
 24 47  1  1
M  END
>  <i_m_ct_stereo_status>  (287) 
1

>  <s_m_source_file>  (287) 
/var/tmp/pbs.5076255.sched01/tmp1uy3qkd6/1269t22etaf.sdf

>  <i_m_source_file_index>  (287) 
3

>  <i_lp_mmshare_version>  (287) 
48012

>  <i_f3d_flags>  (287) 
0

>  <s_epik_input>  (287) 
W0NIM11DKE8xKShbQ0gzXSlPW0NAQEhdKFtDQEBIXTEyKVtDQEBIXTNbQ0BASF0oT0MoTzMpKFtDSDNdKVtDSDNdKVtDQEBIXShPMilbQ0gyXVtOSF1DKD1PKWM0W2NIXXNbY0hdbjQ=

>  <s_epik_cmdline>  (287) 
J2VwaWtfcHl0aG9uJywgJy1waHQnLCAnMi4wJywgJy1waCcsICc3LjAnLCAnLXRuJywgJzgnLCAnLW1hJywgJzIwMCcsICctaW1hZScsICc8aW5maWxlLm1hZT4nLCAnLW9tYWUnLCAnPG91dGZpbGUubWFlPic=

>  <r_lp_tautomer_probability>  (287) 
1

>  <r_epik_Ionization_Penalty>  (287) 
2.36246e-06

>  <r_epik_Ionization_Penalty_Charging>  (287) 
0

>  <r_epik_Ionization_Penalty_Neutral>  (287) 
2.36246e-06

>  <r_epik_State_Penalty>  (287) 
-0

>  <r_epik_Charging_Adjusted_Penalty>  (287) 
0

>  <i_epik_Tot_Q>  (287) 
0

>  <i_epik_Tot_abs_Q>  (287) 
0

>  <s_epik_Chemistry_Notes>  (287) 
This compound contains an acetal/aminal-like group ( X-CH(R)-Y where X, Y are N, S, or O) that may be acid/base labile, releasing an aldehyde.

>  <s_lp_Force_Field>  (287) 
OPLS3e

>  <r_lp_Energy>  (287) 
6.28098

>  <b_lp_Chiralities_Consistent>  (287) 
1

>  <s_lp_Variant>  (287) 
93:0-1

>  <s_i_glide_gridfile>  (287) 
pfpi4k_grid

>  <i_i_glide_lignum>  (287) 
3

>  <i_i_glide_rotatable_bonds>  (287) 
4

>  <r_i_docking_score>  (287) 
-2.49188

>  <r_i_glide_ligand_efficiency>  (287) 
-0.0996753

>  <r_i_glide_ligand_efficiency_sa>  (287) 
-0.291452

>  <r_i_glide_ligand_efficiency_ln>  (287) 
-0.590651

>  <r_i_glide_gscore>  (287) 
-2.49188

>  <r_i_glide_lipo>  (287) 
-0.498036

>  <r_i_glide_hbond>  (287) 
-0.00203761

>  <r_i_glide_metal>  (287) 
-0

>  <r_i_glide_rewards>  (287) 
-1.02035

>  <r_i_glide_evdw>  (287) 
-29.7965

>  <r_i_glide_ecoul>  (287) 
0.981768

>  <r_i_glide_erotb>  (287) 
0.421797

>  <r_i_glide_esite>  (287) 
-0.0506966

>  <r_i_glide_emodel>  (287) 
-31.7777

>  <r_i_glide_energy>  (287) 
-28.8147

>  <r_i_glide_einternal>  (287) 
2.88437

>  <r_i_glide_intrahb_reward>  (287) 
-0

>  <i_i_glide_confnum>  (287) 
1

>  <i_i_glide_posenum>  (287) 
7

>  <r_i_glide_eff_state_penalty>  (287) 
0

>  <ligand_id>  (287) 
93

>  <original_smiles>  (287) 
CC1(C)OC2OC(CNC(=O)c3cscn3)C3OC(C)(C)OC3C2O1

>  <smiles>  (287) 
[H]c1nc(C(=O)N([H])C([H])([H])C2([H])OC3([H])OC(C([H])([H])[H])(C([H])([H])[H])OC3([H])C3([H])OC(C([H])([H])[H])(C([H])([H])[H])OC23[H])c([H])s1

$$$$
94:1:0
     RDKit          3D

 91 98  0  0  1  0  0  0  0  0999 V2000
    4.0709   -6.6144    7.4090 C   0  0  0  0  0  0  0  0  0  0  0  0
    3.2504   -6.7979    6.1377 C   0  0  0  0  0  0  0  0  0  0  0  0
    2.8472   -5.6522    5.4802 C   0  0  0  0  0  0  0  0  0  0  0  0
    3.2095   -4.2390    5.9519 C   0  0  2  0  0  0  0  0  0  0  0  0
    1.9544   -3.7453    6.7098 C   0  0  1  0  0  0  0  0  0  0  0  0
    2.1716   -2.6291    7.5476 O   0  0  0  0  0  0  0  0  0  0  0  0
    1.0097   -3.4147    5.5438 C   0  0  0  0  0  0  0  0  0  0  0  0
    1.8337   -3.8579    4.2952 C   0  0  1  0  0  0  0  0  0  0  0  0
    3.2670   -3.4093    4.6519 C   0  0  1  0  0  0  0  0  0  0  0  0
    3.4509   -1.8724    4.8321 C   0  0  0  0  0  0  0  0  0  0  0  0
    4.3757   -3.8945    3.6695 C   0  0  0  0  0  0  0  0  0  0  0  0
    5.4200   -3.2607    3.5511 O   0  0  0  0  0  0  0  0  0  0  0  0
    4.1941   -5.1918    2.8530 C   0  0  1  0  0  0  0  0  0  0  0  0
    2.7395   -5.8035    2.9042 C   0  0  2  0  0  0  0  0  0  0  0  0
    2.8977   -7.1981    2.9078 O   0  0  0  0  0  0  0  0  0  0  0  0
    1.8932   -5.5722    1.6174 C   0  0  0  0  0  0  0  0  0  0  0  0
    2.6530   -5.4509    0.2722 C   0  0  0  0  0  0  0  0  0  0  0  0
    3.8379   -4.4638    0.3812 C   0  0  2  0  0  0  0  0  0  0  0  0
    3.2866   -3.0751    0.8783 C   0  0  0  0  0  0  0  0  0  0  0  0
    4.6437   -4.1219   -0.9308 C   0  0  1  0  0  0  0  0  0  0  0  0
    3.8543   -3.6396   -2.1427 C   0  0  0  0  0  0  0  0  0  0  0  0
    2.4573   -3.3021   -2.2708 C   0  0  0  0  0  0  0  0  0  0  0  0
    2.2708   -2.9558   -3.5576 C   0  0  0  0  0  0  0  0  0  0  0  0
    3.4215   -3.0266   -4.2756 O   0  0  0  0  0  0  0  0  0  0  0  0
    4.3636   -3.4616   -3.3902 C   0  0  0  0  0  0  0  0  0  0  0  0
    5.6891   -3.1833   -0.5611 O   0  0  0  0  0  0  0  0  0  0  0  0
    6.5146   -3.3579    0.5228 C   0  0  0  0  0  0  0  0  0  0  0  0
    7.3695   -2.5790    0.8789 O   0  0  0  0  0  0  0  0  0  0  0  0
    6.2811   -4.7682    1.0924 C   0  0  1  0  0  0  0  0  0  0  0  0
    7.1669   -5.4426    2.0265 N   0  0  2  0  0  0  0  0  0  0  0  0
    8.6497   -5.3378    1.8035 C   0  0  0  0  0  0  0  0  0  0  0  0
    6.6400   -6.8253    1.9185 C   0  0  0  0  0  0  0  0  0  0  0  0
    5.2776   -6.6981    1.1460 C   0  0  0  0  0  0  0  0  0  0  0  0
    4.8130   -5.2082    1.3870 C   0  0  1  0  0  0  0  0  0  0  0  0
    1.9711   -5.4216    4.2268 C   0  0  1  0  0  0  0  0  0  0  0  0
    0.5548   -6.0489    4.3013 C   0  0  0  0  0  0  0  0  0  0  0  0
    2.9777   -8.2595    5.8163 C   0  0  1  0  0  0  0  0  0  0  0  0
    4.1858   -9.1713    5.5313 C   0  0  0  0  0  0  0  0  0  0  0  0
    5.0470   -9.5835    6.7588 C   0  0  0  0  0  0  0  0  0  0  0  0
    6.2494  -10.4431    6.3514 C   0  0  0  0  0  0  0  0  0  0  0  0
    4.2143  -10.2993    7.8399 C   0  0  0  0  0  0  0  0  0  0  0  0
    1.6782   -8.8790    6.3209 C   0  0  0  0  0  0  0  0  0  0  0  0
    1.8644   -8.5304    4.9523 O   0  0  0  0  0  0  0  0  0  0  0  0
    3.8349   -7.3976    8.1169 H   0  0  0  0  0  0  0  0  0  0  0  0
    3.8849   -5.6907    7.9589 H   0  0  0  0  0  0  0  0  0  0  0  0
    5.1236   -6.7130    7.1401 H   0  0  0  0  0  0  0  0  0  0  0  0
    4.1285   -4.1703    6.5282 H   0  0  0  0  0  0  0  0  0  0  0  0
    1.5342   -4.5318    7.3371 H   0  0  0  0  0  0  0  0  0  0  0  0
    2.6056   -1.9558    7.0513 H   0  0  0  0  0  0  0  0  0  0  0  0
    0.0365   -3.9013    5.6519 H   0  0  0  0  0  0  0  0  0  0  0  0
    0.7813   -2.3461    5.5036 H   0  0  0  0  0  0  0  0  0  0  0  0
    1.3980   -3.3878    3.4145 H   0  0  0  0  0  0  0  0  0  0  0  0
    2.6860   -1.3516    5.4027 H   0  0  0  0  0  0  0  0  0  0  0  0
    3.4683   -1.3809    3.8579 H   0  0  0  0  0  0  0  0  0  0  0  0
    4.4048   -1.6534    5.3148 H   0  0  0  0  0  0  0  0  0  0  0  0
    4.7892   -5.8686    3.4692 H   0  0  0  0  0  0  0  0  0  0  0  0
    3.3166   -7.4487    2.1076 H   0  0  0  0  0  0  0  0  0  0  0  0
    1.1485   -6.3657    1.5162 H   0  0  0  0  0  0  0  0  0  0  0  0
    1.3306   -4.6633    1.7401 H   0  0  0  0  0  0  0  0  0  0  0  0
    3.0277   -6.4319   -0.0086 H   0  0  0  0  0  0  0  0  0  0  0  0
    1.9244   -5.1864   -0.4979 H   0  0  0  0  0  0  0  0  0  0  0  0
    4.0646   -2.3235    1.0488 H   0  0  0  0  0  0  0  0  0  0  0  0
    2.7829   -3.1207    1.8278 H   0  0  0  0  0  0  0  0  0  0  0  0
    2.5474   -2.6484    0.1958 H   0  0  0  0  0  0  0  0  0  0  0  0
    5.1378   -5.0335   -1.2908 H   0  0  0  0  0  0  0  0  0  0  0  0
    1.6658   -3.3034   -1.5374 H   0  0  0  0  0  0  0  0  0  0  0  0
    1.3852   -2.6504   -4.1169 H   0  0  0  0  0  0  0  0  0  0  0  0
    5.3461   -3.5886   -3.8322 H   0  0  0  0  0  0  0  0  0  0  0  0
    6.6007   -5.2545    0.1739 H   0  0  0  0  0  0  0  0  0  0  0  0
    8.9300   -5.6529    0.8036 H   0  0  0  0  0  0  0  0  0  0  0  0
    9.1485   -5.9762    2.5340 H   0  0  0  0  0  0  0  0  0  0  0  0
    8.9802   -4.3148    1.9863 H   0  0  0  0  0  0  0  0  0  0  0  0
    7.3166   -7.4874    1.3817 H   0  0  0  0  0  0  0  0  0  0  0  0
    6.5006   -7.2497    2.9237 H   0  0  0  0  0  0  0  0  0  0  0  0
    5.4103   -6.8531    0.0731 H   0  0  0  0  0  0  0  0  0  0  0  0
    4.6279   -7.5147    1.4248 H   0  0  0  0  0  0  0  0  0  0  0  0
   -0.1764   -5.4025    3.8163 H   0  0  0  0  0  0  0  0  0  0  0  0
    0.2298   -6.1715    5.3377 H   0  0  0  0  0  0  0  0  0  0  0  0
    0.4651   -7.0232    3.8109 H   0  0  0  0  0  0  0  0  0  0  0  0
    3.7945  -10.0796    5.0521 H   0  0  0  0  0  0  0  0  0  0  0  0
    4.8016   -8.7177    4.7507 H   0  0  0  0  0  0  0  0  0  0  0  0
    5.5019   -8.6861    7.2070 H   0  0  0  0  0  0  0  0  0  0  0  0
    5.9858  -11.3637    5.8057 H   0  0  0  0  0  0  0  0  0  0  0  0
    6.8148  -10.7311    7.2357 H   0  0  0  0  0  0  0  0  0  0  0  0
    6.9108   -9.8576    5.7229 H   0  0  0  0  0  0  0  0  0  0  0  0
    3.7690  -11.2501    7.5023 H   0  0  0  0  0  0  0  0  0  0  0  0
    3.3883   -9.6894    8.1890 H   0  0  0  0  0  0  0  0  0  0  0  0
    4.8124  -10.5144    8.7189 H   0  0  0  0  0  0  0  0  0  0  0  0
    1.5394   -9.9538    6.4512 H   0  0  0  0  0  0  0  0  0  0  0  0
    0.9194   -8.2558    6.7844 H   0  0  0  0  0  0  0  0  0  0  0  0
    6.9493   -5.0696    2.9588 H   0  0  0  0  0  0  0  0  0  0  0  0
  1  2  1  0
  1 44  1  0
  1 45  1  0
  1 46  1  0
  2  3  2  3
  2 37  1  0
  3 35  1  0
  3  4  1  0
  4  9  1  0
  4  5  1  0
  4 47  1  1
  5  6  1  0
  5  7  1  0
  5 48  1  1
  6 49  1  0
  7  8  1  0
  7 50  1  0
  7 51  1  0
  8 35  1  0
  8  9  1  0
  8 52  1  6
  9 10  1  1
  9 11  1  0
 10 53  1  0
 10 54  1  0
 10 55  1  0
 11 12  2  0
 11 13  1  0
 13 34  1  0
 13 14  1  0
 13 56  1  1
 14 15  1  1
 14 16  1  0
 14 35  1  0
 15 57  1  0
 16 17  1  0
 16 58  1  0
 16 59  1  0
 17 18  1  0
 17 60  1  0
 17 61  1  0
 18 34  1  0
 18 19  1  1
 18 20  1  0
 19 62  1  0
 19 63  1  0
 19 64  1  0
 20 21  1  0
 20 26  1  0
 20 65  1  6
 21 25  2  0
 21 22  1  0
 22 23  2  0
 22 66  1  0
 23 24  1  0
 23 67  1  0
 24 25  1  0
 25 68  1  0
 26 27  1  0
 27 28  2  0
 27 29  1  0
 29 34  1  0
 29 30  1  0
 29 69  1  6
 30 31  1  0
 30 32  1  0
 30 91  1  1
 31 70  1  0
 31 71  1  0
 31 72  1  0
 32 33  1  0
 32 73  1  0
 32 74  1  0
 34 33  1  6
 33 75  1  0
 33 76  1  0
 35 36  1  1
 36 77  1  0
 36 78  1  0
 36 79  1  0
 37 43  1  0
 37 38  1  6
 37 42  1  0
 38 39  1  0
 38 80  1  0
 38 81  1  0
 39 40  1  0
 39 41  1  0
 39 82  1  0
 40 83  1  0
 40 84  1  0
 40 85  1  0
 41 86  1  0
 41 87  1  0
 41 88  1  0
 42 43  1  0
 42 89  1  0
 42 90  1  0
M  CHG  1  30   1
M  END
>  <i_m_ct_stereo_status>  (288) 
1

>  <s_m_source_file>  (288) 
/var/tmp/pbs.5076255.sched01/tmp1uy3qkd6/1269t22etaf.sdf

>  <i_m_source_file_index>  (288) 
5

>  <i_lp_mmshare_version>  (288) 
48012

>  <i_f3d_flags>  (288) 
0

>  <s_epik_input>  (288) 
W0NIM11bQ0hdKFtDSDNdKVtDSDJdW0NAQF0xKFtDSDJdTzEpQyhcW0NIM10pPUMyL1tDQEhdKFtDQEBIXShbT0hdKVtDSDJdMylbQ0BAXShbQ0gzXSkoQzQ9TylbQ0BIXTNbQ0BAXTIoW0NIM10pW0NAQF0oW0NASF00W0NAQF01NjcpKFtPSF0pW0NIMl1bQ0gyXVtDQF01KFtDSDNdKVtDQEBIXShjOFtjSF1bY0hdb1tjSF04KU9DKD1PKVtDQEhdNk4oW0NIM10pW0NIMl1bQ0gyXTc=

>  <s_epik_cmdline>  (288) 
J2VwaWtfcHl0aG9uJywgJy1waHQnLCAnMi4wJywgJy1waCcsICc3LjAnLCAnLXRuJywgJzgnLCAnLW1hJywgJzIwMCcsICctaW1hZScsICc8aW5maWxlLm1hZT4nLCAnLW9tYWUnLCAnPG91dGZpbGUubWFlPic=

>  <r_epik_Ionization_Penalty>  (288) 
0.0567622

>  <r_epik_Ionization_Penalty_Charging>  (288) 
0.0567621

>  <r_epik_Ionization_Penalty_Neutral>  (288) 
1.66974e-07

>  <r_epik_State_Penalty>  (288) 
0.0489812

>  <r_epik_Charging_Adjusted_Penalty>  (288) 
0.105743

>  <i_epik_Tot_Q>  (288) 
1

>  <i_epik_Tot_abs_Q>  (288) 
1

>  <s_epik_Chemistry_Notes>  (288) 
This compound has an ester and may undergo hydrolysis at high or low pH.

>  <s_lp_Force_Field>  (288) 
OPLS3e

>  <r_lp_Energy>  (288) 
136.659

>  <b_lp_Chiralities_Consistent>  (288) 
1

>  <s_lp_Variant>  (288) 
94:0-2

>  <s_i_glide_gridfile>  (288) 
pfpi4k_grid

>  <i_i_glide_lignum>  (288) 
5

>  <i_i_glide_rotatable_bonds>  (288) 
6

>  <r_i_docking_score>  (288) 
-3.44228

>  <r_i_glide_ligand_efficiency>  (288) 
-0.0800531

>  <r_i_glide_ligand_efficiency_sa>  (288) 
-0.280458

>  <r_i_glide_ligand_efficiency_ln>  (288) 
-0.722987

>  <r_i_glide_gscore>  (288) 
-3.44228

>  <r_i_glide_lipo>  (288) 
-0.807838

>  <r_i_glide_hbond>  (288) 
-0.214257

>  <r_i_glide_metal>  (288) 
-0

>  <r_i_glide_rewards>  (288) 
-0.635995

>  <r_i_glide_evdw>  (288) 
-26.8417

>  <r_i_glide_ecoul>  (288) 
-3.38409

>  <r_i_glide_erotb>  (288) 
0.0655074

>  <r_i_glide_esite>  (288) 
0

>  <r_i_glide_emodel>  (288) 
-39.9761

>  <r_i_glide_energy>  (288) 
-30.2258

>  <r_i_glide_einternal>  (288) 
2.5937

>  <r_i_glide_intrahb_reward>  (288) 
-0.5

>  <i_i_glide_confnum>  (288) 
1

>  <i_i_glide_posenum>  (288) 
29

>  <r_i_glide_eff_state_penalty>  (288) 
0

>  <ligand_id>  (288) 
94

>  <original_smiles>  (288) 
CC(=C1C2C(O)CC3C2(C)C(=O)C2C(O)(CCC4(C)C(c5ccoc5)OC(=O)C5N(C)CCC524)C13C)C1(CC(C)C)CO1

>  <smiles>  (288) 
[H]OC1([H])C([H])([H])C2([H])C3(C([H])([H])[H])C(=O)C4([H])C(O[H])(C([H])([H])C([H])([H])C5(C([H])([H])[H])C([H])(c6c([H])oc([H])c6[H])OC(=O)C6([H])C45C([H])([H])C([H])([H])[N+]6([H])C([H])([H])[H])C2(C([H])([H])[H])C(=C(C([H])([H])[H])C2(C([H])([H])C([H])(C([H])([H])[H])C([H])([H])[H])OC2([H])[H])C13[H]

$$$$
94:1:1
     RDKit          3D

 91 98  0  0  1  0  0  0  0  0999 V2000
    3.4695   -8.4936    6.9162 C   0  0  0  0  0  0  0  0  0  0  0  0
    2.6895   -8.1204    5.6540 C   0  0  0  0  0  0  0  0  0  0  0  0
    2.6350   -6.8153    5.3230 C   0  0  0  0  0  0  0  0  0  0  0  0
    3.3982   -5.7225    6.0961 C   0  0  2  0  0  0  0  0  0  0  0  0
    2.3496   -5.0879    7.0413 C   0  0  1  0  0  0  0  0  0  0  0  0
    2.9126   -4.3506    8.1094 O   0  0  0  0  0  0  0  0  0  0  0  0
    1.5541   -4.2170    6.0586 C   0  0  0  0  0  0  0  0  0  0  0  0
    2.2000   -4.5600    4.6847 C   0  0  1  0  0  0  0  0  0  0  0  0
    3.7062   -4.6610    5.0153 C   0  0  1  0  0  0  0  0  0  0  0  0
    4.3546   -3.3473    5.5389 C   0  0  0  0  0  0  0  0  0  0  0  0
    4.6086   -5.1954    3.8544 C   0  0  0  0  0  0  0  0  0  0  0  0
    5.7970   -4.8841    3.8056 O   0  0  0  0  0  0  0  0  0  0  0  0
    4.0363   -6.1447    2.7752 C   0  0  1  0  0  0  0  0  0  0  0  0
    2.4633   -6.2692    2.7750 C   0  0  2  0  0  0  0  0  0  0  0  0
    2.2027   -7.6090    2.4543 O   0  0  0  0  0  0  0  0  0  0  0  0
    1.7244   -5.4832    1.6390 C   0  0  0  0  0  0  0  0  0  0  0  0
    2.5021   -5.2605    0.3120 C   0  0  0  0  0  0  0  0  0  0  0  0
    3.9363   -4.7584    0.5886 C   0  0  2  0  0  0  0  0  0  0  0  0
    3.7932   -3.4541    1.4535 C   0  0  0  0  0  0  0  0  0  0  0  0
    4.8345   -4.3509   -0.6533 C   0  0  1  0  0  0  0  0  0  0  0  0
    4.2110   -3.3584   -1.6445 C   0  0  0  0  0  0  0  0  0  0  0  0
    3.5526   -2.1072   -1.4255 C   0  0  0  0  0  0  0  0  0  0  0  0
    3.1669   -1.6207   -2.6188 C   0  0  0  0  0  0  0  0  0  0  0  0
    3.5818   -2.4281   -3.6396 O   0  0  0  0  0  0  0  0  0  0  0  0
    4.2236   -3.4592   -3.0312 C   0  0  0  0  0  0  0  0  0  0  0  0
    6.0974   -3.8521   -0.1370 O   0  0  0  0  0  0  0  0  0  0  0  0
    6.8231   -4.5289    0.8131 C   0  0  0  0  0  0  0  0  0  0  0  0
    7.8914   -4.1506    1.2583 O   0  0  0  0  0  0  0  0  0  0  0  0
    6.1867   -5.9116    1.0454 C   0  0  1  0  0  0  0  0  0  0  0  0
    6.8236   -7.0431    1.7316 N   0  0  2  0  0  0  0  0  0  0  0  0
    8.2362   -7.3064    1.4338 C   0  0  0  0  0  0  0  0  0  0  0  0
    5.8948   -8.1268    1.3145 C   0  0  0  0  0  0  0  0  0  0  0  0
    4.6376   -7.4195    0.6866 C   0  0  0  0  0  0  0  0  0  0  0  0
    4.6448   -5.9881    1.3141 C   0  0  1  0  0  0  0  0  0  0  0  0
    1.8549   -6.0217    4.2221 C   0  0  1  0  0  0  0  0  0  0  0  0
    0.3103   -6.2234    4.2694 C   0  0  0  0  0  0  0  0  0  0  0  0
    2.0001   -9.3153    4.9672 C   0  0  1  0  0  0  0  0  0  0  0  0
    2.8403  -10.3882    4.2541 C   0  0  0  0  0  0  0  0  0  0  0  0
    4.1886  -10.7886    4.9170 C   0  0  0  0  0  0  0  0  0  0  0  0
    5.0360  -11.7111    4.0281 C   0  0  0  0  0  0  0  0  0  0  0  0
    4.0280  -11.4949    6.2858 C   0  0  0  0  0  0  0  0  0  0  0  0
    0.6256   -9.7287    5.4883 C   0  0  0  0  0  0  0  0  0  0  0  0
    0.7739   -9.0165    4.2730 O   0  0  0  0  0  0  0  0  0  0  0  0
    2.8249   -9.1593    7.5073 H   0  0  0  0  0  0  0  0  0  0  0  0
    3.7359   -7.7219    7.6047 H   0  0  0  0  0  0  0  0  0  0  0  0
    4.4179   -8.9529    6.6748 H   0  0  0  0  0  0  0  0  0  0  0  0
    4.2948   -6.0640    6.6124 H   0  0  0  0  0  0  0  0  0  0  0  0
    1.7041   -5.8443    7.4938 H   0  0  0  0  0  0  0  0  0  0  0  0
    3.5331   -3.7252    7.7687 H   0  0  0  0  0  0  0  0  0  0  0  0
    0.4858   -4.4149    6.1146 H   0  0  0  0  0  0  0  0  0  0  0  0
    1.6546   -3.1572    6.2804 H   0  0  0  0  0  0  0  0  0  0  0  0
    1.9418   -3.7979    3.9643 H   0  0  0  0  0  0  0  0  0  0  0  0
    3.7743   -2.8010    6.2767 H   0  0  0  0  0  0  0  0  0  0  0  0
    4.5122   -2.6524    4.7138 H   0  0  0  0  0  0  0  0  0  0  0  0
    5.3300   -3.5418    5.9890 H   0  0  0  0  0  0  0  0  0  0  0  0
    4.3982   -7.0901    3.1691 H   0  0  0  0  0  0  0  0  0  0  0  0
    1.2927   -7.8090    2.6208 H   0  0  0  0  0  0  0  0  0  0  0  0
    0.7776   -5.9727    1.4114 H   0  0  0  0  0  0  0  0  0  0  0  0
    1.4280   -4.5094    2.0106 H   0  0  0  0  0  0  0  0  0  0  0  0
    2.5178   -6.1808   -0.2733 H   0  0  0  0  0  0  0  0  0  0  0  0
    1.9708   -4.5438   -0.3063 H   0  0  0  0  0  0  0  0  0  0  0  0
    4.7259   -2.9355    1.6538 H   0  0  0  0  0  0  0  0  0  0  0  0
    3.3123   -3.5734    2.4024 H   0  0  0  0  0  0  0  0  0  0  0  0
    3.1049   -2.7793    1.0046 H   0  0  0  0  0  0  0  0  0  0  0  0
    5.0423   -5.2516   -1.2449 H   0  0  0  0  0  0  0  0  0  0  0  0
    3.3447   -1.5795   -0.5147 H   0  0  0  0  0  0  0  0  0  0  0  0
    2.6185   -0.7240   -2.8876 H   0  0  0  0  0  0  0  0  0  0  0  0
    4.6126   -4.1953   -3.7185 H   0  0  0  0  0  0  0  0  0  0  0  0
    6.3725   -6.2334    0.0214 H   0  0  0  0  0  0  0  0  0  0  0  0
    8.4344   -7.4221    0.3643 H   0  0  0  0  0  0  0  0  0  0  0  0
    8.5818   -8.2225    1.9325 H   0  0  0  0  0  0  0  0  0  0  0  0
    8.8932   -6.5041    1.8110 H   0  0  0  0  0  0  0  0  0  0  0  0
    6.3511   -8.8048    0.5939 H   0  0  0  0  0  0  0  0  0  0  0  0
    5.6285   -8.7433    2.1782 H   0  0  0  0  0  0  0  0  0  0  0  0
    4.7321   -7.3709   -0.3939 H   0  0  0  0  0  0  0  0  0  0  0  0
    3.7553   -8.0234    0.8103 H   0  0  0  0  0  0  0  0  0  0  0  0
   -0.1999   -5.3070    4.0004 H   0  0  0  0  0  0  0  0  0  0  0  0
   -0.0433   -6.5090    5.2620 H   0  0  0  0  0  0  0  0  0  0  0  0
   -0.0593   -6.9687    3.5703 H   0  0  0  0  0  0  0  0  0  0  0  0
    2.2286  -11.2917    4.1813 H   0  0  0  0  0  0  0  0  0  0  0  0
    2.9929  -10.0592    3.2209 H   0  0  0  0  0  0  0  0  0  0  0  0
    4.8102   -9.8855    4.9123 H   0  0  0  0  0  0  0  0  0  0  0  0
    4.4849  -12.6311    3.7835 H   0  0  0  0  0  0  0  0  0  0  0  0
    5.9422  -11.9947    4.5767 H   0  0  0  0  0  0  0  0  0  0  0  0
    5.3575  -11.2191    3.0941 H   0  0  0  0  0  0  0  0  0  0  0  0
    3.4822  -12.4134    6.2036 H   0  0  0  0  0  0  0  0  0  0  0  0
    3.4133  -10.9502    7.0042 H   0  0  0  0  0  0  0  0  0  0  0  0
    4.9858  -11.6272    6.7680 H   0  0  0  0  0  0  0  0  0  0  0  0
    0.2372  -10.7343    5.3159 H   0  0  0  0  0  0  0  0  0  0  0  0
    0.1369   -9.1545    6.2732 H   0  0  0  0  0  0  0  0  0  0  0  0
    6.7338   -6.8880    2.7192 H   0  0  0  0  0  0  0  0  0  0  0  0
  1  2  1  0
  1 44  1  0
  1 45  1  0
  1 46  1  0
  2  3  2  3
  2 37  1  0
  3 35  1  0
  3  4  1  0
  4  9  1  0
  4  5  1  0
  4 47  1  1
  5  6  1  0
  5  7  1  0
  5 48  1  1
  6 49  1  0
  7  8  1  0
  7 50  1  0
  7 51  1  0
  8 35  1  0
  8  9  1  0
  8 52  1  6
  9 10  1  1
  9 11  1  0
 10 53  1  0
 10 54  1  0
 10 55  1  0
 11 12  2  0
 11 13  1  0
 13 34  1  0
 13 14  1  0
 13 56  1  1
 14 15  1  6
 14 16  1  0
 14 35  1  0
 15 57  1  0
 16 17  1  0
 16 58  1  0
 16 59  1  0
 17 18  1  0
 17 60  1  0
 17 61  1  0
 18 34  1  0
 18 19  1  1
 18 20  1  0
 19 62  1  0
 19 63  1  0
 19 64  1  0
 20 21  1  0
 20 26  1  0
 20 65  1  6
 21 25  2  0
 21 22  1  0
 22 23  2  0
 22 66  1  0
 23 24  1  0
 23 67  1  0
 24 25  1  0
 25 68  1  0
 26 27  1  0
 27 28  2  0
 27 29  1  0
 29 34  1  0
 29 30  1  0
 29 69  1  6
 30 31  1  0
 30 32  1  0
 30 91  1  1
 31 70  1  0
 31 71  1  0
 31 72  1  0
 32 33  1  0
 32 73  1  0
 32 74  1  0
 34 33  1  6
 33 75  1  0
 33 76  1  0
 35 36  1  6
 36 77  1  0
 36 78  1  0
 36 79  1  0
 37 43  1  0
 37 38  1  6
 37 42  1  0
 38 39  1  0
 38 80  1  0
 38 81  1  0
 39 40  1  0
 39 41  1  0
 39 82  1  0
 40 83  1  0
 40 84  1  0
 40 85  1  0
 41 86  1  0
 41 87  1  0
 41 88  1  0
 42 43  1  0
 42 89  1  0
 42 90  1  0
M  CHG  1  30   1
M  END
>  <i_m_ct_stereo_status>  (289) 
1

>  <s_m_source_file>  (289) 
/var/tmp/pbs.5076255.sched01/tmp1uy3qkd6/1269t22etaf.sdf

>  <i_m_source_file_index>  (289) 
5

>  <i_lp_mmshare_version>  (289) 
48012

>  <i_f3d_flags>  (289) 
0

>  <s_epik_input>  (289) 
W0NIM11bQ0hdKFtDSDNdKVtDSDJdW0NAQF0xKFtDSDJdTzEpQyhcW0NIM10pPUMyL1tDQEhdKFtDQEBIXShbT0hdKVtDSDJdMylbQ0BAXShbQ0gzXSkoQzQ9TylbQ0BIXTNbQ0BAXTIoW0NIM10pW0NAQF0oW0NASF00W0NAQF01NjcpKFtPSF0pW0NIMl1bQ0gyXVtDQF01KFtDSDNdKVtDQEBIXShjOFtjSF1bY0hdb1tjSF04KU9DKD1PKVtDQEhdNk4oW0NIM10pW0NIMl1bQ0gyXTc=

>  <s_epik_cmdline>  (289) 
J2VwaWtfcHl0aG9uJywgJy1waHQnLCAnMi4wJywgJy1waCcsICc3LjAnLCAnLXRuJywgJzgnLCAnLW1hJywgJzIwMCcsICctaW1hZScsICc8aW5maWxlLm1hZT4nLCAnLW9tYWUnLCAnPG91dGZpbGUubWFlPic=

>  <r_epik_Ionization_Penalty>  (289) 
0.0567622

>  <r_epik_Ionization_Penalty_Charging>  (289) 
0.0567621

>  <r_epik_Ionization_Penalty_Neutral>  (289) 
1.66974e-07

>  <r_epik_State_Penalty>  (289) 
0.0489812

>  <r_epik_Charging_Adjusted_Penalty>  (289) 
0.105743

>  <i_epik_Tot_Q>  (289) 
1

>  <i_epik_Tot_abs_Q>  (289) 
1

>  <s_epik_Chemistry_Notes>  (289) 
This compound has an ester and may undergo hydrolysis at high or low pH.

>  <s_lp_Force_Field>  (289) 
OPLS3e

>  <r_lp_Energy>  (289) 
136.659

>  <b_lp_Chiralities_Consistent>  (289) 
1

>  <s_lp_Variant>  (289) 
94:0-2

>  <s_i_glide_gridfile>  (289) 
pfpi4k_grid

>  <i_i_glide_lignum>  (289) 
5

>  <i_i_glide_rotatable_bonds>  (289) 
6

>  <r_i_docking_score>  (289) 
-3.08564

>  <r_i_glide_ligand_efficiency>  (289) 
-0.071759

>  <r_i_glide_ligand_efficiency_sa>  (289) 
-0.2514

>  <r_i_glide_ligand_efficiency_ln>  (289) 
-0.64808

>  <r_i_glide_gscore>  (289) 
-3.08564

>  <r_i_glide_lipo>  (289) 
-0.397623

>  <r_i_glide_hbond>  (289) 
0

>  <r_i_glide_metal>  (289) 
-0

>  <r_i_glide_rewards>  (289) 
-0.661738

>  <r_i_glide_evdw>  (289) 
-30.04

>  <r_i_glide_ecoul>  (289) 
-3.9319

>  <r_i_glide_erotb>  (289) 
0.0655074

>  <r_i_glide_esite>  (289) 
0

>  <r_i_glide_emodel>  (289) 
-40.4652

>  <r_i_glide_energy>  (289) 
-33.9719

>  <r_i_glide_einternal>  (289) 
2.83452

>  <r_i_glide_intrahb_reward>  (289) 
-0.5

>  <i_i_glide_confnum>  (289) 
1

>  <i_i_glide_posenum>  (289) 
19

>  <r_i_glide_eff_state_penalty>  (289) 
0

>  <ligand_id>  (289) 
94

>  <original_smiles>  (289) 
CC(=C1C2C(O)CC3C2(C)C(=O)C2C(O)(CCC4(C)C(c5ccoc5)OC(=O)C5N(C)CCC524)C13C)C1(CC(C)C)CO1

>  <smiles>  (289) 
[H]OC1([H])C([H])([H])C2([H])C3(C([H])([H])[H])C(=O)C4([H])C(O[H])(C([H])([H])C([H])([H])C5(C([H])([H])[H])C([H])(c6c([H])oc([H])c6[H])OC(=O)C6([H])C45C([H])([H])C([H])([H])[N+]6([H])C([H])([H])[H])C2(C([H])([H])[H])C(=C(C([H])([H])[H])C2(C([H])([H])C([H])(C([H])([H])[H])C([H])([H])[H])OC2([H])[H])C13[H]

$$$$
94:1:2
     RDKit          3D

 91 98  0  0  1  0  0  0  0  0999 V2000
    0.6356   -9.2777    5.9903 C   0  0  0  0  0  0  0  0  0  0  0  0
    0.8206   -8.5114    4.6740 C   0  0  0  0  0  0  0  0  0  0  0  0
    1.3840   -7.2732    4.7201 C   0  0  0  0  0  0  0  0  0  0  0  0
    1.9043   -6.6138    5.9991 C   0  0  2  0  0  0  0  0  0  0  0  0
    0.7749   -5.6558    6.4440 C   0  0  1  0  0  0  0  0  0  0  0  0
    0.8978   -5.2379    7.7878 O   0  0  0  0  0  0  0  0  0  0  0  0
    0.9578   -4.4914    5.4554 C   0  0  0  0  0  0  0  0  0  0  0  0
    2.1031   -5.0050    4.5300 C   0  0  1  0  0  0  0  0  0  0  0  0
    3.0640   -5.7144    5.5108 C   0  0  1  0  0  0  0  0  0  0  0  0
    3.7022   -4.7901    6.5848 C   0  0  0  0  0  0  0  0  0  0  0  0
    4.2282   -6.5051    4.8351 C   0  0  0  0  0  0  0  0  0  0  0  0
    5.2809   -6.7177    5.4588 O   0  0  0  0  0  0  0  0  0  0  0  0
    4.0682   -7.0939    3.4187 C   0  0  1  0  0  0  0  0  0  0  0  0
    2.7893   -6.5758    2.6455 C   0  0  2  0  0  0  0  0  0  0  0  0
    2.3106   -7.6379    1.8707 O   0  0  0  0  0  0  0  0  0  0  0  0
    3.0621   -5.5122    1.5348 C   0  0  0  0  0  0  0  0  0  0  0  0
    4.4426   -5.5673    0.8360 C   0  0  0  0  0  0  0  0  0  0  0  0
    5.6078   -5.7069    1.8510 C   0  0  2  0  0  0  0  0  0  0  0  0
    5.4789   -4.4630    2.7935 C   0  0  0  0  0  0  0  0  0  0  0  0
    7.1050   -5.6412    1.3426 C   0  0  1  0  0  0  0  0  0  0  0  0
    7.4531   -4.4519    0.4536 C   0  0  0  0  0  0  0  0  0  0  0  0
    6.7574   -3.9422   -0.6864 C   0  0  0  0  0  0  0  0  0  0  0  0
    7.4832   -2.8919   -1.1638 C   0  0  0  0  0  0  0  0  0  0  0  0
    8.5950   -2.6975   -0.4080 O   0  0  0  0  0  0  0  0  0  0  0  0
    8.5663   -3.6570    0.5537 C   0  0  0  0  0  0  0  0  0  0  0  0
    7.9781   -5.7192    2.5161 O   0  0  0  0  0  0  0  0  0  0  0  0
    7.7988   -6.6744    3.5102 C   0  0  0  0  0  0  0  0  0  0  0  0
    8.4220   -6.7532    4.5595 O   0  0  0  0  0  0  0  0  0  0  0  0
    6.7540   -7.6764    3.0215 C   0  0  1  0  0  0  0  0  0  0  0  0
    6.5375   -8.9770    3.6328 N   0  0  2  0  0  0  0  0  0  0  0  0
    7.7249   -9.8029    4.0165 C   0  0  0  0  0  0  0  0  0  0  0  0
    5.6684   -9.5845    2.5929 C   0  0  0  0  0  0  0  0  0  0  0  0
    5.2538   -8.4130    1.6332 C   0  0  0  0  0  0  0  0  0  0  0  0
    5.3827   -7.1240    2.5097 C   0  0  1  0  0  0  0  0  0  0  0  0
    1.6270   -6.1974    3.6278 C   0  0  1  0  0  0  0  0  0  0  0  0
    0.3518   -5.7890    2.8744 C   0  0  0  0  0  0  0  0  0  0  0  0
    0.2868   -9.2645    3.4582 C   0  0  1  0  0  0  0  0  0  0  0  0
    1.1426  -10.3587    2.7822 C   0  0  0  0  0  0  0  0  0  0  0  0
    2.0031  -11.2311    3.7130 C   0  0  0  0  0  0  0  0  0  0  0  0
    3.0300  -12.0718    2.9352 C   0  0  0  0  0  0  0  0  0  0  0  0
    1.1246  -12.1648    4.5681 C   0  0  0  0  0  0  0  0  0  0  0  0
   -1.2279   -9.3999    3.3215 C   0  0  0  0  0  0  0  0  0  0  0  0
   -0.4944   -8.4699    2.5410 O   0  0  0  0  0  0  0  0  0  0  0  0
   -0.3169   -9.8058    5.9820 H   0  0  0  0  0  0  0  0  0  0  0  0
    0.6140   -8.6613    6.8932 H   0  0  0  0  0  0  0  0  0  0  0  0
    1.4416  -10.0027    6.1071 H   0  0  0  0  0  0  0  0  0  0  0  0
    2.2158   -7.3147    6.7725 H   0  0  0  0  0  0  0  0  0  0  0  0
   -0.2108   -6.1118    6.3261 H   0  0  0  0  0  0  0  0  0  0  0  0
    0.1982   -4.6343    7.9802 H   0  0  0  0  0  0  0  0  0  0  0  0
    0.0348   -4.2383    4.9322 H   0  0  0  0  0  0  0  0  0  0  0  0
    1.2604   -3.5749    5.9604 H   0  0  0  0  0  0  0  0  0  0  0  0
    2.5350   -4.1658    3.9833 H   0  0  0  0  0  0  0  0  0  0  0  0
    3.0270   -4.0929    7.0730 H   0  0  0  0  0  0  0  0  0  0  0  0
    4.4924   -4.1845    6.1419 H   0  0  0  0  0  0  0  0  0  0  0  0
    4.1540   -5.3841    7.3792 H   0  0  0  0  0  0  0  0  0  0  0  0
    3.8349   -8.1236    3.6786 H   0  0  0  0  0  0  0  0  0  0  0  0
    2.1218   -8.3602    2.4490 H   0  0  0  0  0  0  0  0  0  0  0  0
    2.3010   -5.5982    0.7588 H   0  0  0  0  0  0  0  0  0  0  0  0
    2.9177   -4.5066    1.9163 H   0  0  0  0  0  0  0  0  0  0  0  0
    4.4629   -6.3830    0.1103 H   0  0  0  0  0  0  0  0  0  0  0  0
    4.4912   -4.6379    0.2797 H   0  0  0  0  0  0  0  0  0  0  0  0
    6.2101   -4.4318    3.6007 H   0  0  0  0  0  0  0  0  0  0  0  0
    4.5361   -4.3697    3.3068 H   0  0  0  0  0  0  0  0  0  0  0  0
    5.5847   -3.5406    2.2230 H   0  0  0  0  0  0  0  0  0  0  0  0
    7.3001   -6.5091    0.7102 H   0  0  0  0  0  0  0  0  0  0  0  0
    5.8537   -4.3084   -1.1573 H   0  0  0  0  0  0  0  0  0  0  0  0
    7.3562   -2.2523   -2.0210 H   0  0  0  0  0  0  0  0  0  0  0  0
    9.4205   -3.6474    1.2168 H   0  0  0  0  0  0  0  0  0  0  0  0
    7.3527   -7.9798    2.1574 H   0  0  0  0  0  0  0  0  0  0  0  0
    8.4104   -9.9440    3.1754 H   0  0  0  0  0  0  0  0  0  0  0  0
    7.3663  -10.7836    4.3450 H   0  0  0  0  0  0  0  0  0  0  0  0
    8.2629   -9.3375    4.8549 H   0  0  0  0  0  0  0  0  0  0  0  0
    6.1672  -10.3789    2.0329 H   0  0  0  0  0  0  0  0  0  0  0  0
    4.8218   -9.9850    3.1425 H   0  0  0  0  0  0  0  0  0  0  0  0
    5.9366   -8.3668    0.7755 H   0  0  0  0  0  0  0  0  0  0  0  0
    4.2937   -8.6192    1.1833 H   0  0  0  0  0  0  0  0  0  0  0  0
    0.4502   -4.7329    2.6414 H   0  0  0  0  0  0  0  0  0  0  0  0
   -0.5329   -5.9373    3.4914 H   0  0  0  0  0  0  0  0  0  0  0  0
    0.1982   -6.2988    1.9245 H   0  0  0  0  0  0  0  0  0  0  0  0
    0.4671  -11.0097    2.2229 H   0  0  0  0  0  0  0  0  0  0  0  0
    1.7843   -9.9331    2.0139 H   0  0  0  0  0  0  0  0  0  0  0  0
    2.6016  -10.5743    4.3437 H   0  0  0  0  0  0  0  0  0  0  0  0
    2.5568  -12.7554    2.2293 H   0  0  0  0  0  0  0  0  0  0  0  0
    3.6002  -12.6982    3.6225 H   0  0  0  0  0  0  0  0  0  0  0  0
    3.7229  -11.4425    2.3873 H   0  0  0  0  0  0  0  0  0  0  0  0
    0.6054  -12.8716    3.9222 H   0  0  0  0  0  0  0  0  0  0  0  0
    0.3602  -11.6704    5.1698 H   0  0  0  0  0  0  0  0  0  0  0  0
    1.7883  -12.7060    5.2417 H   0  0  0  0  0  0  0  0  0  0  0  0
   -1.6495  -10.2114    2.7364 H   0  0  0  0  0  0  0  0  0  0  0  0
   -1.8834   -8.9447    4.0606 H   0  0  0  0  0  0  0  0  0  0  0  0
    5.9687   -8.8230    4.4597 H   0  0  0  0  0  0  0  0  0  0  0  0
  1  2  1  0
  1 44  1  0
  1 45  1  0
  1 46  1  0
  2  3  2  3
  2 37  1  0
  3 35  1  0
  3  4  1  0
  4  9  1  0
  4  5  1  0
  4 47  1  1
  5  6  1  0
  5  7  1  0
  5 48  1  1
  6 49  1  0
  7  8  1  0
  7 50  1  0
  7 51  1  0
  8 35  1  0
  8  9  1  0
  8 52  1  6
  9 10  1  1
  9 11  1  0
 10 53  1  0
 10 54  1  0
 10 55  1  0
 11 12  2  0
 11 13  1  0
 13 34  1  0
 13 14  1  0
 13 56  1  1
 14 15  1  6
 14 16  1  0
 14 35  1  0
 15 57  1  0
 16 17  1  0
 16 58  1  0
 16 59  1  0
 17 18  1  0
 17 60  1  0
 17 61  1  0
 18 34  1  0
 18 19  1  1
 18 20  1  0
 19 62  1  0
 19 63  1  0
 19 64  1  0
 20 21  1  0
 20 26  1  0
 20 65  1  6
 21 25  2  0
 21 22  1  0
 22 23  2  0
 22 66  1  0
 23 24  1  0
 23 67  1  0
 24 25  1  0
 25 68  1  0
 26 27  1  0
 27 28  2  0
 27 29  1  0
 29 34  1  0
 29 30  1  0
 29 69  1  6
 30 31  1  0
 30 32  1  0
 30 91  1  1
 31 70  1  0
 31 71  1  0
 31 72  1  0
 32 33  1  0
 32 73  1  0
 32 74  1  0
 34 33  1  6
 33 75  1  0
 33 76  1  0
 35 36  1  6
 36 77  1  0
 36 78  1  0
 36 79  1  0
 37 43  1  0
 37 38  1  6
 37 42  1  0
 38 39  1  0
 38 80  1  0
 38 81  1  0
 39 40  1  0
 39 41  1  0
 39 82  1  0
 40 83  1  0
 40 84  1  0
 40 85  1  0
 41 86  1  0
 41 87  1  0
 41 88  1  0
 42 43  1  0
 42 89  1  0
 42 90  1  0
M  CHG  1  30   1
M  END
>  <i_m_ct_stereo_status>  (290) 
1

>  <s_m_source_file>  (290) 
/var/tmp/pbs.5076255.sched01/tmp1uy3qkd6/1269t22etaf.sdf

>  <i_m_source_file_index>  (290) 
5

>  <i_lp_mmshare_version>  (290) 
48012

>  <i_f3d_flags>  (290) 
0

>  <s_epik_input>  (290) 
W0NIM11bQ0hdKFtDSDNdKVtDSDJdW0NAQF0xKFtDSDJdTzEpQyhcW0NIM10pPUMyL1tDQEhdKFtDQEBIXShbT0hdKVtDSDJdMylbQ0BAXShbQ0gzXSkoQzQ9TylbQ0BIXTNbQ0BAXTIoW0NIM10pW0NAQF0oW0NASF00W0NAQF01NjcpKFtPSF0pW0NIMl1bQ0gyXVtDQF01KFtDSDNdKVtDQEBIXShjOFtjSF1bY0hdb1tjSF04KU9DKD1PKVtDQEhdNk4oW0NIM10pW0NIMl1bQ0gyXTc=

>  <s_epik_cmdline>  (290) 
J2VwaWtfcHl0aG9uJywgJy1waHQnLCAnMi4wJywgJy1waCcsICc3LjAnLCAnLXRuJywgJzgnLCAnLW1hJywgJzIwMCcsICctaW1hZScsICc8aW5maWxlLm1hZT4nLCAnLW9tYWUnLCAnPG91dGZpbGUubWFlPic=

>  <r_epik_Ionization_Penalty>  (290) 
0.0567622

>  <r_epik_Ionization_Penalty_Charging>  (290) 
0.0567621

>  <r_epik_Ionization_Penalty_Neutral>  (290) 
1.66974e-07

>  <r_epik_State_Penalty>  (290) 
0.0489812

>  <r_epik_Charging_Adjusted_Penalty>  (290) 
0.105743

>  <i_epik_Tot_Q>  (290) 
1

>  <i_epik_Tot_abs_Q>  (290) 
1

>  <s_epik_Chemistry_Notes>  (290) 
This compound has an ester and may undergo hydrolysis at high or low pH.

>  <s_lp_Force_Field>  (290) 
OPLS3e

>  <r_lp_Energy>  (290) 
136.659

>  <b_lp_Chiralities_Consistent>  (290) 
1

>  <s_lp_Variant>  (290) 
94:0-2

>  <s_i_glide_gridfile>  (290) 
pfpi4k_grid

>  <i_i_glide_lignum>  (290) 
5

>  <i_i_glide_rotatable_bonds>  (290) 
6

>  <r_i_docking_score>  (290) 
-2.95663

>  <r_i_glide_ligand_efficiency>  (290) 
-0.0687588

>  <r_i_glide_ligand_efficiency_sa>  (290) 
-0.24089

>  <r_i_glide_ligand_efficiency_ln>  (290) 
-0.620984

>  <r_i_glide_gscore>  (290) 
-2.95663

>  <r_i_glide_lipo>  (290) 
-0.897048

>  <r_i_glide_hbond>  (290) 
0

>  <r_i_glide_metal>  (290) 
-0

>  <r_i_glide_rewards>  (290) 
-0.506233

>  <r_i_glide_evdw>  (290) 
-27.0222

>  <r_i_glide_ecoul>  (290) 
-1.78499

>  <r_i_glide_erotb>  (290) 
0.0655074

>  <r_i_glide_esite>  (290) 
0

>  <r_i_glide_emodel>  (290) 
-37.6786

>  <r_i_glide_energy>  (290) 
-28.8072

>  <r_i_glide_einternal>  (290) 
2.87034

>  <r_i_glide_intrahb_reward>  (290) 
-0.5

>  <i_i_glide_confnum>  (290) 
1

>  <i_i_glide_posenum>  (290) 
25

>  <r_i_glide_eff_state_penalty>  (290) 
0

>  <ligand_id>  (290) 
94

>  <original_smiles>  (290) 
CC(=C1C2C(O)CC3C2(C)C(=O)C2C(O)(CCC4(C)C(c5ccoc5)OC(=O)C5N(C)CCC524)C13C)C1(CC(C)C)CO1

>  <smiles>  (290) 
[H]OC1([H])C([H])([H])C2([H])C3(C([H])([H])[H])C(=O)C4([H])C(O[H])(C([H])([H])C([H])([H])C5(C([H])([H])[H])C([H])(c6c([H])oc([H])c6[H])OC(=O)C6([H])C45C([H])([H])C([H])([H])[N+]6([H])C([H])([H])[H])C2(C([H])([H])[H])C(=C(C([H])([H])[H])C2(C([H])([H])C([H])(C([H])([H])[H])C([H])([H])[H])OC2([H])[H])C13[H]

$$$$
95:0:0
     RDKit          3D

 50 54  0  0  1  0  0  0  0  0999 V2000
    4.0767   -3.6653    6.7982 C   0  0  0  0  0  0  0  0  0  0  0  0
    3.5079   -3.7722    5.5860 C   0  0  0  0  0  0  0  0  0  0  0  0
    2.0562   -3.8152    5.3626 C   0  0  0  0  0  0  0  0  0  0  0  0
    1.1707   -3.5582    6.1793 O   0  0  0  0  0  0  0  0  0  0  0  0
    1.8553   -4.1459    4.0775 O   0  0  0  0  0  0  0  0  0  0  0  0
    3.0488   -4.6112    3.4617 C   0  0  2  0  0  0  0  0  0  0  0  0
    4.1580   -3.9260    4.2417 C   0  0  2  0  0  0  0  0  0  0  0  0
    5.4257   -4.7770    4.1270 C   0  0  0  0  0  0  0  0  0  0  0  0
    5.7910   -5.0578    2.6418 C   0  0  2  0  0  0  0  0  0  0  0  0
    6.6370   -6.3379    2.6121 C   0  0  0  0  0  0  0  0  0  0  0  0
    6.4460   -3.8885    1.8921 C   0  0  0  0  0  0  0  0  0  0  0  0
    5.6259   -4.1835    0.6502 C   0  0  2  0  0  0  0  0  0  0  0  0
    5.1332   -2.9855   -0.1223 C   0  0  2  0  0  0  0  0  0  0  0  0
    3.8370   -3.3403   -0.8062 C   0  0  1  0  0  0  0  0  0  0  0  0
    2.6983   -2.7387   -0.0204 C   0  0  0  0  0  0  0  0  0  0  0  0
    2.8249   -3.0199    1.4988 C   0  0  0  0  0  0  0  0  0  0  0  0
    3.1933   -4.4782    1.9369 C   0  0  2  0  0  0  0  0  0  0  0  0
    2.1431   -5.4444    1.3440 C   0  0  0  0  0  0  0  0  0  0  0  0
    4.6500   -4.9723    1.5663 C   0  0  2  0  0  0  0  0  0  0  0  0
    4.9610   -2.7186   -1.5933 C   0  0  0  0  0  0  0  0  0  0  0  0
    4.8318   -1.2879   -2.0796 C   0  0  0  0  0  0  0  0  0  0  0  0
    5.7237   -3.5618   -2.5895 C   0  0  0  0  0  0  0  0  0  0  0  0
    5.1484   -3.6459    6.9235 H   0  0  0  0  0  0  0  0  0  0  0  0
    3.4632   -3.5808    7.6862 H   0  0  0  0  0  0  0  0  0  0  0  0
    3.1011   -5.6765    3.7023 H   0  0  0  0  0  0  0  0  0  0  0  0
    4.3492   -2.9174    3.8778 H   0  0  0  0  0  0  0  0  0  0  0  0
    6.2347   -4.2570    4.6389 H   0  0  0  0  0  0  0  0  0  0  0  0
    5.2841   -5.7136    4.6728 H   0  0  0  0  0  0  0  0  0  0  0  0
    6.9678   -6.5739    1.6021 H   0  0  0  0  0  0  0  0  0  0  0  0
    6.0835   -7.2030    2.9749 H   0  0  0  0  0  0  0  0  0  0  0  0
    7.5355   -6.2363    3.2198 H   0  0  0  0  0  0  0  0  0  0  0  0
    6.2046   -2.9160    2.3294 H   0  0  0  0  0  0  0  0  0  0  0  0
    7.5154   -3.9975    1.7062 H   0  0  0  0  0  0  0  0  0  0  0  0
    6.1743   -4.8925    0.0230 H   0  0  0  0  0  0  0  0  0  0  0  0
    5.1876   -2.0592    0.4534 H   0  0  0  0  0  0  0  0  0  0  0  0
    3.6561   -4.3848   -1.0677 H   0  0  0  0  0  0  0  0  0  0  0  0
    2.6508   -1.6627   -0.1759 H   0  0  0  0  0  0  0  0  0  0  0  0
    1.7774   -3.1564   -0.4179 H   0  0  0  0  0  0  0  0  0  0  0  0
    3.5403   -2.3202    1.9244 H   0  0  0  0  0  0  0  0  0  0  0  0
    1.8737   -2.7315    1.9508 H   0  0  0  0  0  0  0  0  0  0  0  0
    2.1900   -5.4996    0.2571 H   0  0  0  0  0  0  0  0  0  0  0  0
    1.1425   -5.1319    1.6331 H   0  0  0  0  0  0  0  0  0  0  0  0
    2.2656   -6.4594    1.7235 H   0  0  0  0  0  0  0  0  0  0  0  0
    4.5712   -5.9718    1.1354 H   0  0  0  0  0  0  0  0  0  0  0  0
    4.2660   -1.2531   -3.0109 H   0  0  0  0  0  0  0  0  0  0  0  0
    5.8115   -0.8560   -2.2441 H   0  0  0  0  0  0  0  0  0  0  0  0
    4.3248   -0.6755   -1.3321 H   0  0  0  0  0  0  0  0  0  0  0  0
    5.2466   -3.5436   -3.5697 H   0  0  0  0  0  0  0  0  0  0  0  0
    5.7199   -4.5908   -2.2351 H   0  0  0  0  0  0  0  0  0  0  0  0
    6.7555   -3.2209   -2.6781 H   0  0  0  0  0  0  0  0  0  0  0  0
  1  2  2  0
  1 23  1  0
  1 24  1  0
  2  7  1  0
  2  3  1  0
  3  4  2  0
  3  5  1  0
  5  6  1  0
  6 17  1  0
  6  7  1  0
  6 25  1  6
  7  8  1  0
  7 26  1  6
  8  9  1  0
  8 27  1  0
  8 28  1  0
  9 19  1  0
  9 10  1  1
  9 11  1  0
 10 29  1  0
 10 30  1  0
 10 31  1  0
 11 12  1  0
 11 32  1  0
 11 33  1  0
 12 19  1  0
 12 13  1  0
 12 34  1  6
 13 20  1  0
 13 14  1  0
 13 35  1  1
 14 15  1  0
 14 20  1  0
 14 36  1  6
 15 16  1  0
 15 37  1  0
 15 38  1  0
 16 17  1  0
 16 39  1  0
 16 40  1  0
 17 18  1  6
 17 19  1  0
 18 41  1  0
 18 42  1  0
 18 43  1  0
 19 44  1  6
 20 21  1  0
 20 22  1  0
 21 45  1  0
 21 46  1  0
 21 47  1  0
 22 48  1  0
 22 49  1  0
 22 50  1  0
M  END
>  <i_m_ct_stereo_status>  (291) 
1

>  <s_m_source_file>  (291) 
/var/tmp/pbs.5076255.sched01/tmp1uy3qkd6/1269t22etaf.sdf

>  <i_m_source_file_index>  (291) 
8

>  <i_lp_mmshare_version>  (291) 
48012

>  <i_f3d_flags>  (291) 
0

>  <s_epik_input>  (291) 
Tz1DKE8xKUMoPVtDSDJdKVtDQEBIXShbQ0gyXTIpW0NAQEhdMVtDQEBdMyhbQ0gzXSlbQ0gyXVtDSDJdW0NAQEhdKEM0KFtDSDNdKVtDSDNdKVtDQEhdNFtDQEBIXShbQ0gyXTUpW0NASF0zW0NAXTI1W0NIM10=

>  <s_epik_cmdline>  (291) 
J2VwaWtfcHl0aG9uJywgJy1waHQnLCAnMi4wJywgJy1waCcsICc3LjAnLCAnLXRuJywgJzgnLCAnLW1hJywgJzIwMCcsICctaW1hZScsICc8aW5maWxlLm1hZT4nLCAnLW9tYWUnLCAnPG91dGZpbGUubWFlPic=

>  <r_lp_tautomer_probability>  (291) 
1

>  <r_epik_Ionization_Penalty>  (291) 
0

>  <r_epik_Ionization_Penalty_Charging>  (291) 
0

>  <r_epik_Ionization_Penalty_Neutral>  (291) 
0

>  <r_epik_State_Penalty>  (291) 
-0

>  <r_epik_Charging_Adjusted_Penalty>  (291) 
0

>  <i_epik_Tot_Q>  (291) 
0

>  <i_epik_Tot_abs_Q>  (291) 
0

>  <s_epik_Chemistry_Notes>  (291) 
This compound has an ester and may undergo hydrolysis at high or low pH.

>  <s_lp_Force_Field>  (291) 
OPLS3e

>  <r_lp_Energy>  (291) 
65.5568

>  <b_lp_Chiralities_Consistent>  (291) 
1

>  <s_lp_Variant>  (291) 
95:0-1

>  <s_i_glide_gridfile>  (291) 
pfpi4k_grid

>  <i_i_glide_lignum>  (291) 
8

>  <i_i_glide_rotatable_bonds>  (291) 
0

>  <r_i_docking_score>  (291) 
-2.4702

>  <r_i_glide_ligand_efficiency>  (291) 
-0.112282

>  <r_i_glide_ligand_efficiency_sa>  (291) 
-0.314618

>  <r_i_glide_ligand_efficiency_ln>  (291) 
-0.603806

>  <r_i_glide_gscore>  (291) 
-2.4702

>  <r_i_glide_lipo>  (291) 
-0.464872

>  <r_i_glide_hbond>  (291) 
0

>  <r_i_glide_metal>  (291) 
-0

>  <r_i_glide_rewards>  (291) 
-1.36069

>  <r_i_glide_evdw>  (291) 
-12.7814

>  <r_i_glide_ecoul>  (291) 
-0.0371005

>  <r_i_glide_erotb>  (291) 
0

>  <r_i_glide_esite>  (291) 
0

>  <r_i_glide_emodel>  (291) 
-14.4926

>  <r_i_glide_energy>  (291) 
-12.8185

>  <r_i_glide_einternal>  (291) 
0

>  <r_i_glide_intrahb_reward>  (291) 
-0

>  <i_i_glide_confnum>  (291) 
2

>  <i_i_glide_posenum>  (291) 
1

>  <r_i_glide_eff_state_penalty>  (291) 
0

>  <ligand_id>  (291) 
95

>  <original_smiles>  (291) 
C=C1C(=O)OC2C1CC1(C)CC3C4C(CCC2(C)C31)C4(C)C

>  <smiles>  (291) 
[H]C([H])=C1C(=O)OC2([H])C1([H])C([H])([H])C1(C([H])([H])[H])C([H])([H])C3([H])C1([H])C2(C([H])([H])[H])C([H])([H])C([H])([H])C1([H])C3([H])C1(C([H])([H])[H])C([H])([H])[H]

$$$$
96:0:0
     RDKit          3D

 79 86  0  0  1  0  0  0  0  0999 V2000
    6.1962   -6.2076    2.3522 C   0  0  0  0  0  0  0  0  0  0  0  0
    5.0326   -5.2242    1.9844 C   0  0  2  0  0  0  0  0  0  0  0  0
    5.3410   -3.7724    2.4387 C   0  0  1  0  0  0  0  0  0  0  0  0
    5.4156   -3.6662    3.9770 C   0  0  0  0  0  0  0  0  0  0  0  0
    4.1511   -4.0833    4.6763 C   0  0  0  0  0  0  0  0  0  0  0  0
    3.7519   -5.5067    4.2569 C   0  0  2  0  0  0  0  0  0  0  0  0
    3.6843   -5.6236    2.7023 C   0  0  2  0  0  0  0  0  0  0  0  0
    3.1086   -6.9966    2.3012 C   0  0  0  0  0  0  0  0  0  0  0  0
    1.7745   -7.2909    2.9919 C   0  0  0  0  0  0  0  0  0  0  0  0
    1.8624   -7.2940    4.5378 C   0  0  2  0  0  0  0  0  0  0  0  0
    2.6885   -8.5271    4.9858 C   0  0  0  0  0  0  0  0  0  0  0  0
    0.4171   -7.2619    5.1125 C   0  0  1  0  0  0  0  0  0  0  0  0
    0.2700   -7.8904    6.4959 C   0  0  0  0  0  0  0  0  0  0  0  0
   -0.0222   -9.3474    6.6451 C   0  0  0  0  0  0  0  0  0  0  0  0
   -0.0643   -9.4871    8.0508 O   0  0  0  0  0  0  0  0  0  0  0  0
    0.0797   -8.3278    8.6951 C   0  0  0  0  0  0  0  0  0  0  0  0
   -0.0216   -8.1649    9.9102 O   0  0  0  0  0  0  0  0  0  0  0  0
    0.3020   -7.2908    7.6920 C   0  0  0  0  0  0  0  0  0  0  0  0
    0.0091   -5.7797    5.0787 C   0  0  0  0  0  0  0  0  0  0  0  0
    1.2886   -4.9517    4.9179 C   0  0  0  0  0  0  0  0  0  0  0  0
    2.4614   -5.9428    5.0023 C   0  0  2  0  0  0  0  0  0  0  0  0
    2.7939   -6.0331    6.3758 O   0  0  0  0  0  0  0  0  0  0  0  0
    6.5610   -3.1561    1.7032 C   0  0  0  0  0  0  0  0  0  0  0  0
    6.4100   -3.0521    0.2236 C   0  0  1  0  0  0  0  0  0  0  0  0
    6.0203   -4.4222   -0.3185 C   0  0  2  0  0  0  0  0  0  0  0  0
    5.7468   -4.2551   -1.7125 O   0  0  0  0  0  0  0  0  0  0  0  0
    4.5962   -3.5414   -2.0876 C   0  0  2  0  0  0  0  0  0  0  0  0
    4.5437   -3.3276   -3.6105 C   0  0  1  0  0  0  0  0  0  0  0  0
    4.4385   -4.5343   -4.3104 O   0  0  0  0  0  0  0  0  0  0  0  0
    3.2981   -2.5264   -3.9818 C   0  0  0  0  0  0  0  0  0  0  0  0
    3.2385   -1.1884   -3.2340 C   0  0  0  0  0  0  0  0  0  0  0  0
    3.4271   -1.4261   -1.7257 C   0  0  0  0  0  0  0  0  0  0  0  0
    4.6300   -2.1958   -1.4059 C   0  0  2  0  0  0  0  0  0  0  0  0
    5.8383   -1.4499   -1.5286 O   0  0  0  0  0  0  0  0  0  0  0  0
    5.4969   -1.9623   -0.2120 C   0  0  2  0  0  0  0  0  0  0  0  0
    4.8517   -5.1268    0.4382 C   0  0  1  0  0  0  0  0  0  0  0  0
    4.7674   -6.4194   -0.1031 O   0  0  0  0  0  0  0  0  0  0  0  0
    7.1345   -5.9685    1.8501 H   0  0  0  0  0  0  0  0  0  0  0  0
    5.9670   -7.2388    2.0850 H   0  0  0  0  0  0  0  0  0  0  0  0
    6.4244   -6.2219    3.4161 H   0  0  0  0  0  0  0  0  0  0  0  0
    4.4949   -3.1442    2.1601 H   0  0  0  0  0  0  0  0  0  0  0  0
    6.1874   -4.3185    4.3836 H   0  0  0  0  0  0  0  0  0  0  0  0
    5.6879   -2.6493    4.2612 H   0  0  0  0  0  0  0  0  0  0  0  0
    4.3426   -4.0336    5.7497 H   0  0  0  0  0  0  0  0  0  0  0  0
    3.3853   -3.3505    4.4328 H   0  0  0  0  0  0  0  0  0  0  0  0
    4.5371   -6.1870    4.5863 H   0  0  0  0  0  0  0  0  0  0  0  0
    2.9565   -4.8894    2.3635 H   0  0  0  0  0  0  0  0  0  0  0  0
    2.8926   -7.0190    1.2366 H   0  0  0  0  0  0  0  0  0  0  0  0
    3.8231   -7.7966    2.4942 H   0  0  0  0  0  0  0  0  0  0  0  0
    1.0524   -6.5476    2.6525 H   0  0  0  0  0  0  0  0  0  0  0  0
    1.3963   -8.2499    2.6383 H   0  0  0  0  0  0  0  0  0  0  0  0
    2.7475   -8.6301    6.0700 H   0  0  0  0  0  0  0  0  0  0  0  0
    3.7142   -8.4809    4.6250 H   0  0  0  0  0  0  0  0  0  0  0  0
    2.2500   -9.4473    4.5976 H   0  0  0  0  0  0  0  0  0  0  0  0
   -0.2614   -7.8271    4.4726 H   0  0  0  0  0  0  0  0  0  0  0  0
    0.7277  -10.0033    6.2118 H   0  0  0  0  0  0  0  0  0  0  0  0
   -0.9898   -9.5631    6.2017 H   0  0  0  0  0  0  0  0  0  0  0  0
    0.4647   -6.2516    7.9218 H   0  0  0  0  0  0  0  0  0  0  0  0
   -0.6155   -5.6133    4.2044 H   0  0  0  0  0  0  0  0  0  0  0  0
   -0.5731   -5.4676    5.9452 H   0  0  0  0  0  0  0  0  0  0  0  0
    1.2667   -4.4727    3.9394 H   0  0  0  0  0  0  0  0  0  0  0  0
    1.3584   -4.1521    5.6580 H   0  0  0  0  0  0  0  0  0  0  0  0
    3.4241   -6.7256    6.4731 H   0  0  0  0  0  0  0  0  0  0  0  0
    6.7369   -2.1442    2.0684 H   0  0  0  0  0  0  0  0  0  0  0  0
    7.4364   -3.7743    1.8722 H   0  0  0  0  0  0  0  0  0  0  0  0
    7.3899   -2.7774   -0.1738 H   0  0  0  0  0  0  0  0  0  0  0  0
    6.9111   -5.0295   -0.2567 H   0  0  0  0  0  0  0  0  0  0  0  0
    3.6850   -4.0773   -1.7746 H   0  0  0  0  0  0  0  0  0  0  0  0
    5.4481   -2.7933   -3.8694 H   0  0  0  0  0  0  0  0  0  0  0  0
    3.9420   -5.1341   -3.7764 H   0  0  0  0  0  0  0  0  0  0  0  0
    3.3043   -2.3228   -5.0422 H   0  0  0  0  0  0  0  0  0  0  0  0
    2.3884   -3.0955   -3.7771 H   0  0  0  0  0  0  0  0  0  0  0  0
    4.0138   -0.5060   -3.6110 H   0  0  0  0  0  0  0  0  0  0  0  0
    2.2840   -0.7170   -3.4125 H   0  0  0  0  0  0  0  0  0  0  0  0
    3.5331   -0.4980   -1.1976 H   0  0  0  0  0  0  0  0  0  0  0  0
    2.6112   -2.0065   -1.3243 H   0  0  0  0  0  0  0  0  0  0  0  0
    5.1752   -1.2292    0.5239 H   0  0  0  0  0  0  0  0  0  0  0  0
    3.9080   -4.6192    0.2470 H   0  0  0  0  0  0  0  0  0  0  0  0
    4.5662   -6.3362   -1.0218 H   0  0  0  0  0  0  0  0  0  0  0  0
  2  1  1  6
  1 38  1  0
  1 39  1  0
  1 40  1  0
  2  7  1  0
  2 36  1  0
  2  3  1  0
  3  4  1  0
  3 23  1  0
  3 41  1  6
  4  5  1  0
  4 42  1  0
  4 43  1  0
  5  6  1  0
  5 44  1  0
  5 45  1  0
  6 21  1  0
  6  7  1  0
  6 46  1  1
  7  8  1  0
  7 47  1  6
  8  9  1  0
  8 48  1  0
  8 49  1  0
  9 10  1  0
  9 50  1  0
  9 51  1  0
 10 21  1  0
 10 11  1  6
 10 12  1  0
 11 52  1  0
 11 53  1  0
 11 54  1  0
 12 19  1  0
 12 55  1  6
 12 13  1  0
 13 18  2  0
 13 14  1  0
 14 15  1  0
 14 56  1  0
 14 57  1  0
 15 16  1  0
 16 18  1  0
 16 17  2  0
 18 58  1  0
 19 20  1  0
 19 59  1  0
 19 60  1  0
 20 21  1  0
 20 61  1  0
 20 62  1  0
 21 22  1  1
 22 63  1  0
 23 24  1  0
 23 64  1  0
 23 65  1  0
 24 35  1  0
 24 25  1  0
 24 66  1  6
 25 26  1  0
 25 36  1  0
 25 67  1  6
 26 27  1  0
 27 33  1  0
 27 28  1  0
 27 68  1  1
 28 29  1  0
 28 30  1  0
 28 69  1  6
 29 70  1  0
 30 31  1  0
 30 71  1  0
 30 72  1  0
 31 32  1  0
 31 73  1  0
 31 74  1  0
 32 33  1  0
 32 75  1  0
 32 76  1  0
 33 35  1  0
 33 34  1  6
 34 35  1  0
 35 77  1  1
 36 37  1  0
 36 78  1  1
 37 79  1  0
M  END
>  <i_m_ct_stereo_status>  (292) 
1

>  <s_m_source_file>  (292) 
/var/tmp/pbs.5076255.sched01/tmp1uy3qkd6/1269t22etaf.sdf

>  <i_m_source_file_index>  (292) 
9

>  <i_lp_mmshare_version>  (292) 
48012

>  <i_f3d_flags>  (292) 
0

>  <s_epik_input>  (292) 
W0NIMl0xW0NIMl1bQ0gyXVtDQEhdKFtPSF0pW0NASF0oW0NAXTEyMylPW0NASF00W0NAQEhdKFtDQEhdM08yKVtDSDJdW0NASF01W0NAXShbQ0gzXSkoW0NAQEhdNFtPSF0pW0NAQEhdNltDQEBIXShbQ0gyXVtDSDJdNSlbQ0BdNyhbT0hdKVtDQF0oW0NIM10pKFtDSDJdW0NIMl02KVtDQEhdKFtDSDJdW0NIMl03KWM4W2NIXW9jKFtPSF0pW2NIXTg=

>  <s_epik_cmdline>  (292) 
J2VwaWtfcHl0aG9uJywgJy1waHQnLCAnMi4wJywgJy1waCcsICc3LjAnLCAnLXRuJywgJzgnLCAnLW1hJywgJzIwMCcsICctaW1hZScsICc8aW5maWxlLm1hZT4nLCAnLW9tYWUnLCAnPG91dGZpbGUubWFlPic=

>  <r_lp_tautomer_probability>  (292) 
1

>  <r_epik_Ionization_Penalty>  (292) 
5.5548e-07

>  <r_epik_Ionization_Penalty_Charging>  (292) 
0

>  <r_epik_Ionization_Penalty_Neutral>  (292) 
5.5548e-07

>  <r_epik_State_Penalty>  (292) 
-0

>  <r_epik_Charging_Adjusted_Penalty>  (292) 
0

>  <i_epik_Tot_Q>  (292) 
0

>  <i_epik_Tot_abs_Q>  (292) 
0

>  <s_epik_Chemistry_Notes>  (292) 
This compound has an ester and may undergo hydrolysis at high or low pH.

>  <s_lp_Force_Field>  (292) 
OPLS3e

>  <r_lp_Energy>  (292) 
62.4601

>  <b_lp_Chiralities_Consistent>  (292) 
1

>  <s_lp_Variant>  (292) 
96:0-1

>  <s_i_glide_gridfile>  (292) 
pfpi4k_grid

>  <i_i_glide_lignum>  (292) 
9

>  <i_i_glide_rotatable_bonds>  (292) 
4

>  <r_i_docking_score>  (292) 
-3.63645

>  <r_i_glide_ligand_efficiency>  (292) 
-0.0982825

>  <r_i_glide_ligand_efficiency_sa>  (292) 
-0.327499

>  <r_i_glide_ligand_efficiency_ln>  (292) 
-0.788661

>  <r_i_glide_gscore>  (292) 
-3.63645

>  <r_i_glide_lipo>  (292) 
-0.70952

>  <r_i_glide_hbond>  (292) 
-0.347981

>  <r_i_glide_metal>  (292) 
-0

>  <r_i_glide_rewards>  (292) 
0

>  <r_i_glide_evdw>  (292) 
-18.0911

>  <r_i_glide_ecoul>  (292) 
-11.3656

>  <r_i_glide_erotb>  (292) 
0.0774508

>  <r_i_glide_esite>  (292) 
-0.0470025

>  <r_i_glide_emodel>  (292) 
-36.182

>  <r_i_glide_energy>  (292) 
-29.4567

>  <r_i_glide_einternal>  (292) 
1.31746

>  <r_i_glide_intrahb_reward>  (292) 
-0

>  <i_i_glide_confnum>  (292) 
1

>  <i_i_glide_posenum>  (292) 
5

>  <r_i_glide_eff_state_penalty>  (292) 
0

>  <ligand_id>  (292) 
96

>  <original_smiles>  (292) 
CC12C(CCC3C1CCC1(C)C(c4coc(O)c4)CCC31O)CC1C(OC3C(O)CCCC34OC14)C2O

>  <smiles>  (292) 
[H]OC1([H])C([H])([H])C([H])([H])C([H])([H])C23OC2([H])C2([H])C([H])([H])C4([H])C([H])([H])C([H])([H])C5([H])C([H])(C([H])([H])C([H])([H])C6(C([H])([H])[H])C([H])(C7=C([H])C(=O)OC7([H])[H])C([H])([H])C([H])([H])C56O[H])C4(C([H])([H])[H])C([H])(O[H])C2([H])OC13[H]

$$$$
96:0:1
     RDKit          3D

 79 86  0  0  1  0  0  0  0  0999 V2000
    1.5586   -2.9786    7.6900 C   0  0  0  0  0  0  0  0  0  0  0  0
    1.8781   -3.4499    6.2382 C   0  0  2  0  0  0  0  0  0  0  0  0
    3.3652   -3.9048    6.1119 C   0  0  1  0  0  0  0  0  0  0  0  0
    4.3700   -2.7718    6.3731 C   0  0  0  0  0  0  0  0  0  0  0  0
    4.1460   -1.6124    5.4000 C   0  0  0  0  0  0  0  0  0  0  0  0
    2.6922   -1.0931    5.4159 C   0  0  2  0  0  0  0  0  0  0  0  0
    1.6882   -2.2698    5.1969 C   0  0  2  0  0  0  0  0  0  0  0  0
    0.2474   -1.7215    5.0760 C   0  0  0  0  0  0  0  0  0  0  0  0
    0.1320   -0.6073    4.0199 C   0  0  0  0  0  0  0  0  0  0  0  0
    1.0437    0.6176    4.2943 C   0  0  2  0  0  0  0  0  0  0  0  0
    0.5035    1.3447    5.5505 C   0  0  0  0  0  0  0  0  0  0  0  0
    1.0831    1.5066    3.0091 C   0  0  1  0  0  0  0  0  0  0  0  0
    1.3347    3.0027    3.2429 C   0  0  0  0  0  0  0  0  0  0  0  0
    0.2341    3.9342    3.6793 C   0  0  0  0  0  0  0  0  0  0  0  0
    0.8808    5.1970    3.7227 O   0  0  0  0  0  0  0  0  0  0  0  0
    2.1733    5.1094    3.3320 C   0  0  0  0  0  0  0  0  0  0  0  0
    2.9793    6.0367    3.2839 O   0  0  0  0  0  0  0  0  0  0  0  0
    2.4486    3.7074    3.0144 C   0  0  0  0  0  0  0  0  0  0  0  0
    2.1356    0.8252    2.1015 C   0  0  0  0  0  0  0  0  0  0  0  0
    2.9760   -0.1077    2.9935 C   0  0  0  0  0  0  0  0  0  0  0  0
    2.5064    0.1191    4.4447 C   0  0  2  0  0  0  0  0  0  0  0  0
    3.3048    1.1755    4.9473 O   0  0  0  0  0  0  0  0  0  0  0  0
    3.7172   -5.1414    6.9522 C   0  0  0  0  0  0  0  0  0  0  0  0
    2.8739   -6.3566    6.5593 C   0  0  1  0  0  0  0  0  0  0  0  0
    1.3677   -6.0308    6.6114 C   0  0  2  0  0  0  0  0  0  0  0  0
    0.6184   -7.1462    6.1131 O   0  0  0  0  0  0  0  0  0  0  0  0
    0.7444   -7.4842    4.7198 C   0  0  2  0  0  0  0  0  0  0  0  0
    0.0207   -8.8104    4.4064 C   0  0  1  0  0  0  0  0  0  0  0  0
   -1.3666   -8.6444    4.6486 O   0  0  0  0  0  0  0  0  0  0  0  0
    0.1718   -9.1449    2.9076 C   0  0  0  0  0  0  0  0  0  0  0  0
    1.6446   -9.1569    2.4611 C   0  0  0  0  0  0  0  0  0  0  0  0
    2.3863   -7.8661    2.8518 C   0  0  0  0  0  0  0  0  0  0  0  0
    2.2132   -7.5629    4.3285 C   0  0  2  0  0  0  0  0  0  0  0  0
    3.0083   -8.4011    5.1641 O   0  0  0  0  0  0  0  0  0  0  0  0
    3.2720   -6.9809    5.2360 C   0  0  2  0  0  0  0  0  0  0  0  0
    0.9892   -4.7018    5.8830 C   0  0  1  0  0  0  0  0  0  0  0  0
   -0.3639   -4.4912    6.2395 O   0  0  0  0  0  0  0  0  0  0  0  0
    1.6558   -3.7873    8.4145 H   0  0  0  0  0  0  0  0  0  0  0  0
    0.5442   -2.5974    7.7877 H   0  0  0  0  0  0  0  0  0  0  0  0
    2.2164   -2.1800    8.0285 H   0  0  0  0  0  0  0  0  0  0  0  0
    3.5237   -4.1997    5.0735 H   0  0  0  0  0  0  0  0  0  0  0  0
    4.3115   -2.4192    7.4037 H   0  0  0  0  0  0  0  0  0  0  0  0
    5.3865   -3.1427    6.2393 H   0  0  0  0  0  0  0  0  0  0  0  0
    4.8417   -0.8101    5.6493 H   0  0  0  0  0  0  0  0  0  0  0  0
    4.4087   -1.9488    4.3953 H   0  0  0  0  0  0  0  0  0  0  0  0
    2.5052   -0.6948    6.4121 H   0  0  0  0  0  0  0  0  0  0  0  0
    1.9134   -2.6935    4.2186 H   0  0  0  0  0  0  0  0  0  0  0  0
   -0.4315   -2.5113    4.7594 H   0  0  0  0  0  0  0  0  0  0  0  0
   -0.1197   -1.3599    6.0341 H   0  0  0  0  0  0  0  0  0  0  0  0
    0.3657   -1.0466    3.0473 H   0  0  0  0  0  0  0  0  0  0  0  0
   -0.9081   -0.2870    3.9456 H   0  0  0  0  0  0  0  0  0  0  0  0
    1.0769    2.2400    5.7859 H   0  0  0  0  0  0  0  0  0  0  0  0
    0.5519    0.7223    6.4396 H   0  0  0  0  0  0  0  0  0  0  0  0
   -0.5380    1.6319    5.4129 H   0  0  0  0  0  0  0  0  0  0  0  0
    0.1229    1.4750    2.4896 H   0  0  0  0  0  0  0  0  0  0  0  0
   -0.1579    3.6877    4.6621 H   0  0  0  0  0  0  0  0  0  0  0  0
   -0.5840    3.9338    2.9629 H   0  0  0  0  0  0  0  0  0  0  0  0
    3.4001    3.3633    2.6409 H   0  0  0  0  0  0  0  0  0  0  0  0
    1.6347    0.2304    1.3356 H   0  0  0  0  0  0  0  0  0  0  0  0
    2.7636    1.5255    1.5573 H   0  0  0  0  0  0  0  0  0  0  0  0
    2.7847   -1.1356    2.6872 H   0  0  0  0  0  0  0  0  0  0  0  0
    4.0474    0.0639    2.8655 H   0  0  0  0  0  0  0  0  0  0  0  0
    3.2373    1.9027    4.3467 H   0  0  0  0  0  0  0  0  0  0  0  0
    4.7735   -5.3903    6.8535 H   0  0  0  0  0  0  0  0  0  0  0  0
    3.5583   -4.9335    8.0106 H   0  0  0  0  0  0  0  0  0  0  0  0
    3.0687   -7.1294    7.3060 H   0  0  0  0  0  0  0  0  0  0  0  0
    1.1004   -5.9359    7.6625 H   0  0  0  0  0  0  0  0  0  0  0  0
    0.2813   -6.7011    4.1196 H   0  0  0  0  0  0  0  0  0  0  0  0
    0.4145   -9.6222    5.0237 H   0  0  0  0  0  0  0  0  0  0  0  0
   -1.7139   -9.5332    4.8468 H   0  0  0  0  0  0  0  0  0  0  0  0
   -0.2909  -10.1063    2.6853 H   0  0  0  0  0  0  0  0  0  0  0  0
   -0.3660   -8.4082    2.3123 H   0  0  0  0  0  0  0  0  0  0  0  0
    2.1459  -10.0198    2.9026 H   0  0  0  0  0  0  0  0  0  0  0  0
    1.7007   -9.2971    1.3790 H   0  0  0  0  0  0  0  0  0  0  0  0
    3.4485   -7.9814    2.6319 H   0  0  0  0  0  0  0  0  0  0  0  0
    2.0285   -7.0176    2.2671 H   0  0  0  0  0  0  0  0  0  0  0  0
    4.2171   -6.6727    4.7977 H   0  0  0  0  0  0  0  0  0  0  0  0
    1.0505   -4.8349    4.8056 H   0  0  0  0  0  0  0  0  0  0  0  0
   -0.8248   -5.3006    6.0650 H   0  0  0  0  0  0  0  0  0  0  0  0
  2  1  1  1
  1 38  1  0
  1 39  1  0
  1 40  1  0
  2  7  1  0
  2 36  1  0
  2  3  1  0
  3  4  1  0
  3 23  1  0
  3 41  1  6
  4  5  1  0
  4 42  1  0
  4 43  1  0
  5  6  1  0
  5 44  1  0
  5 45  1  0
  6 21  1  0
  6  7  1  0
  6 46  1  1
  7  8  1  0
  7 47  1  6
  8  9  1  0
  8 48  1  0
  8 49  1  0
  9 10  1  0
  9 50  1  0
  9 51  1  0
 10 21  1  0
 10 11  1  1
 10 12  1  0
 11 52  1  0
 11 53  1  0
 11 54  1  0
 12 19  1  0
 12 55  1  6
 12 13  1  0
 13 18  2  0
 13 14  1  0
 14 15  1  0
 14 56  1  0
 14 57  1  0
 15 16  1  0
 16 18  1  0
 16 17  2  0
 18 58  1  0
 19 20  1  0
 19 59  1  0
 19 60  1  0
 20 21  1  0
 20 61  1  0
 20 62  1  0
 21 22  1  1
 22 63  1  0
 23 24  1  0
 23 64  1  0
 23 65  1  0
 24 35  1  0
 24 25  1  0
 24 66  1  1
 25 26  1  0
 25 36  1  0
 25 67  1  1
 26 27  1  0
 27 33  1  0
 27 28  1  0
 27 68  1  6
 28 29  1  0
 28 30  1  0
 28 69  1  1
 29 70  1  0
 30 31  1  0
 30 71  1  0
 30 72  1  0
 31 32  1  0
 31 73  1  0
 31 74  1  0
 32 33  1  0
 32 75  1  0
 32 76  1  0
 33 35  1  0
 33 34  1  1
 34 35  1  0
 35 77  1  6
 36 37  1  0
 36 78  1  6
 37 79  1  0
M  END
>  <i_m_ct_stereo_status>  (293) 
1

>  <s_m_source_file>  (293) 
/var/tmp/pbs.5076255.sched01/tmp1uy3qkd6/1269t22etaf.sdf

>  <i_m_source_file_index>  (293) 
9

>  <i_lp_mmshare_version>  (293) 
48012

>  <i_f3d_flags>  (293) 
0

>  <s_epik_input>  (293) 
W0NIMl0xW0NIMl1bQ0gyXVtDQEhdKFtPSF0pW0NASF0oW0NAXTEyMylPW0NASF00W0NAQEhdKFtDQEhdM08yKVtDSDJdW0NASF01W0NAXShbQ0gzXSkoW0NAQEhdNFtPSF0pW0NAQEhdNltDQEBIXShbQ0gyXVtDSDJdNSlbQ0BdNyhbT0hdKVtDQF0oW0NIM10pKFtDSDJdW0NIMl02KVtDQEhdKFtDSDJdW0NIMl03KWM4W2NIXW9jKFtPSF0pW2NIXTg=

>  <s_epik_cmdline>  (293) 
J2VwaWtfcHl0aG9uJywgJy1waHQnLCAnMi4wJywgJy1waCcsICc3LjAnLCAnLXRuJywgJzgnLCAnLW1hJywgJzIwMCcsICctaW1hZScsICc8aW5maWxlLm1hZT4nLCAnLW9tYWUnLCAnPG91dGZpbGUubWFlPic=

>  <r_lp_tautomer_probability>  (293) 
1

>  <r_epik_Ionization_Penalty>  (293) 
5.5548e-07

>  <r_epik_Ionization_Penalty_Charging>  (293) 
0

>  <r_epik_Ionization_Penalty_Neutral>  (293) 
5.5548e-07

>  <r_epik_State_Penalty>  (293) 
-0

>  <r_epik_Charging_Adjusted_Penalty>  (293) 
0

>  <i_epik_Tot_Q>  (293) 
0

>  <i_epik_Tot_abs_Q>  (293) 
0

>  <s_epik_Chemistry_Notes>  (293) 
This compound has an ester and may undergo hydrolysis at high or low pH.

>  <s_lp_Force_Field>  (293) 
OPLS3e

>  <r_lp_Energy>  (293) 
62.4601

>  <b_lp_Chiralities_Consistent>  (293) 
1

>  <s_lp_Variant>  (293) 
96:0-1

>  <s_i_glide_gridfile>  (293) 
pfpi4k_grid

>  <i_i_glide_lignum>  (293) 
9

>  <i_i_glide_rotatable_bonds>  (293) 
4

>  <r_i_docking_score>  (293) 
-2.64924

>  <r_i_glide_ligand_efficiency>  (293) 
-0.071601

>  <r_i_glide_ligand_efficiency_sa>  (293) 
-0.23859

>  <r_i_glide_ligand_efficiency_ln>  (293) 
-0.574557

>  <r_i_glide_gscore>  (293) 
-2.64924

>  <r_i_glide_lipo>  (293) 
-0.0440766

>  <r_i_glide_hbond>  (293) 
0

>  <r_i_glide_metal>  (293) 
-0

>  <r_i_glide_rewards>  (293) 
0

>  <r_i_glide_evdw>  (293) 
-29.2172

>  <r_i_glide_ecoul>  (293) 
-7.8616

>  <r_i_glide_erotb>  (293) 
0.0774508

>  <r_i_glide_esite>  (293) 
-0.0425107

>  <r_i_glide_emodel>  (293) 
-42.7535

>  <r_i_glide_energy>  (293) 
-37.0788

>  <r_i_glide_einternal>  (293) 
1.16669

>  <r_i_glide_intrahb_reward>  (293) 
-0

>  <i_i_glide_confnum>  (293) 
5

>  <i_i_glide_posenum>  (293) 
8

>  <r_i_glide_eff_state_penalty>  (293) 
0

>  <ligand_id>  (293) 
96

>  <original_smiles>  (293) 
CC12C(CCC3C1CCC1(C)C(c4coc(O)c4)CCC31O)CC1C(OC3C(O)CCCC34OC14)C2O

>  <smiles>  (293) 
[H]OC1([H])C([H])([H])C([H])([H])C([H])([H])C23OC2([H])C2([H])C([H])([H])C4([H])C([H])([H])C([H])([H])C5([H])C([H])(C([H])([H])C([H])([H])C6(C([H])([H])[H])C([H])(C7=C([H])C(=O)OC7([H])[H])C([H])([H])C([H])([H])C56O[H])C4(C([H])([H])[H])C([H])(O[H])C2([H])OC13[H]

$$$$
96:0:2
     RDKit          3D

 79 86  0  0  1  0  0  0  0  0999 V2000
    4.4947   -8.7791    2.6094 C   0  0  0  0  0  0  0  0  0  0  0  0
    4.5816   -7.2764    3.0173 C   0  0  2  0  0  0  0  0  0  0  0  0
    6.0617   -6.8582    3.3021 C   0  0  1  0  0  0  0  0  0  0  0  0
    6.6951   -7.6107    4.4798 C   0  0  0  0  0  0  0  0  0  0  0  0
    5.8864   -7.3742    5.7491 C   0  0  0  0  0  0  0  0  0  0  0  0
    4.3925   -7.7252    5.5747 C   0  0  2  0  0  0  0  0  0  0  0  0
    3.7801   -6.9907    4.3519 C   0  0  2  0  0  0  0  0  0  0  0  0
    2.2530   -7.2549    4.2916 C   0  0  0  0  0  0  0  0  0  0  0  0
    1.5438   -6.9362    5.6202 C   0  0  0  0  0  0  0  0  0  0  0  0
    2.0744   -7.7533    6.8320 C   0  0  2  0  0  0  0  0  0  0  0  0
    1.6384   -9.2261    6.6539 C   0  0  0  0  0  0  0  0  0  0  0  0
    1.5173   -7.1197    8.1462 C   0  0  1  0  0  0  0  0  0  0  0  0
    1.3841   -8.0615    9.3583 C   0  0  0  0  0  0  0  0  0  0  0  0
    2.5291   -8.4620   10.2549 C   0  0  0  0  0  0  0  0  0  0  0  0
    1.9080   -9.2497   11.2495 O   0  0  0  0  0  0  0  0  0  0  0  0
    0.5991   -9.4184   11.0078 C   0  0  0  0  0  0  0  0  0  0  0  0
   -0.1758  -10.1065   11.6767 O   0  0  0  0  0  0  0  0  0  0  0  0
    0.2628   -8.6224    9.8182 C   0  0  0  0  0  0  0  0  0  0  0  0
    2.4601   -5.9245    8.4159 C   0  0  0  0  0  0  0  0  0  0  0  0
    3.7471   -6.1569    7.5953 C   0  0  0  0  0  0  0  0  0  0  0  0
    3.6116   -7.5314    6.9050 C   0  0  2  0  0  0  0  0  0  0  0  0
    4.1937   -8.4771    7.7618 O   0  0  0  0  0  0  0  0  0  0  0  0
    6.9807   -6.9198    2.0785 C   0  0  0  0  0  0  0  0  0  0  0  0
    6.4894   -6.0050    0.9580 C   0  0  1  0  0  0  0  0  0  0  0  0
    5.0186   -6.2908    0.5978 C   0  0  2  0  0  0  0  0  0  0  0  0
    4.5953   -5.3203   -0.3620 O   0  0  0  0  0  0  0  0  0  0  0  0
    4.4456   -3.9613    0.0601 C   0  0  2  0  0  0  0  0  0  0  0  0
    4.1281   -3.0602   -1.1453 C   0  0  1  0  0  0  0  0  0  0  0  0
    2.8754   -3.4536   -1.6657 O   0  0  0  0  0  0  0  0  0  0  0  0
    3.9931   -1.5947   -0.6772 C   0  0  0  0  0  0  0  0  0  0  0  0
    5.2329   -1.1207    0.0967 C   0  0  0  0  0  0  0  0  0  0  0  0
    5.6090   -2.0813    1.2418 C   0  0  0  0  0  0  0  0  0  0  0  0
    5.7138   -3.5112    0.7462 C   0  0  2  0  0  0  0  0  0  0  0  0
    6.9049   -3.7619    0.0008 O   0  0  0  0  0  0  0  0  0  0  0  0
    6.7343   -4.5352    1.2087 C   0  0  2  0  0  0  0  0  0  0  0  0
    4.0708   -6.3695    1.8361 C   0  0  1  0  0  0  0  0  0  0  0  0
    2.8539   -6.8762    1.3221 O   0  0  0  0  0  0  0  0  0  0  0  0
    5.0150   -8.9848    1.6743 H   0  0  0  0  0  0  0  0  0  0  0  0
    3.4677   -9.1193    2.4698 H   0  0  0  0  0  0  0  0  0  0  0  0
    4.9298   -9.4446    3.3537 H   0  0  0  0  0  0  0  0  0  0  0  0
    6.0460   -5.8101    3.6088 H   0  0  0  0  0  0  0  0  0  0  0  0
    6.7749   -8.6805    4.2791 H   0  0  0  0  0  0  0  0  0  0  0  0
    7.7138   -7.2533    4.6504 H   0  0  0  0  0  0  0  0  0  0  0  0
    6.3410   -7.9681    6.5401 H   0  0  0  0  0  0  0  0  0  0  0  0
    5.9904   -6.3313    6.0477 H   0  0  0  0  0  0  0  0  0  0  0  0
    4.3346   -8.7894    5.3454 H   0  0  0  0  0  0  0  0  0  0  0  0
    3.8800   -5.9225    4.5431 H   0  0  0  0  0  0  0  0  0  0  0  0
    1.7896   -6.6042    3.5495 H   0  0  0  0  0  0  0  0  0  0  0  0
    2.0385   -8.2839    4.0013 H   0  0  0  0  0  0  0  0  0  0  0  0
    1.6524   -5.8668    5.8018 H   0  0  0  0  0  0  0  0  0  0  0  0
    0.4716   -7.0955    5.4964 H   0  0  0  0  0  0  0  0  0  0  0  0
    1.9165   -9.8546    7.4985 H   0  0  0  0  0  0  0  0  0  0  0  0
    2.0857   -9.6771    5.7698 H   0  0  0  0  0  0  0  0  0  0  0  0
    0.5559   -9.3040    6.5428 H   0  0  0  0  0  0  0  0  0  0  0  0
    0.5104   -6.7401    7.9588 H   0  0  0  0  0  0  0  0  0  0  0  0
    3.0237   -7.5982   10.6939 H   0  0  0  0  0  0  0  0  0  0  0  0
    3.2432   -9.1099    9.7708 H   0  0  0  0  0  0  0  0  0  0  0  0
   -0.7333   -8.5557    9.4015 H   0  0  0  0  0  0  0  0  0  0  0  0
    1.9956   -4.9919    8.0932 H   0  0  0  0  0  0  0  0  0  0  0  0
    2.6733   -5.7968    9.4756 H   0  0  0  0  0  0  0  0  0  0  0  0
    3.8223   -5.3641    6.8501 H   0  0  0  0  0  0  0  0  0  0  0  0
    4.6401   -6.0981    8.2155 H   0  0  0  0  0  0  0  0  0  0  0  0
    3.9019   -9.3295    7.4795 H   0  0  0  0  0  0  0  0  0  0  0  0
    8.0035   -6.6581    2.3467 H   0  0  0  0  0  0  0  0  0  0  0  0
    7.0231   -7.9452    1.7014 H   0  0  0  0  0  0  0  0  0  0  0  0
    7.1002   -6.2489    0.0901 H   0  0  0  0  0  0  0  0  0  0  0  0
    4.9806   -7.2524    0.0882 H   0  0  0  0  0  0  0  0  0  0  0  0
    3.6231   -3.8753    0.7719 H   0  0  0  0  0  0  0  0  0  0  0  0
    4.8960   -3.1435   -1.9208 H   0  0  0  0  0  0  0  0  0  0  0  0
    2.9488   -4.3526   -1.9721 H   0  0  0  0  0  0  0  0  0  0  0  0
    3.8061   -0.9383   -1.5286 H   0  0  0  0  0  0  0  0  0  0  0  0
    3.1194   -1.4994   -0.0338 H   0  0  0  0  0  0  0  0  0  0  0  0
    6.0724   -1.0352   -0.5938 H   0  0  0  0  0  0  0  0  0  0  0  0
    5.0597   -0.1185    0.4959 H   0  0  0  0  0  0  0  0  0  0  0  0
    6.5668   -1.7826    1.6720 H   0  0  0  0  0  0  0  0  0  0  0  0
    4.8681   -2.0375    2.0423 H   0  0  0  0  0  0  0  0  0  0  0  0
    7.4108   -4.2686    2.0075 H   0  0  0  0  0  0  0  0  0  0  0  0
    3.9042   -5.3820    2.2568 H   0  0  0  0  0  0  0  0  0  0  0  0
    2.2868   -7.0869    2.0468 H   0  0  0  0  0  0  0  0  0  0  0  0
  2  1  1  6
  1 38  1  0
  1 39  1  0
  1 40  1  0
  2  7  1  0
  2 36  1  0
  2  3  1  0
  3  4  1  0
  3 23  1  0
  3 41  1  1
  4  5  1  0
  4 42  1  0
  4 43  1  0
  5  6  1  0
  5 44  1  0
  5 45  1  0
  6 21  1  0
  6  7  1  0
  6 46  1  6
  7  8  1  0
  7 47  1  1
  8  9  1  0
  8 48  1  0
  8 49  1  0
  9 10  1  0
  9 50  1  0
  9 51  1  0
 10 21  1  0
 10 11  1  6
 10 12  1  0
 11 52  1  0
 11 53  1  0
 11 54  1  0
 12 19  1  0
 12 55  1  6
 12 13  1  0
 13 18  2  0
 13 14  1  0
 14 15  1  0
 14 56  1  0
 14 57  1  0
 15 16  1  0
 16 18  1  0
 16 17  2  0
 18 58  1  0
 19 20  1  0
 19 59  1  0
 19 60  1  0
 20 21  1  0
 20 61  1  0
 20 62  1  0
 21 22  1  1
 22 63  1  0
 23 24  1  0
 23 64  1  0
 23 65  1  0
 24 35  1  0
 24 25  1  0
 24 66  1  6
 25 26  1  0
 25 36  1  0
 25 67  1  6
 26 27  1  0
 27 33  1  0
 27 28  1  0
 27 68  1  1
 28 29  1  0
 28 30  1  0
 28 69  1  6
 29 70  1  0
 30 31  1  0
 30 71  1  0
 30 72  1  0
 31 32  1  0
 31 73  1  0
 31 74  1  0
 32 33  1  0
 32 75  1  0
 32 76  1  0
 33 35  1  0
 33 34  1  6
 34 35  1  0
 35 77  1  1
 36 37  1  0
 36 78  1  1
 37 79  1  0
M  END
>  <i_m_ct_stereo_status>  (294) 
1

>  <s_m_source_file>  (294) 
/var/tmp/pbs.5076255.sched01/tmp1uy3qkd6/1269t22etaf.sdf

>  <i_m_source_file_index>  (294) 
9

>  <i_lp_mmshare_version>  (294) 
48012

>  <i_f3d_flags>  (294) 
0

>  <s_epik_input>  (294) 
W0NIMl0xW0NIMl1bQ0gyXVtDQEhdKFtPSF0pW0NASF0oW0NAXTEyMylPW0NASF00W0NAQEhdKFtDQEhdM08yKVtDSDJdW0NASF01W0NAXShbQ0gzXSkoW0NAQEhdNFtPSF0pW0NAQEhdNltDQEBIXShbQ0gyXVtDSDJdNSlbQ0BdNyhbT0hdKVtDQF0oW0NIM10pKFtDSDJdW0NIMl02KVtDQEhdKFtDSDJdW0NIMl03KWM4W2NIXW9jKFtPSF0pW2NIXTg=

>  <s_epik_cmdline>  (294) 
J2VwaWtfcHl0aG9uJywgJy1waHQnLCAnMi4wJywgJy1waCcsICc3LjAnLCAnLXRuJywgJzgnLCAnLW1hJywgJzIwMCcsICctaW1hZScsICc8aW5maWxlLm1hZT4nLCAnLW9tYWUnLCAnPG91dGZpbGUubWFlPic=

>  <r_lp_tautomer_probability>  (294) 
1

>  <r_epik_Ionization_Penalty>  (294) 
5.5548e-07

>  <r_epik_Ionization_Penalty_Charging>  (294) 
0

>  <r_epik_Ionization_Penalty_Neutral>  (294) 
5.5548e-07

>  <r_epik_State_Penalty>  (294) 
-0

>  <r_epik_Charging_Adjusted_Penalty>  (294) 
0

>  <i_epik_Tot_Q>  (294) 
0

>  <i_epik_Tot_abs_Q>  (294) 
0

>  <s_epik_Chemistry_Notes>  (294) 
This compound has an ester and may undergo hydrolysis at high or low pH.

>  <s_lp_Force_Field>  (294) 
OPLS3e

>  <r_lp_Energy>  (294) 
62.4601

>  <b_lp_Chiralities_Consistent>  (294) 
1

>  <s_lp_Variant>  (294) 
96:0-1

>  <s_i_glide_gridfile>  (294) 
pfpi4k_grid

>  <i_i_glide_lignum>  (294) 
9

>  <i_i_glide_rotatable_bonds>  (294) 
4

>  <r_i_docking_score>  (294) 
-2.34155

>  <r_i_glide_ligand_efficiency>  (294) 
-0.0632851

>  <r_i_glide_ligand_efficiency_sa>  (294) 
-0.21088

>  <r_i_glide_ligand_efficiency_ln>  (294) 
-0.507827

>  <r_i_glide_gscore>  (294) 
-2.34155

>  <r_i_glide_lipo>  (294) 
-0.611172

>  <r_i_glide_hbond>  (294) 
0

>  <r_i_glide_metal>  (294) 
-0

>  <r_i_glide_rewards>  (294) 
0

>  <r_i_glide_evdw>  (294) 
-28.6468

>  <r_i_glide_ecoul>  (294) 
-2.40254

>  <r_i_glide_erotb>  (294) 
0.0774508

>  <r_i_glide_esite>  (294) 
-0.0151045

>  <r_i_glide_emodel>  (294) 
-35.2516

>  <r_i_glide_energy>  (294) 
-31.0493

>  <r_i_glide_einternal>  (294) 
2.20096

>  <r_i_glide_intrahb_reward>  (294) 
-0

>  <i_i_glide_confnum>  (294) 
2

>  <i_i_glide_posenum>  (294) 
2

>  <r_i_glide_eff_state_penalty>  (294) 
0

>  <ligand_id>  (294) 
96

>  <original_smiles>  (294) 
CC12C(CCC3C1CCC1(C)C(c4coc(O)c4)CCC31O)CC1C(OC3C(O)CCCC34OC14)C2O

>  <smiles>  (294) 
[H]OC1([H])C([H])([H])C([H])([H])C([H])([H])C23OC2([H])C2([H])C([H])([H])C4([H])C([H])([H])C([H])([H])C5([H])C([H])(C([H])([H])C([H])([H])C6(C([H])([H])[H])C([H])(C7=C([H])C(=O)OC7([H])[H])C([H])([H])C([H])([H])C56O[H])C4(C([H])([H])[H])C([H])(O[H])C2([H])OC13[H]

$$$$
97:0:0
     RDKit          3D

 71 76  0  0  1  0  0  0  0  0999 V2000
    6.0951  -12.9822    3.1092 C   0  0  0  0  0  0  0  0  0  0  0  0
    4.5926  -12.9131    3.4764 C   0  0  0  0  0  0  0  0  0  0  0  0
    3.9453  -11.7137    2.8824 N   0  0  0  0  0  0  0  0  0  0  0  0
    2.6110  -11.3468    3.4395 C   0  0  0  0  0  0  0  0  0  0  0  0
    2.6181   -9.8679    3.9034 C   0  0  1  0  0  0  0  0  0  0  0  0
    1.8405   -9.6267    5.0904 O   0  0  0  0  0  0  0  0  0  0  0  0
    3.2437   -9.4679    5.2556 C   0  0  1  0  0  0  0  0  0  0  0  0
    3.9012  -10.5042    6.1860 C   0  0  0  0  0  0  0  0  0  0  0  0
    3.6104  -10.3272    7.6807 C   0  0  0  0  0  0  0  0  0  0  0  0
    3.8150   -8.0395    5.4598 C   0  0  1  0  0  0  0  0  0  0  0  0
    5.0841   -7.7397    4.5428 C   0  0  2  0  0  0  0  0  0  0  0  0
    4.9236   -6.2819    4.0902 C   0  0  0  0  0  0  0  0  0  0  0  0
    3.4367   -6.4422    3.6661 C   0  0  1  0  0  0  0  0  0  0  0  0
    3.5450   -7.7103    2.6907 C   0  0  1  0  0  0  0  0  0  0  0  0
    4.8585   -8.3058    3.1616 C   0  0  0  0  0  0  0  0  0  0  0  0
    5.5553   -9.1401    2.5758 O   0  0  0  0  0  0  0  0  0  0  0  0
    2.4372   -8.8204    2.7474 C   0  0  1  0  0  0  0  0  0  0  0  0
    2.4064   -9.4480    1.4794 O   0  0  0  0  0  0  0  0  0  0  0  0
    2.9176   -6.8284    5.0559 C   0  0  1  0  0  0  0  0  0  0  0  0
    1.3722   -6.8222    5.1858 C   0  0  1  0  0  0  0  0  0  0  0  0
    1.0334   -6.9565    6.5397 O   0  0  0  0  0  0  0  0  0  0  0  0
    0.8908   -5.6143    4.6761 O   0  0  0  0  0  0  0  0  0  0  0  0
    1.2051   -5.3771    3.3011 C   0  0  0  0  0  0  0  0  0  0  0  0
    2.7318   -5.1377    3.1073 C   0  0  1  0  0  0  0  0  0  0  0  0
    3.1508   -3.8207    3.8755 C   0  0  0  0  0  0  0  0  0  0  0  0
    2.2775   -2.5812    3.6553 C   0  0  0  0  0  0  0  0  0  0  0  0
    1.1897   -2.3158    4.5089 C   0  0  0  0  0  0  0  0  0  0  0  0
    0.3904   -1.1808    4.3026 C   0  0  0  0  0  0  0  0  0  0  0  0
    0.6773   -0.3101    3.2442 C   0  0  0  0  0  0  0  0  0  0  0  0
    1.7514   -0.5703    2.3858 C   0  0  0  0  0  0  0  0  0  0  0  0
    2.5524   -1.7039    2.5900 C   0  0  0  0  0  0  0  0  0  0  0  0
    3.0644   -4.9400    1.5977 C   0  0  0  0  0  0  0  0  0  0  0  0
    2.2146   -5.0590    0.7121 O   0  0  0  0  0  0  0  0  0  0  0  0
    4.3580   -4.6390    1.3751 O   0  0  0  0  0  0  0  0  0  0  0  0
    4.8199   -4.4444    0.0498 C   0  0  0  0  0  0  0  0  0  0  0  0
    6.5466  -13.8249    3.6413 H   0  0  0  0  0  0  0  0  0  0  0  0
    6.6117  -12.0680    3.4110 H   0  0  0  0  0  0  0  0  0  0  0  0
    6.2248  -13.1347    2.0388 H   0  0  0  0  0  0  0  0  0  0  0  0
    4.0717  -13.8176    3.1459 H   0  0  0  0  0  0  0  0  0  0  0  0
    4.5074  -12.8502    4.5573 H   0  0  0  0  0  0  0  0  0  0  0  0
    4.5643  -10.9274    2.9647 H   0  0  0  0  0  0  0  0  0  0  0  0
    1.8237  -11.5346    2.6962 H   0  0  0  0  0  0  0  0  0  0  0  0
    2.3676  -12.0094    4.2717 H   0  0  0  0  0  0  0  0  0  0  0  0
    3.5099  -11.4914    5.9416 H   0  0  0  0  0  0  0  0  0  0  0  0
    4.9745  -10.5318    5.9962 H   0  0  0  0  0  0  0  0  0  0  0  0
    3.9520  -11.2121    8.2188 H   0  0  0  0  0  0  0  0  0  0  0  0
    2.5424  -10.2342    7.8834 H   0  0  0  0  0  0  0  0  0  0  0  0
    4.1285   -9.4732    8.1138 H   0  0  0  0  0  0  0  0  0  0  0  0
    4.0851   -7.9171    6.5011 H   0  0  0  0  0  0  0  0  0  0  0  0
    6.0490   -8.0063    4.9634 H   0  0  0  0  0  0  0  0  0  0  0  0
    5.0989   -5.5778    4.8989 H   0  0  0  0  0  0  0  0  0  0  0  0
    5.5992   -5.9856    3.2771 H   0  0  0  0  0  0  0  0  0  0  0  0
    3.6890   -7.4135    1.6526 H   0  0  0  0  0  0  0  0  0  0  0  0
    1.4483   -8.3781    2.8318 H   0  0  0  0  0  0  0  0  0  0  0  0
    1.5821   -9.9106    1.3788 H   0  0  0  0  0  0  0  0  0  0  0  0
    3.2004   -6.0310    5.7433 H   0  0  0  0  0  0  0  0  0  0  0  0
    0.8548   -7.5988    4.6335 H   0  0  0  0  0  0  0  0  0  0  0  0
    1.2883   -7.8351    6.8050 H   0  0  0  0  0  0  0  0  0  0  0  0
    0.8399   -6.2049    2.6900 H   0  0  0  0  0  0  0  0  0  0  0  0
    0.6252   -4.5186    2.9632 H   0  0  0  0  0  0  0  0  0  0  0  0
    3.1564   -4.0112    4.9435 H   0  0  0  0  0  0  0  0  0  0  0  0
    4.1821   -3.5604    3.6515 H   0  0  0  0  0  0  0  0  0  0  0  0
    0.9705   -2.9840    5.3231 H   0  0  0  0  0  0  0  0  0  0  0  0
   -0.4381   -0.9845    4.9544 H   0  0  0  0  0  0  0  0  0  0  0  0
    0.0639    0.5559    3.0780 H   0  0  0  0  0  0  0  0  0  0  0  0
    1.9658    0.0925    1.5691 H   0  0  0  0  0  0  0  0  0  0  0  0
    3.3794   -1.8974    1.9314 H   0  0  0  0  0  0  0  0  0  0  0  0
    5.8850   -4.2103    0.0700 H   0  0  0  0  0  0  0  0  0  0  0  0
    4.2940   -3.6155   -0.4220 H   0  0  0  0  0  0  0  0  0  0  0  0
    4.6745   -5.3439   -0.5485 H   0  0  0  0  0  0  0  0  0  0  0  0
    3.8604  -11.8618    1.8519 H   0  0  0  0  0  0  0  0  0  0  0  0
  1  2  1  0
  1 36  1  0
  1 37  1  0
  1 38  1  0
  2  3  1  0
  2 39  1  0
  2 40  1  0
  3  4  1  0
  3 41  1  0
  3 71  1  0
  5  4  1  6
  4 42  1  0
  4 43  1  0
  5  7  1  0
  5 17  1  0
  5  6  1  0
  6  7  1  0
  7  8  1  1
  7 10  1  0
  8  9  1  0
  8 44  1  0
  8 45  1  0
  9 46  1  0
  9 47  1  0
  9 48  1  0
 10 19  1  0
 10 11  1  0
 10 49  1  1
 11 15  1  0
 11 12  1  0
 11 50  1  1
 13 12  1  1
 12 51  1  0
 12 52  1  0
 13 24  1  0
 13 14  1  0
 13 19  1  0
 14 15  1  0
 14 17  1  0
 14 53  1  6
 15 16  2  0
 17 18  1  0
 17 54  1  1
 18 55  1  0
 19 20  1  0
 19 56  1  1
 20 21  1  0
 20 22  1  0
 20 57  1  6
 21 58  1  0
 22 23  1  0
 23 24  1  0
 23 59  1  0
 23 60  1  0
 24 25  1  1
 24 32  1  0
 25 26  1  0
 25 61  1  0
 25 62  1  0
 26 31  1  0
 26 27  2  0
 27 28  1  0
 27 63  1  0
 28 29  2  0
 28 64  1  0
 29 30  1  0
 29 65  1  0
 30 31  2  0
 30 66  1  0
 31 67  1  0
 32 33  2  0
 32 34  1  0
 34 35  1  0
 35 68  1  0
 35 69  1  0
 35 70  1  0
M  CHG  1   3   1
M  END
>  <i_m_ct_stereo_status>  (295) 
1

>  <s_m_source_file>  (295) 
/var/tmp/pbs.5076255.sched01/tmp1uy3qkd6/1269t22etaf.sdf

>  <i_m_source_file_index>  (295) 
10

>  <i_lp_mmshare_version>  (295) 
48012

>  <i_f3d_flags>  (295) 
0

>  <s_epik_input>  (295) 
W0NIM11bQ0gyXVtOSF1bQ0gyXVtDQF0oTzEpKFtDQEBIXTJbT0hdKVtDQEBdMShbQ0gyXVtDSDNdKVtDQEBIXShbQ0BIXShbQ0gyXTMpQyg9TylbQ0BASF0yW0NAXTM0NSlbQ0BASF00W0NAQEhdKFtPSF0pT1tDSDJdW0NAQF01KEMoPU8pT1tDSDNdKVtDSDJdYzZbY0hdW2NIXVtjSF1bY0hdW2NIXTY=

>  <s_epik_cmdline>  (295) 
J2VwaWtfcHl0aG9uJywgJy1waHQnLCAnMi4wJywgJy1waCcsICc3LjAnLCAnLXRuJywgJzgnLCAnLW1hJywgJzIwMCcsICctaW1hZScsICc8aW5maWxlLm1hZT4nLCAnLW9tYWUnLCAnPG91dGZpbGUubWFlPic=

>  <r_epik_Ionization_Penalty>  (295) 
0.00158317

>  <r_epik_Ionization_Penalty_Charging>  (295) 
0.00158122

>  <r_epik_Ionization_Penalty_Neutral>  (295) 
1.95382e-06

>  <r_epik_State_Penalty>  (295) 
0.00106311

>  <r_epik_Charging_Adjusted_Penalty>  (295) 
0.00264433

>  <i_epik_Tot_Q>  (295) 
1

>  <i_epik_Tot_abs_Q>  (295) 
1

>  <s_epik_Chemistry_Notes>  (295) 
This compound has an ester and may undergo hydrolysis at high or low pH. This compound contains an acetal/aminal-like group ( X-CH(R)-Y where X, Y are N, S, or O) that may be acid/base labile, releasing an aldehyde.

>  <s_lp_Force_Field>  (295) 
OPLS3e

>  <r_lp_Energy>  (295) 
75.4326

>  <b_lp_Chiralities_Consistent>  (295) 
1

>  <s_lp_Variant>  (295) 
97:0-1

>  <s_i_glide_gridfile>  (295) 
pfpi4k_grid

>  <i_i_glide_lignum>  (295) 
10

>  <i_i_glide_rotatable_bonds>  (295) 
10

>  <r_i_docking_score>  (295) 
-3.19976

>  <r_i_glide_ligand_efficiency>  (295) 
-0.0914219

>  <r_i_glide_ligand_efficiency_sa>  (295) 
-0.299047

>  <r_i_glide_ligand_efficiency_ln>  (295) 
-0.702419

>  <r_i_glide_gscore>  (295) 
-3.19976

>  <r_i_glide_lipo>  (295) 
-0.0454659

>  <r_i_glide_hbond>  (295) 
-0.220865

>  <r_i_glide_metal>  (295) 
-0

>  <r_i_glide_rewards>  (295) 
-0.591519

>  <r_i_glide_evdw>  (295) 
-22.2028

>  <r_i_glide_ecoul>  (295) 
-10.3745

>  <r_i_glide_erotb>  (295) 
0.429199

>  <r_i_glide_esite>  (295) 
-0.104796

>  <r_i_glide_emodel>  (295) 
-43.8913

>  <r_i_glide_energy>  (295) 
-32.5773

>  <r_i_glide_einternal>  (295) 
5.37647

>  <r_i_glide_intrahb_reward>  (295) 
-0.5

>  <i_i_glide_confnum>  (295) 
2

>  <i_i_glide_posenum>  (295) 
36

>  <r_i_glide_eff_state_penalty>  (295) 
0

>  <ligand_id>  (295) 
97

>  <original_smiles>  (295) 
CCNCC12OC1(CC)C1C3CC4(C(C3=O)C2O)C1C(O)OCC4(Cc1ccccc1)C(=O)OC

>  <smiles>  (295) 
[H]OC1([H])OC([H])([H])C(C(=O)OC([H])([H])[H])(C([H])([H])c2c([H])c([H])c([H])c([H])c2[H])C23C([H])([H])C4([H])C(=O)C2([H])C([H])(O[H])C2(C([H])([H])[N+]([H])([H])C([H])([H])C([H])([H])[H])OC2(C([H])([H])C([H])([H])[H])C4([H])C13[H]

$$$$
97:0:1
     RDKit          3D

 71 76  0  0  1  0  0  0  0  0999 V2000
    6.1796    0.4400    5.3228 C   0  0  0  0  0  0  0  0  0  0  0  0
    5.3657    0.1032    4.0609 C   0  0  0  0  0  0  0  0  0  0  0  0
    4.8412   -1.2652    4.1229 N   0  0  0  0  0  0  0  0  0  0  0  0
    3.8794   -1.6279    3.0644 C   0  0  0  0  0  0  0  0  0  0  0  0
    3.3052   -3.0237    3.3118 C   0  0  1  0  0  0  0  0  0  0  0  0
    2.9078   -3.7051    2.1031 O   0  0  0  0  0  0  0  0  0  0  0  0
    4.0036   -4.3010    2.7965 C   0  0  1  0  0  0  0  0  0  0  0  0
    5.3135   -4.2608    2.0133 C   0  0  0  0  0  0  0  0  0  0  0  0
    5.3692   -5.1577    0.7616 C   0  0  0  0  0  0  0  0  0  0  0  0
    3.7990   -5.6515    3.5138 C   0  0  1  0  0  0  0  0  0  0  0  0
    4.4162   -5.6714    4.9756 C   0  0  2  0  0  0  0  0  0  0  0  0
    3.4186   -6.4595    5.8310 C   0  0  0  0  0  0  0  0  0  0  0  0
    2.1568   -5.7006    5.3259 C   0  0  1  0  0  0  0  0  0  0  0  0
    2.5870   -4.1888    5.5835 C   0  0  1  0  0  0  0  0  0  0  0  0
    4.1017   -4.3532    5.6543 C   0  0  0  0  0  0  0  0  0  0  0  0
    4.9045   -3.5546    6.0967 O   0  0  0  0  0  0  0  0  0  0  0  0
    2.2792   -3.0946    4.4969 C   0  0  1  0  0  0  0  0  0  0  0  0
    2.2022   -1.8437    5.1682 O   0  0  0  0  0  0  0  0  0  0  0  0
    2.3416   -6.0801    3.8496 C   0  0  1  0  0  0  0  0  0  0  0  0
    1.1303   -5.7353    2.9244 C   0  0  1  0  0  0  0  0  0  0  0  0
    1.2776   -6.4036    1.6869 O   0  0  0  0  0  0  0  0  0  0  0  0
   -0.0466   -6.1342    3.5467 O   0  0  0  0  0  0  0  0  0  0  0  0
   -0.2855   -5.6766    4.8803 C   0  0  0  0  0  0  0  0  0  0  0  0
    0.7687   -6.1923    5.8931 C   0  0  1  0  0  0  0  0  0  0  0  0
    0.6687   -7.7591    6.1178 C   0  0  0  0  0  0  0  0  0  0  0  0
    0.5011   -8.6678    4.8900 C   0  0  0  0  0  0  0  0  0  0  0  0
    1.5811   -9.4684    4.4592 C   0  0  0  0  0  0  0  0  0  0  0  0
    1.4698  -10.2457    3.2833 C   0  0  0  0  0  0  0  0  0  0  0  0
    0.2615  -10.2494    2.5635 C   0  0  0  0  0  0  0  0  0  0  0  0
   -0.8187   -9.4529    2.9812 C   0  0  0  0  0  0  0  0  0  0  0  0
   -0.7199   -8.7141    4.1818 C   0  0  0  0  0  0  0  0  0  0  0  0
    0.4785   -5.5537    7.2810 C   0  0  0  0  0  0  0  0  0  0  0  0
   -0.4561   -4.7732    7.4680 O   0  0  0  0  0  0  0  0  0  0  0  0
    1.3498   -5.9352    8.2309 O   0  0  0  0  0  0  0  0  0  0  0  0
    1.2403   -5.4091    9.5459 C   0  0  0  0  0  0  0  0  0  0  0  0
    6.6261    1.4295    5.2518 H   0  0  0  0  0  0  0  0  0  0  0  0
    7.0016   -0.2528    5.4819 H   0  0  0  0  0  0  0  0  0  0  0  0
    5.5524    0.4272    6.2171 H   0  0  0  0  0  0  0  0  0  0  0  0
    4.5484    0.8183    3.9783 H   0  0  0  0  0  0  0  0  0  0  0  0
    5.9865    0.2241    3.1758 H   0  0  0  0  0  0  0  0  0  0  0  0
    5.6133   -1.9220    4.1170 H   0  0  0  0  0  0  0  0  0  0  0  0
    3.0475   -0.9275    2.9860 H   0  0  0  0  0  0  0  0  0  0  0  0
    4.3622   -1.5754    2.0941 H   0  0  0  0  0  0  0  0  0  0  0  0
    5.4907   -3.2503    1.6554 H   0  0  0  0  0  0  0  0  0  0  0  0
    6.1390   -4.4948    2.6864 H   0  0  0  0  0  0  0  0  0  0  0  0
    6.2570   -4.9058    0.1774 H   0  0  0  0  0  0  0  0  0  0  0  0
    4.5107   -5.0168    0.1010 H   0  0  0  0  0  0  0  0  0  0  0  0
    5.4442   -6.2182    1.0084 H   0  0  0  0  0  0  0  0  0  0  0  0
    4.2495   -6.4383    2.9104 H   0  0  0  0  0  0  0  0  0  0  0  0
    5.4612   -5.9707    5.0675 H   0  0  0  0  0  0  0  0  0  0  0  0
    3.4563   -7.5236    5.6066 H   0  0  0  0  0  0  0  0  0  0  0  0
    3.5812   -6.3699    6.9103 H   0  0  0  0  0  0  0  0  0  0  0  0
    2.2648   -3.8369    6.5630 H   0  0  0  0  0  0  0  0  0  0  0  0
    1.2732   -3.2285    4.1025 H   0  0  0  0  0  0  0  0  0  0  0  0
    1.7970   -1.2147    4.5887 H   0  0  0  0  0  0  0  0  0  0  0  0
    2.3881   -7.1591    3.7903 H   0  0  0  0  0  0  0  0  0  0  0  0
    0.9959   -4.6915    2.6718 H   0  0  0  0  0  0  0  0  0  0  0  0
    1.4480   -7.3138    1.8782 H   0  0  0  0  0  0  0  0  0  0  0  0
   -0.3435   -4.5861    4.8796 H   0  0  0  0  0  0  0  0  0  0  0  0
   -1.2717   -6.0267    5.1906 H   0  0  0  0  0  0  0  0  0  0  0  0
    1.5155   -8.1175    6.7056 H   0  0  0  0  0  0  0  0  0  0  0  0
   -0.1867   -7.9842    6.7538 H   0  0  0  0  0  0  0  0  0  0  0  0
    2.5172   -9.4722    4.9895 H   0  0  0  0  0  0  0  0  0  0  0  0
    2.3106  -10.8190    2.9296 H   0  0  0  0  0  0  0  0  0  0  0  0
    0.1691  -10.8603    1.6786 H   0  0  0  0  0  0  0  0  0  0  0  0
   -1.7395   -9.4589    2.4192 H   0  0  0  0  0  0  0  0  0  0  0  0
   -1.5913   -8.1752    4.5090 H   0  0  0  0  0  0  0  0  0  0  0  0
    2.0290   -5.8274   10.1732 H   0  0  0  0  0  0  0  0  0  0  0  0
    0.2795   -5.6680    9.9919 H   0  0  0  0  0  0  0  0  0  0  0  0
    1.3487   -4.3233    9.5488 H   0  0  0  0  0  0  0  0  0  0  0  0
    4.3467   -1.3888    5.0023 H   0  0  0  0  0  0  0  0  0  0  0  0
  1  2  1  0
  1 36  1  0
  1 37  1  0
  1 38  1  0
  2  3  1  0
  2 39  1  0
  2 40  1  0
  3  4  1  0
  3 41  1  0
  3 71  1  0
  5  4  1  6
  4 42  1  0
  4 43  1  0
  5  7  1  0
  5 17  1  0
  5  6  1  0
  6  7  1  0
  7  8  1  6
  7 10  1  0
  8  9  1  0
  8 44  1  0
  8 45  1  0
  9 46  1  0
  9 47  1  0
  9 48  1  0
 10 19  1  0
 10 11  1  0
 10 49  1  6
 11 15  1  0
 11 12  1  0
 11 50  1  6
 13 12  1  1
 12 51  1  0
 12 52  1  0
 13 24  1  0
 13 14  1  0
 13 19  1  0
 14 15  1  0
 14 17  1  0
 14 53  1  1
 15 16  2  0
 17 18  1  0
 17 54  1  6
 18 55  1  0
 19 20  1  0
 19 56  1  1
 20 21  1  0
 20 22  1  0
 20 57  1  6
 21 58  1  0
 22 23  1  0
 23 24  1  0
 23 59  1  0
 23 60  1  0
 24 25  1  1
 24 32  1  0
 25 26  1  0
 25 61  1  0
 25 62  1  0
 26 31  1  0
 26 27  2  0
 27 28  1  0
 27 63  1  0
 28 29  2  0
 28 64  1  0
 29 30  1  0
 29 65  1  0
 30 31  2  0
 30 66  1  0
 31 67  1  0
 32 33  2  0
 32 34  1  0
 34 35  1  0
 35 68  1  0
 35 69  1  0
 35 70  1  0
M  CHG  1   3   1
M  END
>  <i_m_ct_stereo_status>  (296) 
1

>  <s_m_source_file>  (296) 
/var/tmp/pbs.5076255.sched01/tmp1uy3qkd6/1269t22etaf.sdf

>  <i_m_source_file_index>  (296) 
10

>  <i_lp_mmshare_version>  (296) 
48012

>  <i_f3d_flags>  (296) 
0

>  <s_epik_input>  (296) 
W0NIM11bQ0gyXVtOSF1bQ0gyXVtDQF0oTzEpKFtDQEBIXTJbT0hdKVtDQEBdMShbQ0gyXVtDSDNdKVtDQEBIXShbQ0BIXShbQ0gyXTMpQyg9TylbQ0BASF0yW0NAXTM0NSlbQ0BASF00W0NAQEhdKFtPSF0pT1tDSDJdW0NAQF01KEMoPU8pT1tDSDNdKVtDSDJdYzZbY0hdW2NIXVtjSF1bY0hdW2NIXTY=

>  <s_epik_cmdline>  (296) 
J2VwaWtfcHl0aG9uJywgJy1waHQnLCAnMi4wJywgJy1waCcsICc3LjAnLCAnLXRuJywgJzgnLCAnLW1hJywgJzIwMCcsICctaW1hZScsICc8aW5maWxlLm1hZT4nLCAnLW9tYWUnLCAnPG91dGZpbGUubWFlPic=

>  <r_epik_Ionization_Penalty>  (296) 
0.00158317

>  <r_epik_Ionization_Penalty_Charging>  (296) 
0.00158122

>  <r_epik_Ionization_Penalty_Neutral>  (296) 
1.95382e-06

>  <r_epik_State_Penalty>  (296) 
0.00106311

>  <r_epik_Charging_Adjusted_Penalty>  (296) 
0.00264433

>  <i_epik_Tot_Q>  (296) 
1

>  <i_epik_Tot_abs_Q>  (296) 
1

>  <s_epik_Chemistry_Notes>  (296) 
This compound has an ester and may undergo hydrolysis at high or low pH. This compound contains an acetal/aminal-like group ( X-CH(R)-Y where X, Y are N, S, or O) that may be acid/base labile, releasing an aldehyde.

>  <s_lp_Force_Field>  (296) 
OPLS3e

>  <r_lp_Energy>  (296) 
75.4326

>  <b_lp_Chiralities_Consistent>  (296) 
1

>  <s_lp_Variant>  (296) 
97:0-1

>  <s_i_glide_gridfile>  (296) 
pfpi4k_grid

>  <i_i_glide_lignum>  (296) 
10

>  <i_i_glide_rotatable_bonds>  (296) 
10

>  <r_i_docking_score>  (296) 
-2.62415

>  <r_i_glide_ligand_efficiency>  (296) 
-0.0749756

>  <r_i_glide_ligand_efficiency_sa>  (296) 
-0.24525

>  <r_i_glide_ligand_efficiency_ln>  (296) 
-0.576058

>  <r_i_glide_gscore>  (296) 
-2.62415

>  <r_i_glide_lipo>  (296) 
-0.613583

>  <r_i_glide_hbond>  (296) 
-0.0943459

>  <r_i_glide_metal>  (296) 
-0

>  <r_i_glide_rewards>  (296) 
-0.591519

>  <r_i_glide_evdw>  (296) 
-21.5393

>  <r_i_glide_ecoul>  (296) 
-4.23903

>  <r_i_glide_erotb>  (296) 
0.429199

>  <r_i_glide_esite>  (296) 
-0.0410789

>  <r_i_glide_emodel>  (296) 
-36.2218

>  <r_i_glide_energy>  (296) 
-25.7783

>  <r_i_glide_einternal>  (296) 
3.27231

>  <r_i_glide_intrahb_reward>  (296) 
-0.5

>  <i_i_glide_confnum>  (296) 
2

>  <i_i_glide_posenum>  (296) 
15

>  <r_i_glide_eff_state_penalty>  (296) 
0

>  <ligand_id>  (296) 
97

>  <original_smiles>  (296) 
CCNCC12OC1(CC)C1C3CC4(C(C3=O)C2O)C1C(O)OCC4(Cc1ccccc1)C(=O)OC

>  <smiles>  (296) 
[H]OC1([H])OC([H])([H])C(C(=O)OC([H])([H])[H])(C([H])([H])c2c([H])c([H])c([H])c([H])c2[H])C23C([H])([H])C4([H])C(=O)C2([H])C([H])(O[H])C2(C([H])([H])[N+]([H])([H])C([H])([H])C([H])([H])[H])OC2(C([H])([H])C([H])([H])[H])C4([H])C13[H]

$$$$
97:0:2
     RDKit          3D

 71 76  0  0  1  0  0  0  0  0999 V2000
    4.0898  -12.3335    4.3738 C   0  0  0  0  0  0  0  0  0  0  0  0
    3.0848  -11.4687    5.1285 C   0  0  0  0  0  0  0  0  0  0  0  0
    1.7763  -11.3812    4.4718 N   0  0  0  0  0  0  0  0  0  0  0  0
    0.7915  -10.4358    5.0426 C   0  0  0  0  0  0  0  0  0  0  0  0
    1.3226   -8.9949    5.0438 C   0  0  1  0  0  0  0  0  0  0  0  0
    0.8015   -8.1749    6.1246 O   0  0  0  0  0  0  0  0  0  0  0  0
    2.2053   -8.4543    6.2099 C   0  0  1  0  0  0  0  0  0  0  0  0
    2.5922   -9.3296    7.4025 C   0  0  0  0  0  0  0  0  0  0  0  0
    2.5048   -8.6894    8.7904 C   0  0  0  0  0  0  0  0  0  0  0  0
    3.2043   -7.3071    5.9469 C   0  0  1  0  0  0  0  0  0  0  0  0
    4.3651   -7.7087    4.9331 C   0  0  2  0  0  0  0  0  0  0  0  0
    4.6344   -6.4503    4.0976 C   0  0  0  0  0  0  0  0  0  0  0  0
    3.1276   -6.2101    3.7651 C   0  0  1  0  0  0  0  0  0  0  0  0
    2.6803   -7.6378    3.2074 C   0  0  1  0  0  0  0  0  0  0  0  0
    3.8190   -8.4620    3.7420 C   0  0  0  0  0  0  0  0  0  0  0  0
    4.2899   -9.4887    3.2551 O   0  0  0  0  0  0  0  0  0  0  0  0
    1.3134   -8.2795    3.6556 C   0  0  1  0  0  0  0  0  0  0  0  0
    0.9468   -9.1968    2.6377 O   0  0  0  0  0  0  0  0  0  0  0  0
    2.7057   -6.0155    5.2333 C   0  0  1  0  0  0  0  0  0  0  0  0
    1.2606   -5.4672    5.4144 C   0  0  1  0  0  0  0  0  0  0  0  0
    1.0860   -5.0944    6.7752 O   0  0  0  0  0  0  0  0  0  0  0  0
    1.1057   -4.3682    4.5777 O   0  0  0  0  0  0  0  0  0  0  0  0
    1.3127   -4.6410    3.1854 C   0  0  0  0  0  0  0  0  0  0  0  0
    2.8003   -4.9496    2.8827 C   0  0  1  0  0  0  0  0  0  0  0  0
    3.7178   -3.7083    3.2325 C   0  0  0  0  0  0  0  0  0  0  0  0
    3.2430   -2.3251    2.7647 C   0  0  0  0  0  0  0  0  0  0  0  0
    3.8666   -1.6933    1.6695 C   0  0  0  0  0  0  0  0  0  0  0  0
    3.4290   -0.4225    1.2347 C   0  0  0  0  0  0  0  0  0  0  0  0
    2.3526    0.2056    1.8847 C   0  0  0  0  0  0  0  0  0  0  0  0
    1.7307   -0.4116    2.9774 C   0  0  0  0  0  0  0  0  0  0  0  0
    2.1998   -1.6549    3.4380 C   0  0  0  0  0  0  0  0  0  0  0  0
    2.9846   -5.2766    1.3722 C   0  0  0  0  0  0  0  0  0  0  0  0
    2.0275   -5.4404    0.6135 O   0  0  0  0  0  0  0  0  0  0  0  0
    4.2741   -5.4251    1.0187 O   0  0  0  0  0  0  0  0  0  0  0  0
    4.6132   -5.7271   -0.3240 C   0  0  0  0  0  0  0  0  0  0  0  0
    5.0664  -12.1795    4.8252 H   0  0  0  0  0  0  0  0  0  0  0  0
    4.1491  -12.0175    3.3291 H   0  0  0  0  0  0  0  0  0  0  0  0
    3.8412  -13.3957    4.4248 H   0  0  0  0  0  0  0  0  0  0  0  0
    2.9741  -11.8986    6.1237 H   0  0  0  0  0  0  0  0  0  0  0  0
    3.5620  -10.5163    5.1511 H   0  0  0  0  0  0  0  0  0  0  0  0
    1.9301  -11.1151    3.5054 H   0  0  0  0  0  0  0  0  0  0  0  0
   -0.1456  -10.4579    4.4795 H   0  0  0  0  0  0  0  0  0  0  0  0
    0.5231  -10.7507    6.0433 H   0  0  0  0  0  0  0  0  0  0  0  0
    1.9360  -10.1975    7.4444 H   0  0  0  0  0  0  0  0  0  0  0  0
    3.6120   -9.7069    7.2670 H   0  0  0  0  0  0  0  0  0  0  0  0
    2.6346   -9.4752    9.5397 H   0  0  0  0  0  0  0  0  0  0  0  0
    1.5385   -8.2151    8.9760 H   0  0  0  0  0  0  0  0  0  0  0  0
    3.3030   -7.9651    8.9544 H   0  0  0  0  0  0  0  0  0  0  0  0
    3.6424   -7.0135    6.9061 H   0  0  0  0  0  0  0  0  0  0  0  0
    5.2338   -8.1849    5.3592 H   0  0  0  0  0  0  0  0  0  0  0  0
    5.1324   -5.6653    4.6692 H   0  0  0  0  0  0  0  0  0  0  0  0
    5.2663   -6.6079    3.2122 H   0  0  0  0  0  0  0  0  0  0  0  0
    2.7522   -7.6688    2.1267 H   0  0  0  0  0  0  0  0  0  0  0  0
    0.5093   -7.5359    3.6284 H   0  0  0  0  0  0  0  0  0  0  0  0
    0.0537   -9.4655    2.7702 H   0  0  0  0  0  0  0  0  0  0  0  0
    3.3054   -5.2144    5.6625 H   0  0  0  0  0  0  0  0  0  0  0  0
    0.4633   -6.1476    5.1733 H   0  0  0  0  0  0  0  0  0  0  0  0
    1.8067   -4.5501    7.0081 H   0  0  0  0  0  0  0  0  0  0  0  0
    0.6544   -5.4488    2.8658 H   0  0  0  0  0  0  0  0  0  0  0  0
    1.0068   -3.7713    2.6135 H   0  0  0  0  0  0  0  0  0  0  0  0
    3.8415   -3.6193    4.3077 H   0  0  0  0  0  0  0  0  0  0  0  0
    4.7374   -3.8617    2.8771 H   0  0  0  0  0  0  0  0  0  0  0  0
    4.6769   -2.1782    1.1523 H   0  0  0  0  0  0  0  0  0  0  0  0
    3.9121    0.0564    0.4014 H   0  0  0  0  0  0  0  0  0  0  0  0
    1.9953    1.1615    1.5356 H   0  0  0  0  0  0  0  0  0  0  0  0
    0.8977    0.0585    3.4701 H   0  0  0  0  0  0  0  0  0  0  0  0
    1.7275   -2.0905    4.2988 H   0  0  0  0  0  0  0  0  0  0  0  0
    5.6999   -5.7638   -0.4191 H   0  0  0  0  0  0  0  0  0  0  0  0
    4.2350   -4.9557   -0.9963 H   0  0  0  0  0  0  0  0  0  0  0  0
    4.2099   -6.6948   -0.6252 H   0  0  0  0  0  0  0  0  0  0  0  0
    1.3554  -12.3050    4.4229 H   0  0  0  0  0  0  0  0  0  0  0  0
  1  2  1  0
  1 36  1  0
  1 37  1  0
  1 38  1  0
  2  3  1  0
  2 39  1  0
  2 40  1  0
  3  4  1  0
  3 41  1  0
  3 71  1  0
  5  4  1  6
  4 42  1  0
  4 43  1  0
  5  7  1  0
  5 17  1  0
  5  6  1  0
  6  7  1  0
  7  8  1  1
  7 10  1  0
  8  9  1  0
  8 44  1  0
  8 45  1  0
  9 46  1  0
  9 47  1  0
  9 48  1  0
 10 19  1  0
 10 11  1  0
 10 49  1  1
 11 15  1  0
 11 12  1  0
 11 50  1  1
 13 12  1  1
 12 51  1  0
 12 52  1  0
 13 24  1  0
 13 14  1  0
 13 19  1  0
 14 15  1  0
 14 17  1  0
 14 53  1  6
 15 16  2  0
 17 18  1  0
 17 54  1  1
 18 55  1  0
 19 20  1  0
 19 56  1  1
 20 21  1  0
 20 22  1  0
 20 57  1  6
 21 58  1  0
 22 23  1  0
 23 24  1  0
 23 59  1  0
 23 60  1  0
 24 25  1  1
 24 32  1  0
 25 26  1  0
 25 61  1  0
 25 62  1  0
 26 31  1  0
 26 27  2  0
 27 28  1  0
 27 63  1  0
 28 29  2  0
 28 64  1  0
 29 30  1  0
 29 65  1  0
 30 31  2  0
 30 66  1  0
 31 67  1  0
 32 33  2  0
 32 34  1  0
 34 35  1  0
 35 68  1  0
 35 69  1  0
 35 70  1  0
M  CHG  1   3   1
M  END
>  <i_m_ct_stereo_status>  (297) 
1

>  <s_m_source_file>  (297) 
/var/tmp/pbs.5076255.sched01/tmp1uy3qkd6/1269t22etaf.sdf

>  <i_m_source_file_index>  (297) 
10

>  <i_lp_mmshare_version>  (297) 
48012

>  <i_f3d_flags>  (297) 
0

>  <s_epik_input>  (297) 
W0NIM11bQ0gyXVtOSF1bQ0gyXVtDQF0oTzEpKFtDQEBIXTJbT0hdKVtDQEBdMShbQ0gyXVtDSDNdKVtDQEBIXShbQ0BIXShbQ0gyXTMpQyg9TylbQ0BASF0yW0NAXTM0NSlbQ0BASF00W0NAQEhdKFtPSF0pT1tDSDJdW0NAQF01KEMoPU8pT1tDSDNdKVtDSDJdYzZbY0hdW2NIXVtjSF1bY0hdW2NIXTY=

>  <s_epik_cmdline>  (297) 
J2VwaWtfcHl0aG9uJywgJy1waHQnLCAnMi4wJywgJy1waCcsICc3LjAnLCAnLXRuJywgJzgnLCAnLW1hJywgJzIwMCcsICctaW1hZScsICc8aW5maWxlLm1hZT4nLCAnLW9tYWUnLCAnPG91dGZpbGUubWFlPic=

>  <r_epik_Ionization_Penalty>  (297) 
0.00158317

>  <r_epik_Ionization_Penalty_Charging>  (297) 
0.00158122

>  <r_epik_Ionization_Penalty_Neutral>  (297) 
1.95382e-06

>  <r_epik_State_Penalty>  (297) 
0.00106311

>  <r_epik_Charging_Adjusted_Penalty>  (297) 
0.00264433

>  <i_epik_Tot_Q>  (297) 
1

>  <i_epik_Tot_abs_Q>  (297) 
1

>  <s_epik_Chemistry_Notes>  (297) 
This compound has an ester and may undergo hydrolysis at high or low pH. This compound contains an acetal/aminal-like group ( X-CH(R)-Y where X, Y are N, S, or O) that may be acid/base labile, releasing an aldehyde.

>  <s_lp_Force_Field>  (297) 
OPLS3e

>  <r_lp_Energy>  (297) 
75.4326

>  <b_lp_Chiralities_Consistent>  (297) 
1

>  <s_lp_Variant>  (297) 
97:0-1

>  <s_i_glide_gridfile>  (297) 
pfpi4k_grid

>  <i_i_glide_lignum>  (297) 
10

>  <i_i_glide_rotatable_bonds>  (297) 
10

>  <r_i_docking_score>  (297) 
-2.17139

>  <r_i_glide_ligand_efficiency>  (297) 
-0.0620396

>  <r_i_glide_ligand_efficiency_sa>  (297) 
-0.202936

>  <r_i_glide_ligand_efficiency_ln>  (297) 
-0.476668

>  <r_i_glide_gscore>  (297) 
-2.17139

>  <r_i_glide_lipo>  (297) 
-0.000161038

>  <r_i_glide_hbond>  (297) 
-0.048547

>  <r_i_glide_metal>  (297) 
-0

>  <r_i_glide_rewards>  (297) 
-0.591519

>  <r_i_glide_evdw>  (297) 
-23.1028

>  <r_i_glide_ecoul>  (297) 
-5.22531

>  <r_i_glide_erotb>  (297) 
0.429199

>  <r_i_glide_esite>  (297) 
-0.0214248

>  <r_i_glide_emodel>  (297) 
-36.0372

>  <r_i_glide_energy>  (297) 
-28.3281

>  <r_i_glide_einternal>  (297) 
1.93049

>  <r_i_glide_intrahb_reward>  (297) 
-0.5

>  <i_i_glide_confnum>  (297) 
1

>  <i_i_glide_posenum>  (297) 
9

>  <r_i_glide_eff_state_penalty>  (297) 
0

>  <ligand_id>  (297) 
97

>  <original_smiles>  (297) 
CCNCC12OC1(CC)C1C3CC4(C(C3=O)C2O)C1C(O)OCC4(Cc1ccccc1)C(=O)OC

>  <smiles>  (297) 
[H]OC1([H])OC([H])([H])C(C(=O)OC([H])([H])[H])(C([H])([H])c2c([H])c([H])c([H])c([H])c2[H])C23C([H])([H])C4([H])C(=O)C2([H])C([H])(O[H])C2(C([H])([H])[N+]([H])([H])C([H])([H])C([H])([H])[H])OC2(C([H])([H])C([H])([H])[H])C4([H])C13[H]

$$$$
98:0:0
     RDKit          3D

 51 53  0  0  1  0  0  0  0  0999 V2000
    9.0299   -5.6910    2.0996 C   0  0  0  0  0  0  0  0  0  0  0  0
    8.4922   -4.6584    1.2871 O   0  0  0  0  0  0  0  0  0  0  0  0
    7.1735   -4.7523    0.8872 C   0  0  0  0  0  0  0  0  0  0  0  0
    6.3500   -5.8726    1.1502 C   0  0  0  0  0  0  0  0  0  0  0  0
    5.0021   -5.8894    0.7394 C   0  0  0  0  0  0  0  0  0  0  0  0
    4.1618   -7.1121    0.9917 C   0  0  0  0  0  0  0  0  0  0  0  0
    4.5906   -8.1970    0.6027 O   0  0  0  0  0  0  0  0  0  0  0  0
    2.9505   -6.9581    1.5887 N   0  0  0  0  0  0  0  0  0  0  0  0
    2.5438   -5.7768    2.3731 C   0  0  0  0  0  0  0  0  0  0  0  0
    2.1138   -6.1890    3.7947 C   0  0  0  0  0  0  0  0  0  0  0  0
    1.0250   -7.2775    3.8008 C   0  0  1  0  0  0  0  0  0  0  0  0
   -0.3613   -6.7289    3.4005 C   0  0  0  0  0  0  0  0  0  0  0  0
   -1.4308   -7.8331    3.3985 C   0  0  0  0  0  0  0  0  0  0  0  0
   -1.0232   -8.9920    2.4801 C   0  0  0  0  0  0  0  0  0  0  0  0
    0.3570   -9.5510    2.8676 C   0  0  0  0  0  0  0  0  0  0  0  0
    1.4576   -8.4666    2.9118 C   0  0  1  0  0  0  0  0  0  0  0  0
    1.9034   -7.9948    1.5086 C   0  0  0  0  0  0  0  0  0  0  0  0
    4.4792   -4.7872    0.0265 C   0  0  0  0  0  0  0  0  0  0  0  0
    5.2856   -3.6564   -0.2489 C   0  0  0  0  0  0  0  0  0  0  0  0
    4.8467   -2.5396   -0.9343 O   0  0  0  0  0  0  0  0  0  0  0  0
    3.4957   -2.4938   -1.3746 C   0  0  0  0  0  0  0  0  0  0  0  0
    6.6319   -3.6545    0.1746 C   0  0  0  0  0  0  0  0  0  0  0  0
    7.4034   -2.5507   -0.1014 O   0  0  0  0  0  0  0  0  0  0  0  0
    8.4185   -2.7829   -1.0656 C   0  0  0  0  0  0  0  0  0  0  0  0
   10.0741   -5.4684    2.3116 H   0  0  0  0  0  0  0  0  0  0  0  0
    9.0015   -6.6546    1.5924 H   0  0  0  0  0  0  0  0  0  0  0  0
    8.5046   -5.7603    3.0530 H   0  0  0  0  0  0  0  0  0  0  0  0
    6.7315   -6.7398    1.6682 H   0  0  0  0  0  0  0  0  0  0  0  0
    3.3454   -5.0486    2.4911 H   0  0  0  0  0  0  0  0  0  0  0  0
    1.7386   -5.2592    1.8554 H   0  0  0  0  0  0  0  0  0  0  0  0
    2.9867   -6.5634    4.3338 H   0  0  0  0  0  0  0  0  0  0  0  0
    1.7752   -5.3139    4.3516 H   0  0  0  0  0  0  0  0  0  0  0  0
    0.9336   -7.6447    4.8245 H   0  0  0  0  0  0  0  0  0  0  0  0
   -0.6536   -5.9380    4.0916 H   0  0  0  0  0  0  0  0  0  0  0  0
   -0.3059   -6.2785    2.4101 H   0  0  0  0  0  0  0  0  0  0  0  0
   -1.5768   -8.2081    4.4123 H   0  0  0  0  0  0  0  0  0  0  0  0
   -2.3935   -7.4362    3.0774 H   0  0  0  0  0  0  0  0  0  0  0  0
   -1.7681   -9.7862    2.5337 H   0  0  0  0  0  0  0  0  0  0  0  0
   -1.0117   -8.6532    1.4453 H   0  0  0  0  0  0  0  0  0  0  0  0
    0.2771  -10.0197    3.8504 H   0  0  0  0  0  0  0  0  0  0  0  0
    0.6402  -10.3483    2.1794 H   0  0  0  0  0  0  0  0  0  0  0  0
    2.3340   -8.9244    3.3772 H   0  0  0  0  0  0  0  0  0  0  0  0
    1.0600   -7.5864    0.9544 H   0  0  0  0  0  0  0  0  0  0  0  0
    2.2260   -8.8670    0.9364 H   0  0  0  0  0  0  0  0  0  0  0  0
    3.4577   -4.8356   -0.3174 H   0  0  0  0  0  0  0  0  0  0  0  0
    3.3119   -1.5437   -1.8761 H   0  0  0  0  0  0  0  0  0  0  0  0
    2.7997   -2.5624   -0.5382 H   0  0  0  0  0  0  0  0  0  0  0  0
    3.2857   -3.2900   -2.0893 H   0  0  0  0  0  0  0  0  0  0  0  0
    9.0066   -1.8762   -1.1995 H   0  0  0  0  0  0  0  0  0  0  0  0
    7.9670   -3.0528   -2.0195 H   0  0  0  0  0  0  0  0  0  0  0  0
    9.1116   -3.5742   -0.7838 H   0  0  0  0  0  0  0  0  0  0  0  0
  1  2  1  0
  1 25  1  0
  1 26  1  0
  1 27  1  0
  2  3  1  0
  3 22  2  0
  3  4  1  0
  4  5  2  0
  4 28  1  0
  5  6  1  0
  5 18  1  0
  6  7  2  0
  6  8  1  0
  8 17  1  0
  8  9  1  0
  9 10  1  0
  9 29  1  0
  9 30  1  0
 10 11  1  0
 10 31  1  0
 10 32  1  0
 11 16  1  0
 11 12  1  0
 11 33  1  1
 12 13  1  0
 12 34  1  0
 12 35  1  0
 13 14  1  0
 13 36  1  0
 13 37  1  0
 14 15  1  0
 14 38  1  0
 14 39  1  0
 15 16  1  0
 15 40  1  0
 15 41  1  0
 16 17  1  0
 16 42  1  1
 17 43  1  0
 17 44  1  0
 18 19  2  0
 18 45  1  0
 19 20  1  0
 19 22  1  0
 20 21  1  0
 21 46  1  0
 21 47  1  0
 21 48  1  0
 22 23  1  0
 23 24  1  0
 24 49  1  0
 24 50  1  0
 24 51  1  0
M  END
>  <i_m_ct_stereo_status>  (298) 
1

>  <s_m_source_file>  (298) 
/var/tmp/pbs.5076255.sched01/tmp1uy3qkd6/1269t22etaf.sdf

>  <i_m_source_file_index>  (298) 
11

>  <i_lp_mmshare_version>  (298) 
48012

>  <i_f3d_flags>  (298) 
0

>  <s_epik_input>  (298) 
W0NIM11PYzFjKE9bQ0gzXSlbY0hdYyhbY0hdYzFPW0NIM10pQyg9TylOKFtDSDJdW0NIMl0yKVtDSDJdW0NAQEhdKFtDQEBIXTIzKVtDSDJdW0NIMl1bQ0gyXVtDSDJdMw==

>  <s_epik_cmdline>  (298) 
J2VwaWtfcHl0aG9uJywgJy1waHQnLCAnMi4wJywgJy1waCcsICc3LjAnLCAnLXRuJywgJzgnLCAnLW1hJywgJzIwMCcsICctaW1hZScsICc8aW5maWxlLm1hZT4nLCAnLW9tYWUnLCAnPG91dGZpbGUubWFlPic=

>  <r_lp_tautomer_probability>  (298) 
1

>  <r_epik_Ionization_Penalty>  (298) 
7.45049e-08

>  <r_epik_Ionization_Penalty_Charging>  (298) 
0

>  <r_epik_Ionization_Penalty_Neutral>  (298) 
7.45049e-08

>  <r_epik_State_Penalty>  (298) 
-0

>  <r_epik_Charging_Adjusted_Penalty>  (298) 
0

>  <i_epik_Tot_Q>  (298) 
0

>  <i_epik_Tot_abs_Q>  (298) 
0

>  <s_lp_Force_Field>  (298) 
OPLS3e

>  <r_lp_Energy>  (298) 
41.2021

>  <b_lp_Chiralities_Consistent>  (298) 
1

>  <s_lp_Variant>  (298) 
98:0-1

>  <s_i_glide_gridfile>  (298) 
pfpi4k_grid

>  <i_i_glide_lignum>  (298) 
11

>  <i_i_glide_rotatable_bonds>  (298) 
5

>  <r_i_docking_score>  (298) 
-3.43529

>  <r_i_glide_ligand_efficiency>  (298) 
-0.143137

>  <r_i_glide_ligand_efficiency_sa>  (298) 
-0.412879

>  <r_i_glide_ligand_efficiency_ln>  (298) 
-0.822223

>  <r_i_glide_gscore>  (298) 
-3.43529

>  <r_i_glide_lipo>  (298) 
-0.572074

>  <r_i_glide_hbond>  (298) 
0

>  <r_i_glide_metal>  (298) 
-0

>  <r_i_glide_rewards>  (298) 
-1.34603

>  <r_i_glide_evdw>  (298) 
-29.306

>  <r_i_glide_ecoul>  (298) 
-2.60639

>  <r_i_glide_erotb>  (298) 
0.339071

>  <r_i_glide_esite>  (298) 
0

>  <r_i_glide_emodel>  (298) 
-38.4437

>  <r_i_glide_energy>  (298) 
-31.9124

>  <r_i_glide_einternal>  (298) 
0.405459

>  <r_i_glide_intrahb_reward>  (298) 
-0

>  <i_i_glide_confnum>  (298) 
1

>  <i_i_glide_posenum>  (298) 
40

>  <r_i_glide_eff_state_penalty>  (298) 
0

>  <ligand_id>  (298) 
98

>  <original_smiles>  (298) 
COc1cc(C(=O)N2CCC3CCCCC3C2)cc(OC)c1OC

>  <smiles>  (298) 
[H]c1c(OC([H])([H])[H])c(OC([H])([H])[H])c(OC([H])([H])[H])c([H])c1C(=O)N1C([H])([H])C([H])([H])C2([H])C([H])([H])C([H])([H])C([H])([H])C([H])([H])C2([H])C1([H])[H]

$$$$
98:0:1
     RDKit          3D

 51 53  0  0  1  0  0  0  0  0999 V2000
    7.3300   -6.6021    1.4816 C   0  0  0  0  0  0  0  0  0  0  0  0
    7.3366   -5.3568    0.7782 O   0  0  0  0  0  0  0  0  0  0  0  0
    6.1194   -4.8064    0.4180 C   0  0  0  0  0  0  0  0  0  0  0  0
    4.8886   -5.4802    0.5525 C   0  0  0  0  0  0  0  0  0  0  0  0
    3.6597   -4.8466    0.2841 C   0  0  0  0  0  0  0  0  0  0  0  0
    2.3354   -5.5464    0.5603 C   0  0  0  0  0  0  0  0  0  0  0  0
    1.4307   -5.4103   -0.2752 O   0  0  0  0  0  0  0  0  0  0  0  0
    2.1401   -6.1898    1.7565 N   0  0  0  0  0  0  0  0  0  0  0  0
    3.1700   -6.5186    2.7874 C   0  0  0  0  0  0  0  0  0  0  0  0
    3.1671   -8.0565    2.9877 C   0  0  0  0  0  0  0  0  0  0  0  0
    1.7900   -8.5796    3.4444 C   0  0  1  0  0  0  0  0  0  0  0  0
    1.4858   -8.1656    4.9016 C   0  0  0  0  0  0  0  0  0  0  0  0
    0.1066   -8.6663    5.3379 C   0  0  0  0  0  0  0  0  0  0  0  0
   -0.9910   -8.1649    4.3873 C   0  0  0  0  0  0  0  0  0  0  0  0
   -0.6955   -8.5622    2.9296 C   0  0  0  0  0  0  0  0  0  0  0  0
    0.6947   -8.1021    2.4586 C   0  0  1  0  0  0  0  0  0  0  0  0
    0.7732   -6.5794    2.1931 C   0  0  0  0  0  0  0  0  0  0  0  0
    3.6714   -3.5478   -0.2865 C   0  0  0  0  0  0  0  0  0  0  0  0
    4.9122   -2.8801   -0.5305 C   0  0  0  0  0  0  0  0  0  0  0  0
    5.0127   -1.6350   -1.1104 O   0  0  0  0  0  0  0  0  0  0  0  0
    3.8709   -1.0740   -1.7289 C   0  0  0  0  0  0  0  0  0  0  0  0
    6.1209   -3.5117   -0.1453 C   0  0  0  0  0  0  0  0  0  0  0  0
    7.3353   -2.9047   -0.3794 O   0  0  0  0  0  0  0  0  0  0  0  0
    7.6743   -2.8599   -1.7557 C   0  0  0  0  0  0  0  0  0  0  0  0
    8.3591   -6.9037    1.6755 H   0  0  0  0  0  0  0  0  0  0  0  0
    6.8726   -7.4149    0.9098 H   0  0  0  0  0  0  0  0  0  0  0  0
    6.8253   -6.5306    2.4508 H   0  0  0  0  0  0  0  0  0  0  0  0
    4.8657   -6.5123    0.8898 H   0  0  0  0  0  0  0  0  0  0  0  0
    4.1829   -6.2420    2.5811 H   0  0  0  0  0  0  0  0  0  0  0  0
    2.9203   -5.9835    3.7213 H   0  0  0  0  0  0  0  0  0  0  0  0
    3.4555   -8.5722    2.0634 H   0  0  0  0  0  0  0  0  0  0  0  0
    3.9349   -8.3170    3.7147 H   0  0  0  0  0  0  0  0  0  0  0  0
    1.8288   -9.6745    3.4161 H   0  0  0  0  0  0  0  0  0  0  0  0
    2.2526   -8.5649    5.5672 H   0  0  0  0  0  0  0  0  0  0  0  0
    1.5263   -7.0820    5.0155 H   0  0  0  0  0  0  0  0  0  0  0  0
    0.1050   -9.7567    5.3564 H   0  0  0  0  0  0  0  0  0  0  0  0
   -0.1010   -8.3410    6.3563 H   0  0  0  0  0  0  0  0  0  0  0  0
   -1.9511   -8.5833    4.6912 H   0  0  0  0  0  0  0  0  0  0  0  0
   -1.0846   -7.0819    4.4714 H   0  0  0  0  0  0  0  0  0  0  0  0
   -0.7507   -9.6485    2.8480 H   0  0  0  0  0  0  0  0  0  0  0  0
   -1.4679   -8.1722    2.2684 H   0  0  0  0  0  0  0  0  0  0  0  0
    0.8933   -8.5875    1.5022 H   0  0  0  0  0  0  0  0  0  0  0  0
    0.5347   -6.0163    3.0975 H   0  0  0  0  0  0  0  0  0  0  0  0
   -0.0071   -6.3091    1.4688 H   0  0  0  0  0  0  0  0  0  0  0  0
    2.7287   -3.0834   -0.5675 H   0  0  0  0  0  0  0  0  0  0  0  0
    4.1658   -0.1116   -2.1445 H   0  0  0  0  0  0  0  0  0  0  0  0
    3.0735   -0.9124   -1.0044 H   0  0  0  0  0  0  0  0  0  0  0  0
    3.5098   -1.6967   -2.5485 H   0  0  0  0  0  0  0  0  0  0  0  0
    8.6347   -2.3654   -1.8596 H   0  0  0  0  0  0  0  0  0  0  0  0
    6.9529   -2.2896   -2.3360 H   0  0  0  0  0  0  0  0  0  0  0  0
    7.7477   -3.8568   -2.1919 H   0  0  0  0  0  0  0  0  0  0  0  0
  1  2  1  0
  1 25  1  0
  1 26  1  0
  1 27  1  0
  2  3  1  0
  3 22  2  0
  3  4  1  0
  4  5  2  0
  4 28  1  0
  5  6  1  0
  5 18  1  0
  6  7  2  0
  6  8  1  0
  8 17  1  0
  8  9  1  0
  9 10  1  0
  9 29  1  0
  9 30  1  0
 10 11  1  0
 10 31  1  0
 10 32  1  0
 11 16  1  0
 11 12  1  0
 11 33  1  1
 12 13  1  0
 12 34  1  0
 12 35  1  0
 13 14  1  0
 13 36  1  0
 13 37  1  0
 14 15  1  0
 14 38  1  0
 14 39  1  0
 15 16  1  0
 15 40  1  0
 15 41  1  0
 16 17  1  0
 16 42  1  6
 17 43  1  0
 17 44  1  0
 18 19  2  0
 18 45  1  0
 19 20  1  0
 19 22  1  0
 20 21  1  0
 21 46  1  0
 21 47  1  0
 21 48  1  0
 22 23  1  0
 23 24  1  0
 24 49  1  0
 24 50  1  0
 24 51  1  0
M  END
>  <i_m_ct_stereo_status>  (299) 
1

>  <s_m_source_file>  (299) 
/var/tmp/pbs.5076255.sched01/tmp1uy3qkd6/1269t22etaf.sdf

>  <i_m_source_file_index>  (299) 
11

>  <i_lp_mmshare_version>  (299) 
48012

>  <i_f3d_flags>  (299) 
0

>  <s_epik_input>  (299) 
W0NIM11PYzFjKE9bQ0gzXSlbY0hdYyhbY0hdYzFPW0NIM10pQyg9TylOKFtDSDJdW0NIMl0yKVtDSDJdW0NAQEhdKFtDQEBIXTIzKVtDSDJdW0NIMl1bQ0gyXVtDSDJdMw==

>  <s_epik_cmdline>  (299) 
J2VwaWtfcHl0aG9uJywgJy1waHQnLCAnMi4wJywgJy1waCcsICc3LjAnLCAnLXRuJywgJzgnLCAnLW1hJywgJzIwMCcsICctaW1hZScsICc8aW5maWxlLm1hZT4nLCAnLW9tYWUnLCAnPG91dGZpbGUubWFlPic=

>  <r_lp_tautomer_probability>  (299) 
1

>  <r_epik_Ionization_Penalty>  (299) 
7.45049e-08

>  <r_epik_Ionization_Penalty_Charging>  (299) 
0

>  <r_epik_Ionization_Penalty_Neutral>  (299) 
7.45049e-08

>  <r_epik_State_Penalty>  (299) 
-0

>  <r_epik_Charging_Adjusted_Penalty>  (299) 
0

>  <i_epik_Tot_Q>  (299) 
0

>  <i_epik_Tot_abs_Q>  (299) 
0

>  <s_lp_Force_Field>  (299) 
OPLS3e

>  <r_lp_Energy>  (299) 
41.2021

>  <b_lp_Chiralities_Consistent>  (299) 
1

>  <s_lp_Variant>  (299) 
98:0-1

>  <s_i_glide_gridfile>  (299) 
pfpi4k_grid

>  <i_i_glide_lignum>  (299) 
11

>  <i_i_glide_rotatable_bonds>  (299) 
5

>  <r_i_docking_score>  (299) 
-3.0859

>  <r_i_glide_ligand_efficiency>  (299) 
-0.128579

>  <r_i_glide_ligand_efficiency_sa>  (299) 
-0.370887

>  <r_i_glide_ligand_efficiency_ln>  (299) 
-0.738598

>  <r_i_glide_gscore>  (299) 
-3.0859

>  <r_i_glide_lipo>  (299) 
-0.337065

>  <r_i_glide_hbond>  (299) 
-0.205017

>  <r_i_glide_metal>  (299) 
-0

>  <r_i_glide_rewards>  (299) 
-1.13576

>  <r_i_glide_evdw>  (299) 
-25.369

>  <r_i_glide_ecoul>  (299) 
-2.72571

>  <r_i_glide_erotb>  (299) 
0.339071

>  <r_i_glide_esite>  (299) 
-0.0698259

>  <r_i_glide_emodel>  (299) 
-31.4322

>  <r_i_glide_energy>  (299) 
-28.0947

>  <r_i_glide_einternal>  (299) 
1.46154

>  <r_i_glide_intrahb_reward>  (299) 
-0

>  <i_i_glide_confnum>  (299) 
4

>  <i_i_glide_posenum>  (299) 
9

>  <r_i_glide_eff_state_penalty>  (299) 
0

>  <ligand_id>  (299) 
98

>  <original_smiles>  (299) 
COc1cc(C(=O)N2CCC3CCCCC3C2)cc(OC)c1OC

>  <smiles>  (299) 
[H]c1c(OC([H])([H])[H])c(OC([H])([H])[H])c(OC([H])([H])[H])c([H])c1C(=O)N1C([H])([H])C([H])([H])C2([H])C([H])([H])C([H])([H])C([H])([H])C([H])([H])C2([H])C1([H])[H]

$$$$
98:0:2
     RDKit          3D

 51 53  0  0  1  0  0  0  0  0999 V2000
    0.9883   -1.8433    6.9881 C   0  0  0  0  0  0  0  0  0  0  0  0
   -0.1125   -0.9694    6.7663 O   0  0  0  0  0  0  0  0  0  0  0  0
   -0.0544   -0.1333    5.6671 C   0  0  0  0  0  0  0  0  0  0  0  0
    1.0172   -0.0836    4.7737 C   0  0  0  0  0  0  0  0  0  0  0  0
    0.9645    0.7110    3.6086 C   0  0  0  0  0  0  0  0  0  0  0  0
    2.0931    0.6939    2.6097 C   0  0  0  0  0  0  0  0  0  0  0  0
    2.5483    1.7880    2.2639 O   0  0  0  0  0  0  0  0  0  0  0  0
    2.5081   -0.4853    2.0695 N   0  0  0  0  0  0  0  0  0  0  0  0
    2.0828   -1.8517    2.4669 C   0  0  0  0  0  0  0  0  0  0  0  0
    3.3530   -2.6611    2.8346 C   0  0  0  0  0  0  0  0  0  0  0  0
    4.3685   -2.7378    1.6764 C   0  0  1  0  0  0  0  0  0  0  0  0
    3.8667   -3.6669    0.5503 C   0  0  0  0  0  0  0  0  0  0  0  0
    4.8611   -3.7231   -0.6148 C   0  0  0  0  0  0  0  0  0  0  0  0
    5.1504   -2.3172   -1.1609 C   0  0  0  0  0  0  0  0  0  0  0  0
    5.6477   -1.3744   -0.0485 C   0  0  0  0  0  0  0  0  0  0  0  0
    4.6900   -1.3131    1.1622 C   0  0  1  0  0  0  0  0  0  0  0  0
    3.4082   -0.4997    0.8830 C   0  0  0  0  0  0  0  0  0  0  0  0
   -0.1479    1.5660    3.4046 C   0  0  0  0  0  0  0  0  0  0  0  0
   -1.2242    1.5769    4.3341 C   0  0  0  0  0  0  0  0  0  0  0  0
   -2.3319    2.3937    4.2127 O   0  0  0  0  0  0  0  0  0  0  0  0
   -2.5087    3.1501    3.0244 C   0  0  0  0  0  0  0  0  0  0  0  0
   -1.1693    0.7154    5.4565 C   0  0  0  0  0  0  0  0  0  0  0  0
   -2.1711    0.6880    6.3802 O   0  0  0  0  0  0  0  0  0  0  0  0
   -2.1854    1.8301    7.2252 C   0  0  0  0  0  0  0  0  0  0  0  0
    0.8195   -2.4236    7.8940 H   0  0  0  0  0  0  0  0  0  0  0  0
    1.9157   -1.2877    7.1302 H   0  0  0  0  0  0  0  0  0  0  0  0
    1.1235   -2.5497    6.1668 H   0  0  0  0  0  0  0  0  0  0  0  0
    1.9178   -0.6765    4.9311 H   0  0  0  0  0  0  0  0  0  0  0  0
    1.4091   -1.9086    3.3173 H   0  0  0  0  0  0  0  0  0  0  0  0
    1.5698   -2.3103    1.5971 H   0  0  0  0  0  0  0  0  0  0  0  0
    3.8437   -2.2001    3.6937 H   0  0  0  0  0  0  0  0  0  0  0  0
    3.0735   -3.6608    3.1551 H   0  0  0  0  0  0  0  0  0  0  0  0
    5.2928   -3.1730    2.0667 H   0  0  0  0  0  0  0  0  0  0  0  0
    3.7029   -4.6710    0.9434 H   0  0  0  0  0  0  0  0  0  0  0  0
    2.8997   -3.3336    0.1718 H   0  0  0  0  0  0  0  0  0  0  0  0
    5.7872   -4.1867   -0.2754 H   0  0  0  0  0  0  0  0  0  0  0  0
    4.4667   -4.3602   -1.4075 H   0  0  0  0  0  0  0  0  0  0  0  0
    5.8935   -2.3821   -1.9552 H   0  0  0  0  0  0  0  0  0  0  0  0
    4.2485   -1.9099   -1.6186 H   0  0  0  0  0  0  0  0  0  0  0  0
    6.6203   -1.7269    0.2977 H   0  0  0  0  0  0  0  0  0  0  0  0
    5.8097   -0.3723   -0.4472 H   0  0  0  0  0  0  0  0  0  0  0  0
    5.2157   -0.7816    1.9579 H   0  0  0  0  0  0  0  0  0  0  0  0
    2.8584   -0.9331    0.0541 H   0  0  0  0  0  0  0  0  0  0  0  0
    3.6949    0.4983    0.5410 H   0  0  0  0  0  0  0  0  0  0  0  0
   -0.1487    2.2019    2.5335 H   0  0  0  0  0  0  0  0  0  0  0  0
   -3.4343    3.7195    3.1148 H   0  0  0  0  0  0  0  0  0  0  0  0
   -2.6039    2.4953    2.1565 H   0  0  0  0  0  0  0  0  0  0  0  0
   -1.6966    3.8635    2.8695 H   0  0  0  0  0  0  0  0  0  0  0  0
   -3.0072    1.7542    7.9309 H   0  0  0  0  0  0  0  0  0  0  0  0
   -2.3081    2.7587    6.6670 H   0  0  0  0  0  0  0  0  0  0  0  0
   -1.2573    1.8825    7.7941 H   0  0  0  0  0  0  0  0  0  0  0  0
  1  2  1  0
  1 25  1  0
  1 26  1  0
  1 27  1  0
  2  3  1  0
  3 22  2  0
  3  4  1  0
  4  5  2  0
  4 28  1  0
  5  6  1  0
  5 18  1  0
  6  7  2  0
  6  8  1  0
  8 17  1  0
  8  9  1  0
  9 10  1  0
  9 29  1  0
  9 30  1  0
 10 11  1  0
 10 31  1  0
 10 32  1  0
 11 16  1  0
 11 12  1  0
 11 33  1  1
 12 13  1  0
 12 34  1  0
 12 35  1  0
 13 14  1  0
 13 36  1  0
 13 37  1  0
 14 15  1  0
 14 38  1  0
 14 39  1  0
 15 16  1  0
 15 40  1  0
 15 41  1  0
 16 17  1  0
 16 42  1  1
 17 43  1  0
 17 44  1  0
 18 19  2  0
 18 45  1  0
 19 20  1  0
 19 22  1  0
 20 21  1  0
 21 46  1  0
 21 47  1  0
 21 48  1  0
 22 23  1  0
 23 24  1  0
 24 49  1  0
 24 50  1  0
 24 51  1  0
M  END
>  <i_m_ct_stereo_status>  (300) 
1

>  <s_m_source_file>  (300) 
/var/tmp/pbs.5076255.sched01/tmp1uy3qkd6/1269t22etaf.sdf

>  <i_m_source_file_index>  (300) 
11

>  <i_lp_mmshare_version>  (300) 
48012

>  <i_f3d_flags>  (300) 
0

>  <s_epik_input>  (300) 
W0NIM11PYzFjKE9bQ0gzXSlbY0hdYyhbY0hdYzFPW0NIM10pQyg9TylOKFtDSDJdW0NIMl0yKVtDSDJdW0NAQEhdKFtDQEBIXTIzKVtDSDJdW0NIMl1bQ0gyXVtDSDJdMw==

>  <s_epik_cmdline>  (300) 
J2VwaWtfcHl0aG9uJywgJy1waHQnLCAnMi4wJywgJy1waCcsICc3LjAnLCAnLXRuJywgJzgnLCAnLW1hJywgJzIwMCcsICctaW1hZScsICc8aW5maWxlLm1hZT4nLCAnLW9tYWUnLCAnPG91dGZpbGUubWFlPic=

>  <r_lp_tautomer_probability>  (300) 
1

>  <r_epik_Ionization_Penalty>  (300) 
7.45049e-08

>  <r_epik_Ionization_Penalty_Charging>  (300) 
0

>  <r_epik_Ionization_Penalty_Neutral>  (300) 
7.45049e-08

>  <r_epik_State_Penalty>  (300) 
-0

>  <r_epik_Charging_Adjusted_Penalty>  (300) 
0

>  <i_epik_Tot_Q>  (300) 
0

>  <i_epik_Tot_abs_Q>  (300) 
0

>  <s_lp_Force_Field>  (300) 
OPLS3e

>  <r_lp_Energy>  (300) 
41.2021

>  <b_lp_Chiralities_Consistent>  (300) 
1

>  <s_lp_Variant>  (300) 
98:0-1

>  <s_i_glide_gridfile>  (300) 
pfpi4k_grid

>  <i_i_glide_lignum>  (300) 
11

>  <i_i_glide_rotatable_bonds>  (300) 
5

>  <r_i_docking_score>  (300) 
-2.67353

>  <r_i_glide_ligand_efficiency>  (300) 
-0.111397

>  <r_i_glide_ligand_efficiency_sa>  (300) 
-0.321325

>  <r_i_glide_ligand_efficiency_ln>  (300) 
-0.639899

>  <r_i_glide_gscore>  (300) 
-2.67353

>  <r_i_glide_lipo>  (300) 
-0.10219

>  <r_i_glide_hbond>  (300) 
-0.16

>  <r_i_glide_metal>  (300) 
-0

>  <r_i_glide_rewards>  (300) 
-1.13576

>  <r_i_glide_evdw>  (300) 
-23.7859

>  <r_i_glide_ecoul>  (300) 
-2.51298

>  <r_i_glide_erotb>  (300) 
0.339071

>  <r_i_glide_esite>  (300) 
-0.0484118

>  <r_i_glide_emodel>  (300) 
-30.6294

>  <r_i_glide_energy>  (300) 
-26.2989

>  <r_i_glide_einternal>  (300) 
0.813915

>  <r_i_glide_intrahb_reward>  (300) 
-0

>  <i_i_glide_confnum>  (300) 
4

>  <i_i_glide_posenum>  (300) 
3

>  <r_i_glide_eff_state_penalty>  (300) 
0

>  <ligand_id>  (300) 
98

>  <original_smiles>  (300) 
COc1cc(C(=O)N2CCC3CCCCC3C2)cc(OC)c1OC

>  <smiles>  (300) 
[H]c1c(OC([H])([H])[H])c(OC([H])([H])[H])c(OC([H])([H])[H])c([H])c1C(=O)N1C([H])([H])C([H])([H])C2([H])C([H])([H])C([H])([H])C([H])([H])C([H])([H])C2([H])C1([H])[H]

$$$$
99:0:0
     RDKit          3D

 26 28  0  0  1  0  0  0  0  0999 V2000
   -9.0508   -5.5693   -8.1459 C   0  0  0  0  0  0  0  0  0  0  0  0
   -7.9225   -6.2205   -7.3825 C   0  0  0  0  0  0  0  0  0  0  0  0
   -7.4542   -7.3879   -7.6451 N   0  0  0  0  0  0  0  0  0  0  0  0
   -6.3904   -7.8542   -6.8230 C   0  0  0  0  0  0  0  0  0  0  0  0
   -5.5010   -8.7782   -7.1556 N   0  0  0  0  0  0  0  0  0  0  0  0
   -4.7046   -8.7990   -6.0554 N   0  0  0  0  0  0  0  0  0  0  0  0
   -5.0708   -7.9039   -5.0679 C   0  0  0  0  0  0  0  0  0  0  0  0
   -6.1962   -7.2784   -5.5318 C   0  0  0  0  0  0  0  0  0  0  0  0
   -7.2028   -6.2768   -5.0663 C   0  0  2  0  0  0  0  0  0  0  0  0
   -7.2171   -5.3777   -6.3034 C   0  0  2  0  0  0  0  0  0  0  0  0
   -7.3894   -4.7998   -4.9383 C   0  0  0  0  0  0  0  0  0  0  0  0
   -8.7425   -4.2179   -4.6508 C   0  0  0  0  0  0  0  0  0  0  0  0
   -6.2800   -4.0466   -4.2458 C   0  0  0  0  0  0  0  0  0  0  0  0
   -3.8824   -9.3929   -6.0110 H   0  0  0  0  0  0  0  0  0  0  0  0
   -9.8555   -5.2833   -7.4691 H   0  0  0  0  0  0  0  0  0  0  0  0
   -9.4425   -6.2813   -8.8725 H   0  0  0  0  0  0  0  0  0  0  0  0
   -8.6895   -4.6939   -8.6843 H   0  0  0  0  0  0  0  0  0  0  0  0
   -4.5297   -7.8286   -4.1411 H   0  0  0  0  0  0  0  0  0  0  0  0
   -8.1059   -6.7738   -4.8140 H   0  0  0  0  0  0  0  0  0  0  0  0
   -6.3017   -5.0296   -6.7161 H   0  0  0  0  0  0  0  0  0  0  0  0
   -8.8159   -3.1861   -4.9903 H   0  0  0  0  0  0  0  0  0  0  0  0
   -8.9363   -4.2701   -3.5849 H   0  0  0  0  0  0  0  0  0  0  0  0
   -9.5033   -4.7799   -5.1815 H   0  0  0  0  0  0  0  0  0  0  0  0
   -6.2641   -3.0198   -4.5793 H   0  0  0  0  0  0  0  0  0  0  0  0
   -5.3161   -4.4938   -4.4792 H   0  0  0  0  0  0  0  0  0  0  0  0
   -6.4314   -4.0664   -3.1666 H   0  0  0  0  0  0  0  0  0  0  0  0
  1  2  1  0
  1 15  1  0
  1 16  1  0
  1 17  1  0
  2 10  1  0
  2  3  2  0
  3  4  1  0
  4  8  1  0
  4  5  2  0
  5  6  1  0
  6 14  1  0
  6  7  1  0
  7  8  2  0
  7 18  1  0
  8  9  1  0
  9 11  1  0
  9 10  1  0
  9 19  1  6
 10 11  1  0
 10 20  1  6
 11 12  1  0
 11 13  1  0
 12 21  1  0
 12 22  1  0
 12 23  1  0
 13 24  1  0
 13 25  1  0
 13 26  1  0
M  END
>  <i_m_ct_stereo_status>  (301) 
1

>  <s_m_source_file>  (301) 
/var/tmp/pbs.5076255.sched01/tmp1uy3qkd6/1269t22etaf.sdf

>  <i_m_source_file_index>  (301) 
12

>  <i_lp_mmshare_version>  (301) 
48012

>  <i_f3d_flags>  (301) 
0

>  <s_epik_input>  (301) 
W0NIM11DKD1OMSlbQ0BASF0oQzIoW0NIM10pW0NIM10pW0NASF0yYyhjMTMpW2NIXVtuSF1uMw==

>  <s_epik_cmdline>  (301) 
J2VwaWtfcHl0aG9uJywgJy1waHQnLCAnMi4wJywgJy1waCcsICc3LjAnLCAnLXRuJywgJzgnLCAnLW1hJywgJzIwMCcsICctaW1hZScsICc8aW5maWxlLm1hZT4nLCAnLW9tYWUnLCAnPG91dGZpbGUubWFlPic=

>  <r_lp_tautomer_probability>  (301) 
1

>  <r_epik_Ionization_Penalty>  (301) 
0.000124634

>  <r_epik_Ionization_Penalty_Charging>  (301) 
0

>  <r_epik_Ionization_Penalty_Neutral>  (301) 
0.000124634

>  <r_epik_State_Penalty>  (301) 
-0

>  <r_epik_Charging_Adjusted_Penalty>  (301) 
0

>  <i_epik_Tot_Q>  (301) 
0

>  <i_epik_Tot_abs_Q>  (301) 
0

>  <s_epik_Chemistry_Notes>  (301) 
This compound has an imine and may undergo hydrolysis.

>  <s_lp_Force_Field>  (301) 
OPLS3e

>  <r_lp_Energy>  (301) 
53.6764

>  <b_lp_Chiralities_Consistent>  (301) 
1

>  <s_lp_Variant>  (301) 
99:0-1

>  <s_i_glide_gridfile>  (301) 
pfpi4k_grid

>  <i_i_glide_lignum>  (301) 
12

>  <i_i_glide_rotatable_bonds>  (301) 
0

>  <r_i_docking_score>  (301) 
-6.13631

>  <r_i_glide_ligand_efficiency>  (301) 
-0.472024

>  <r_i_glide_ligand_efficiency_sa>  (301) 
-1.10989

>  <r_i_glide_ligand_efficiency_ln>  (301) 
-1.72129

>  <r_i_glide_gscore>  (301) 
-6.13631

>  <r_i_glide_lipo>  (301) 
-2.13091

>  <r_i_glide_hbond>  (301) 
0

>  <r_i_glide_metal>  (301) 
-0

>  <r_i_glide_rewards>  (301) 
-3.0937

>  <r_i_glide_evdw>  (301) 
-15.0612

>  <r_i_glide_ecoul>  (301) 
-1.05761

>  <r_i_glide_erotb>  (301) 
0

>  <r_i_glide_esite>  (301) 
0

>  <r_i_glide_emodel>  (301) 
-23.6438

>  <r_i_glide_energy>  (301) 
-16.1188

>  <r_i_glide_einternal>  (301) 
0

>  <r_i_glide_intrahb_reward>  (301) 
-0

>  <i_i_glide_confnum>  (301) 
2

>  <i_i_glide_posenum>  (301) 
12

>  <r_i_glide_eff_state_penalty>  (301) 
0

>  <ligand_id>  (301) 
99

>  <original_smiles>  (301) 
CC1=Nc2n[nH]cc2C2C1C2(C)C

>  <smiles>  (301) 
[H]c1c2c(nn1[H])N=C(C([H])([H])[H])C1([H])C2([H])C1(C([H])([H])[H])C([H])([H])[H]

$$$$
99:0:1
     RDKit          3D

 26 28  0  0  1  0  0  0  0  0999 V2000
    2.1773    5.8419    4.9876 C   0  0  0  0  0  0  0  0  0  0  0  0
    1.1150    4.9531    4.3942 C   0  0  0  0  0  0  0  0  0  0  0  0
   -0.1413    5.2385    4.4384 N   0  0  0  0  0  0  0  0  0  0  0  0
   -1.0049    4.2866    3.8453 C   0  0  0  0  0  0  0  0  0  0  0  0
   -2.2034    4.5379    3.3548 N   0  0  0  0  0  0  0  0  0  0  0  0
   -2.5940    3.3317    2.8772 N   0  0  0  0  0  0  0  0  0  0  0  0
   -1.6502    2.3345    3.0440 C   0  0  0  0  0  0  0  0  0  0  0  0
   -0.6072    2.9256    3.6929 C   0  0  0  0  0  0  0  0  0  0  0  0
    0.7258    2.5592    4.2676 C   0  0  2  0  0  0  0  0  0  0  0  0
    1.5537    3.7023    3.6177 C   0  0  2  0  0  0  0  0  0  0  0  0
    2.1440    2.3367    3.8170 C   0  0  0  0  0  0  0  0  0  0  0  0
    3.2582    2.2057    4.8363 C   0  0  0  0  0  0  0  0  0  0  0  0
    2.3679    1.4196    2.6283 C   0  0  0  0  0  0  0  0  0  0  0  0
   -3.4824    3.2124    2.4108 H   0  0  0  0  0  0  0  0  0  0  0  0
    2.7762    5.2871    5.7032 H   0  0  0  0  0  0  0  0  0  0  0  0
    1.7111    6.6797    5.5026 H   0  0  0  0  0  0  0  0  0  0  0  0
    2.8235    6.2387    4.2067 H   0  0  0  0  0  0  0  0  0  0  0  0
   -1.8023    1.3200    2.6964 H   0  0  0  0  0  0  0  0  0  0  0  0
    0.6321    2.4975    5.3534 H   0  0  0  0  0  0  0  0  0  0  0  0
    1.4274    3.9435    2.5585 H   0  0  0  0  0  0  0  0  0  0  0  0
    4.2136    2.4900    4.3946 H   0  0  0  0  0  0  0  0  0  0  0  0
    3.3205    1.1827    5.2130 H   0  0  0  0  0  0  0  0  0  0  0  0
    3.0635    2.8695    5.6769 H   0  0  0  0  0  0  0  0  0  0  0  0
    3.3008    1.6532    2.1132 H   0  0  0  0  0  0  0  0  0  0  0  0
    1.5487    1.5228    1.9204 H   0  0  0  0  0  0  0  0  0  0  0  0
    2.3974    0.3816    2.9579 H   0  0  0  0  0  0  0  0  0  0  0  0
  1  2  1  0
  1 15  1  0
  1 16  1  0
  1 17  1  0
  2 10  1  0
  2  3  2  0
  3  4  1  0
  4  8  1  0
  4  5  2  0
  5  6  1  0
  6 14  1  0
  6  7  1  0
  7  8  2  0
  7 18  1  0
  8  9  1  0
  9 11  1  0
  9 10  1  0
  9 19  1  1
 10 11  1  0
 10 20  1  6
 11 12  1  0
 11 13  1  0
 12 21  1  0
 12 22  1  0
 12 23  1  0
 13 24  1  0
 13 25  1  0
 13 26  1  0
M  END
>  <i_m_ct_stereo_status>  (302) 
1

>  <s_m_source_file>  (302) 
/var/tmp/pbs.5076255.sched01/tmp1uy3qkd6/1269t22etaf.sdf

>  <i_m_source_file_index>  (302) 
12

>  <i_lp_mmshare_version>  (302) 
48012

>  <i_f3d_flags>  (302) 
0

>  <s_epik_input>  (302) 
W0NIM11DKD1OMSlbQ0BASF0oQzIoW0NIM10pW0NIM10pW0NASF0yYyhjMTMpW2NIXVtuSF1uMw==

>  <s_epik_cmdline>  (302) 
J2VwaWtfcHl0aG9uJywgJy1waHQnLCAnMi4wJywgJy1waCcsICc3LjAnLCAnLXRuJywgJzgnLCAnLW1hJywgJzIwMCcsICctaW1hZScsICc8aW5maWxlLm1hZT4nLCAnLW9tYWUnLCAnPG91dGZpbGUubWFlPic=

>  <r_lp_tautomer_probability>  (302) 
1

>  <r_epik_Ionization_Penalty>  (302) 
0.000124634

>  <r_epik_Ionization_Penalty_Charging>  (302) 
0

>  <r_epik_Ionization_Penalty_Neutral>  (302) 
0.000124634

>  <r_epik_State_Penalty>  (302) 
-0

>  <r_epik_Charging_Adjusted_Penalty>  (302) 
0

>  <i_epik_Tot_Q>  (302) 
0

>  <i_epik_Tot_abs_Q>  (302) 
0

>  <s_epik_Chemistry_Notes>  (302) 
This compound has an imine and may undergo hydrolysis.

>  <s_lp_Force_Field>  (302) 
OPLS3e

>  <r_lp_Energy>  (302) 
53.6764

>  <b_lp_Chiralities_Consistent>  (302) 
1

>  <s_lp_Variant>  (302) 
99:0-1

>  <s_i_glide_gridfile>  (302) 
pfpi4k_grid

>  <i_i_glide_lignum>  (302) 
12

>  <i_i_glide_rotatable_bonds>  (302) 
0

>  <r_i_docking_score>  (302) 
-3.94512

>  <r_i_glide_ligand_efficiency>  (302) 
-0.303471

>  <r_i_glide_ligand_efficiency_sa>  (302) 
-0.713562

>  <r_i_glide_ligand_efficiency_ln>  (302) 
-1.10664

>  <r_i_glide_gscore>  (302) 
-3.94512

>  <r_i_glide_lipo>  (302) 
-0.0222622

>  <r_i_glide_hbond>  (302) 
-0.16

>  <r_i_glide_metal>  (302) 
-0

>  <r_i_glide_rewards>  (302) 
-2.21434

>  <r_i_glide_evdw>  (302) 
-12.7551

>  <r_i_glide_ecoul>  (302) 
-5.53902

>  <r_i_glide_erotb>  (302) 
0

>  <r_i_glide_esite>  (302) 
-0.0799167

>  <r_i_glide_emodel>  (302) 
-23.1641

>  <r_i_glide_energy>  (302) 
-18.2941

>  <r_i_glide_einternal>  (302) 
0

>  <r_i_glide_intrahb_reward>  (302) 
-0

>  <i_i_glide_confnum>  (302) 
1

>  <i_i_glide_posenum>  (302) 
18

>  <r_i_glide_eff_state_penalty>  (302) 
0

>  <ligand_id>  (302) 
99

>  <original_smiles>  (302) 
CC1=Nc2n[nH]cc2C2C1C2(C)C

>  <smiles>  (302) 
[H]c1c2c(nn1[H])N=C(C([H])([H])[H])C1([H])C2([H])C1(C([H])([H])[H])C([H])([H])[H]

$$$$
99:0:2
     RDKit          3D

 26 28  0  0  1  0  0  0  0  0999 V2000
    2.9332    4.8637    4.6246 C   0  0  0  0  0  0  0  0  0  0  0  0
    1.6413    4.2455    4.1475 C   0  0  0  0  0  0  0  0  0  0  0  0
    0.4824    4.7349    4.4231 N   0  0  0  0  0  0  0  0  0  0  0  0
   -0.6313    4.0190    3.9209 C   0  0  0  0  0  0  0  0  0  0  0  0
   -1.8301    4.5216    3.6792 N   0  0  0  0  0  0  0  0  0  0  0  0
   -2.4935    3.4586    3.1583 N   0  0  0  0  0  0  0  0  0  0  0  0
   -1.7324    2.3038    3.0806 C   0  0  0  0  0  0  0  0  0  0  0  0
   -0.5154    2.6365    3.5964 C   0  0  0  0  0  0  0  0  0  0  0  0
    0.7989    1.9763    3.9055 C   0  0  2  0  0  0  0  0  0  0  0  0
    1.7220    3.0212    3.2174 C   0  0  2  0  0  0  0  0  0  0  0  0
    2.0693    1.5639    3.2108 C   0  0  0  0  0  0  0  0  0  0  0  0
    3.2795    1.1330    4.0190 C   0  0  0  0  0  0  0  0  0  0  0  0
    1.9410    0.7535    1.9310 C   0  0  0  0  0  0  0  0  0  0  0  0
   -3.4425    3.5354    2.8199 H   0  0  0  0  0  0  0  0  0  0  0  0
    3.5192    4.1405    5.1862 H   0  0  0  0  0  0  0  0  0  0  0  0
    2.7156    5.7099    5.2755 H   0  0  0  0  0  0  0  0  0  0  0  0
    3.5194    5.2234    3.7809 H   0  0  0  0  0  0  0  0  0  0  0  0
   -2.1184    1.3740    2.6798 H   0  0  0  0  0  0  0  0  0  0  0  0
    0.8609    1.8164    4.9800 H   0  0  0  0  0  0  0  0  0  0  0  0
    1.4958    3.3790    2.2146 H   0  0  0  0  0  0  0  0  0  0  0  0
    4.1995    1.2879    3.4526 H   0  0  0  0  0  0  0  0  0  0  0  0
    3.2059    0.0814    4.2999 H   0  0  0  0  0  0  0  0  0  0  0  0
    3.3447    1.7276    4.9283 H   0  0  0  0  0  0  0  0  0  0  0  0
    2.8147    0.8777    1.2881 H   0  0  0  0  0  0  0  0  0  0  0  0
    1.0588    1.0672    1.3749 H   0  0  0  0  0  0  0  0  0  0  0  0
    1.8232   -0.3048    2.1658 H   0  0  0  0  0  0  0  0  0  0  0  0
  1  2  1  0
  1 15  1  0
  1 16  1  0
  1 17  1  0
  2 10  1  0
  2  3  2  0
  3  4  1  0
  4  8  1  0
  4  5  2  0
  5  6  1  0
  6 14  1  0
  6  7  1  0
  7  8  2  0
  7 18  1  0
  8  9  1  0
  9 11  1  0
  9 10  1  0
  9 19  1  1
 10 11  1  0
 10 20  1  6
 11 12  1  0
 11 13  1  0
 12 21  1  0
 12 22  1  0
 12 23  1  0
 13 24  1  0
 13 25  1  0
 13 26  1  0
M  END
>  <i_m_ct_stereo_status>  (303) 
1

>  <s_m_source_file>  (303) 
/var/tmp/pbs.5076255.sched01/tmp1uy3qkd6/1269t22etaf.sdf

>  <i_m_source_file_index>  (303) 
12

>  <i_lp_mmshare_version>  (303) 
48012

>  <i_f3d_flags>  (303) 
0

>  <s_epik_input>  (303) 
W0NIM11DKD1OMSlbQ0BASF0oQzIoW0NIM10pW0NIM10pW0NASF0yYyhjMTMpW2NIXVtuSF1uMw==

>  <s_epik_cmdline>  (303) 
J2VwaWtfcHl0aG9uJywgJy1waHQnLCAnMi4wJywgJy1waCcsICc3LjAnLCAnLXRuJywgJzgnLCAnLW1hJywgJzIwMCcsICctaW1hZScsICc8aW5maWxlLm1hZT4nLCAnLW9tYWUnLCAnPG91dGZpbGUubWFlPic=

>  <r_lp_tautomer_probability>  (303) 
1

>  <r_epik_Ionization_Penalty>  (303) 
0.000124634

>  <r_epik_Ionization_Penalty_Charging>  (303) 
0

>  <r_epik_Ionization_Penalty_Neutral>  (303) 
0.000124634

>  <r_epik_State_Penalty>  (303) 
-0

>  <r_epik_Charging_Adjusted_Penalty>  (303) 
0

>  <i_epik_Tot_Q>  (303) 
0

>  <i_epik_Tot_abs_Q>  (303) 
0

>  <s_epik_Chemistry_Notes>  (303) 
This compound has an imine and may undergo hydrolysis.

>  <s_lp_Force_Field>  (303) 
OPLS3e

>  <r_lp_Energy>  (303) 
53.6764

>  <b_lp_Chiralities_Consistent>  (303) 
1

>  <s_lp_Variant>  (303) 
99:0-1

>  <s_i_glide_gridfile>  (303) 
pfpi4k_grid

>  <i_i_glide_lignum>  (303) 
12

>  <i_i_glide_rotatable_bonds>  (303) 
0

>  <r_i_docking_score>  (303) 
-3.86683

>  <r_i_glide_ligand_efficiency>  (303) 
-0.297449

>  <r_i_glide_ligand_efficiency_sa>  (303) 
-0.699401

>  <r_i_glide_ligand_efficiency_ln>  (303) 
-1.08468

>  <r_i_glide_gscore>  (303) 
-3.86683

>  <r_i_glide_lipo>  (303) 
0

>  <r_i_glide_hbond>  (303) 
-0.16

>  <r_i_glide_metal>  (303) 
-0

>  <r_i_glide_rewards>  (303) 
-2.21434

>  <r_i_glide_evdw>  (303) 
-13.1398

>  <r_i_glide_ecoul>  (303) 
-4.9571

>  <r_i_glide_erotb>  (303) 
0

>  <r_i_glide_esite>  (303) 
-0.0919384

>  <r_i_glide_emodel>  (303) 
-22.879

>  <r_i_glide_energy>  (303) 
-18.0969

>  <r_i_glide_einternal>  (303) 
0

>  <r_i_glide_intrahb_reward>  (303) 
-0

>  <i_i_glide_confnum>  (303) 
1

>  <i_i_glide_posenum>  (303) 
1

>  <r_i_glide_eff_state_penalty>  (303) 
0

>  <ligand_id>  (303) 
99

>  <original_smiles>  (303) 
CC1=Nc2n[nH]cc2C2C1C2(C)C

>  <smiles>  (303) 
[H]c1c2c(nn1[H])N=C(C([H])([H])[H])C1([H])C2([H])C1(C([H])([H])[H])C([H])([H])[H]

$$$$
99:1:0
     RDKit          3D

 26 28  0  0  1  0  0  0  0  0999 V2000
   -8.6914   -8.1644   -9.5862 C   0  0  0  0  0  0  0  0  0  0  0  0
   -8.1413   -7.7580   -8.2394 C   0  0  0  0  0  0  0  0  0  0  0  0
   -8.0713   -6.5235   -7.9091 N   0  0  0  0  0  0  0  0  0  0  0  0
   -7.5121   -6.1551   -6.6759 C   0  0  0  0  0  0  0  0  0  0  0  0
   -7.3886   -4.8968   -6.2895 N   0  0  0  0  0  0  0  0  0  0  0  0
   -6.7884   -5.0067   -5.0831 N   0  0  0  0  0  0  0  0  0  0  0  0
   -6.5481   -6.3177   -4.7154 C   0  0  0  0  0  0  0  0  0  0  0  0
   -6.9976   -7.0966   -5.7417 C   0  0  0  0  0  0  0  0  0  0  0  0
   -7.0806   -8.5785   -5.9905 C   0  0  1  0  0  0  0  0  0  0  0  0
   -7.6973   -8.9206   -7.3312 C   0  0  2  0  0  0  0  0  0  0  0  0
   -6.2531   -9.2797   -7.0319 C   0  0  0  0  0  0  0  0  0  0  0  0
   -5.1236   -8.5312   -7.6908 C   0  0  0  0  0  0  0  0  0  0  0  0
   -5.8817  -10.7383   -6.8104 C   0  0  0  0  0  0  0  0  0  0  0  0
   -6.5690   -4.1865   -4.5331 H   0  0  0  0  0  0  0  0  0  0  0  0
   -9.6007   -8.7555   -9.4787 H   0  0  0  0  0  0  0  0  0  0  0  0
   -7.9562   -8.7343  -10.1522 H   0  0  0  0  0  0  0  0  0  0  0  0
   -8.9347   -7.2706  -10.1559 H   0  0  0  0  0  0  0  0  0  0  0  0
   -6.1109   -6.5765   -3.7550 H   0  0  0  0  0  0  0  0  0  0  0  0
   -7.3822   -9.1622   -5.1249 H   0  0  0  0  0  0  0  0  0  0  0  0
   -8.4275   -9.7234   -7.3518 H   0  0  0  0  0  0  0  0  0  0  0  0
   -4.9264   -8.9704   -8.6695 H   0  0  0  0  0  0  0  0  0  0  0  0
   -4.2591   -8.5683   -7.0270 H   0  0  0  0  0  0  0  0  0  0  0  0
   -5.3710   -7.4872   -7.8358 H   0  0  0  0  0  0  0  0  0  0  0  0
   -5.6971  -11.2323   -7.7642 H   0  0  0  0  0  0  0  0  0  0  0  0
   -6.6949  -11.2603   -6.3125 H   0  0  0  0  0  0  0  0  0  0  0  0
   -4.9915  -10.8288   -6.1876 H   0  0  0  0  0  0  0  0  0  0  0  0
  1  2  1  0
  1 15  1  0
  1 16  1  0
  1 17  1  0
  2 10  1  0
  2  3  2  0
  3  4  1  0
  4  8  1  0
  4  5  2  0
  5  6  1  0
  6 14  1  0
  6  7  1  0
  7  8  2  0
  7 18  1  0
  8  9  1  0
  9 11  1  0
  9 10  1  0
  9 19  1  1
 10 11  1  0
 10 20  1  1
 11 12  1  0
 11 13  1  0
 12 21  1  0
 12 22  1  0
 12 23  1  0
 13 24  1  0
 13 25  1  0
 13 26  1  0
M  END
>  <i_m_ct_stereo_status>  (304) 
1

>  <s_m_source_file>  (304) 
/var/tmp/pbs.5076255.sched01/tmp1uy3qkd6/1269t22etaf.sdf

>  <i_m_source_file_index>  (304) 
13

>  <i_lp_mmshare_version>  (304) 
48012

>  <i_f3d_flags>  (304) 
0

>  <s_epik_input>  (304) 
W0NIM11DKD1OMSlbQ0BASF0oQzIoW0NIM10pW0NIM10pW0NASF0yYyhjMTMpW2NIXVtuSF1uMw==

>  <s_epik_cmdline>  (304) 
J2VwaWtfcHl0aG9uJywgJy1waHQnLCAnMi4wJywgJy1waCcsICc3LjAnLCAnLXRuJywgJzgnLCAnLW1hJywgJzIwMCcsICctaW1hZScsICc8aW5maWxlLm1hZT4nLCAnLW9tYWUnLCAnPG91dGZpbGUubWFlPic=

>  <r_lp_tautomer_probability>  (304) 
1

>  <r_epik_Ionization_Penalty>  (304) 
0.000124634

>  <r_epik_Ionization_Penalty_Charging>  (304) 
0

>  <r_epik_Ionization_Penalty_Neutral>  (304) 
0.000124634

>  <r_epik_State_Penalty>  (304) 
-0

>  <r_epik_Charging_Adjusted_Penalty>  (304) 
0

>  <i_epik_Tot_Q>  (304) 
0

>  <i_epik_Tot_abs_Q>  (304) 
0

>  <s_epik_Chemistry_Notes>  (304) 
This compound has an imine and may undergo hydrolysis.

>  <s_lp_Force_Field>  (304) 
OPLS3e

>  <r_lp_Energy>  (304) 
22.1718

>  <b_lp_Chiralities_Consistent>  (304) 
1

>  <s_lp_Variant>  (304) 
99:0-2

>  <s_i_glide_gridfile>  (304) 
pfpi4k_grid

>  <i_i_glide_lignum>  (304) 
13

>  <i_i_glide_rotatable_bonds>  (304) 
0

>  <r_i_docking_score>  (304) 
-5.52728

>  <r_i_glide_ligand_efficiency>  (304) 
-0.425175

>  <r_i_glide_ligand_efficiency_sa>  (304) 
-0.999729

>  <r_i_glide_ligand_efficiency_ln>  (304) 
-1.55045

>  <r_i_glide_gscore>  (304) 
-5.52728

>  <r_i_glide_lipo>  (304) 
-1.65749

>  <r_i_glide_hbond>  (304) 
0

>  <r_i_glide_metal>  (304) 
-0

>  <r_i_glide_rewards>  (304) 
-2.9055

>  <r_i_glide_evdw>  (304) 
-15.9065

>  <r_i_glide_ecoul>  (304) 
-1.12639

>  <r_i_glide_erotb>  (304) 
0

>  <r_i_glide_esite>  (304) 
0

>  <r_i_glide_emodel>  (304) 
-23.8543

>  <r_i_glide_energy>  (304) 
-17.0329

>  <r_i_glide_einternal>  (304) 
0

>  <r_i_glide_intrahb_reward>  (304) 
-0

>  <i_i_glide_confnum>  (304) 
2

>  <i_i_glide_posenum>  (304) 
12

>  <r_i_glide_eff_state_penalty>  (304) 
0

>  <ligand_id>  (304) 
99

>  <original_smiles>  (304) 
CC1=Nc2n[nH]cc2C2C1C2(C)C

>  <smiles>  (304) 
[H]c1c2c(nn1[H])N=C(C([H])([H])[H])C1([H])C2([H])C1(C([H])([H])[H])C([H])([H])[H]

$$$$
99:1:1
     RDKit          3D

 26 28  0  0  1  0  0  0  0  0999 V2000
  -11.7781   -7.7247   -9.3349 C   0  0  0  0  0  0  0  0  0  0  0  0
  -10.7358   -6.9416   -8.5734 C   0  0  0  0  0  0  0  0  0  0  0  0
  -10.9693   -5.7400   -8.2048 N   0  0  0  0  0  0  0  0  0  0  0  0
  -10.0015   -5.0127   -7.5009 C   0  0  0  0  0  0  0  0  0  0  0  0
  -10.1890   -3.7646   -7.1132 N   0  0  0  0  0  0  0  0  0  0  0  0
   -9.0279   -3.4633   -6.4911 N   0  0  0  0  0  0  0  0  0  0  0  0
   -8.1099   -4.5007   -6.5154 C   0  0  0  0  0  0  0  0  0  0  0  0
   -8.7199   -5.5301   -7.1744 C   0  0  0  0  0  0  0  0  0  0  0  0
   -8.3247   -6.9296   -7.5506 C   0  0  1  0  0  0  0  0  0  0  0  0
   -9.4172   -7.6800   -8.2890 C   0  0  2  0  0  0  0  0  0  0  0  0
   -8.0964   -7.3659   -8.9827 C   0  0  0  0  0  0  0  0  0  0  0  0
   -8.0394   -6.3501  -10.1146 C   0  0  0  0  0  0  0  0  0  0  0  0
   -7.1360   -8.5042   -9.2530 C   0  0  0  0  0  0  0  0  0  0  0  0
   -8.8828   -2.5547   -6.0715 H   0  0  0  0  0  0  0  0  0  0  0  0
  -12.1015   -8.6097   -8.7870 H   0  0  0  0  0  0  0  0  0  0  0  0
  -11.4014   -8.0226  -10.3107 H   0  0  0  0  0  0  0  0  0  0  0  0
  -12.6512   -7.0976   -9.4909 H   0  0  0  0  0  0  0  0  0  0  0  0
   -7.1188   -4.4135   -6.0813 H   0  0  0  0  0  0  0  0  0  0  0  0
   -7.7844   -7.4509   -6.7630 H   0  0  0  0  0  0  0  0  0  0  0  0
   -9.6117   -8.7078   -7.9874 H   0  0  0  0  0  0  0  0  0  0  0  0
   -8.3303   -6.8145  -11.0591 H   0  0  0  0  0  0  0  0  0  0  0  0
   -7.0296   -5.9562  -10.2208 H   0  0  0  0  0  0  0  0  0  0  0  0
   -8.7076   -5.5160   -9.9171 H   0  0  0  0  0  0  0  0  0  0  0  0
   -7.3982   -9.0094  -10.1830 H   0  0  0  0  0  0  0  0  0  0  0  0
   -7.1776   -9.2348   -8.4484 H   0  0  0  0  0  0  0  0  0  0  0  0
   -6.1146   -8.1347   -9.3296 H   0  0  0  0  0  0  0  0  0  0  0  0
  1  2  1  0
  1 15  1  0
  1 16  1  0
  1 17  1  0
  2 10  1  0
  2  3  2  0
  3  4  1  0
  4  8  1  0
  4  5  2  0
  5  6  1  0
  6 14  1  0
  6  7  1  0
  7  8  2  0
  7 18  1  0
  8  9  1  0
  9 11  1  0
  9 10  1  0
  9 19  1  1
 10 11  1  0
 10 20  1  1
 11 12  1  0
 11 13  1  0
 12 21  1  0
 12 22  1  0
 12 23  1  0
 13 24  1  0
 13 25  1  0
 13 26  1  0
M  END
>  <i_m_ct_stereo_status>  (305) 
1

>  <s_m_source_file>  (305) 
/var/tmp/pbs.5076255.sched01/tmp1uy3qkd6/1269t22etaf.sdf

>  <i_m_source_file_index>  (305) 
13

>  <i_lp_mmshare_version>  (305) 
48012

>  <i_f3d_flags>  (305) 
0

>  <s_epik_input>  (305) 
W0NIM11DKD1OMSlbQ0BASF0oQzIoW0NIM10pW0NIM10pW0NASF0yYyhjMTMpW2NIXVtuSF1uMw==

>  <s_epik_cmdline>  (305) 
J2VwaWtfcHl0aG9uJywgJy1waHQnLCAnMi4wJywgJy1waCcsICc3LjAnLCAnLXRuJywgJzgnLCAnLW1hJywgJzIwMCcsICctaW1hZScsICc8aW5maWxlLm1hZT4nLCAnLW9tYWUnLCAnPG91dGZpbGUubWFlPic=

>  <r_lp_tautomer_probability>  (305) 
1

>  <r_epik_Ionization_Penalty>  (305) 
0.000124634

>  <r_epik_Ionization_Penalty_Charging>  (305) 
0

>  <r_epik_Ionization_Penalty_Neutral>  (305) 
0.000124634

>  <r_epik_State_Penalty>  (305) 
-0

>  <r_epik_Charging_Adjusted_Penalty>  (305) 
0

>  <i_epik_Tot_Q>  (305) 
0

>  <i_epik_Tot_abs_Q>  (305) 
0

>  <s_epik_Chemistry_Notes>  (305) 
This compound has an imine and may undergo hydrolysis.

>  <s_lp_Force_Field>  (305) 
OPLS3e

>  <r_lp_Energy>  (305) 
22.1718

>  <b_lp_Chiralities_Consistent>  (305) 
1

>  <s_lp_Variant>  (305) 
99:0-2

>  <s_i_glide_gridfile>  (305) 
pfpi4k_grid

>  <i_i_glide_lignum>  (305) 
13

>  <i_i_glide_rotatable_bonds>  (305) 
0

>  <r_i_docking_score>  (305) 
-5.00688

>  <r_i_glide_ligand_efficiency>  (305) 
-0.385145

>  <r_i_glide_ligand_efficiency_sa>  (305) 
-0.905605

>  <r_i_glide_ligand_efficiency_ln>  (305) 
-1.40448

>  <r_i_glide_gscore>  (305) 
-5.00688

>  <r_i_glide_lipo>  (305) 
-1.33636

>  <r_i_glide_hbond>  (305) 
-0.00205874

>  <r_i_glide_metal>  (305) 
-0

>  <r_i_glide_rewards>  (305) 
-2.39426

>  <r_i_glide_evdw>  (305) 
-18.0927

>  <r_i_glide_ecoul>  (305) 
-2.25581

>  <r_i_glide_erotb>  (305) 
0

>  <r_i_glide_esite>  (305) 
-0.0311939

>  <r_i_glide_emodel>  (305) 
-26.5513

>  <r_i_glide_energy>  (305) 
-20.3485

>  <r_i_glide_einternal>  (305) 
0

>  <r_i_glide_intrahb_reward>  (305) 
-0

>  <i_i_glide_confnum>  (305) 
1

>  <i_i_glide_posenum>  (305) 
1

>  <r_i_glide_eff_state_penalty>  (305) 
0

>  <ligand_id>  (305) 
99

>  <original_smiles>  (305) 
CC1=Nc2n[nH]cc2C2C1C2(C)C

>  <smiles>  (305) 
[H]c1c2c(nn1[H])N=C(C([H])([H])[H])C1([H])C2([H])C1(C([H])([H])[H])C([H])([H])[H]

$$$$
99:1:2
     RDKit          3D

 26 28  0  0  1  0  0  0  0  0999 V2000
  -11.4889   -6.5083   -9.8982 C   0  0  0  0  0  0  0  0  0  0  0  0
  -10.3609   -6.4728   -8.8925 C   0  0  0  0  0  0  0  0  0  0  0  0
  -10.0201   -5.3709   -8.3422 N   0  0  0  0  0  0  0  0  0  0  0  0
   -8.9432   -5.3402   -7.4451 C   0  0  0  0  0  0  0  0  0  0  0  0
   -8.5200   -4.2301   -6.8723 N   0  0  0  0  0  0  0  0  0  0  0  0
   -7.4971   -4.6565   -6.0993 N   0  0  0  0  0  0  0  0  0  0  0  0
   -7.2668   -6.0187   -6.2013 C   0  0  0  0  0  0  0  0  0  0  0  0
   -8.1877   -6.4917   -7.0895 C   0  0  0  0  0  0  0  0  0  0  0  0
   -8.5136   -7.8473   -7.6453 C   0  0  1  0  0  0  0  0  0  0  0  0
   -9.6845   -7.8282   -8.6065 C   0  0  2  0  0  0  0  0  0  0  0  0
   -8.2924   -8.2182   -9.0961 C   0  0  0  0  0  0  0  0  0  0  0  0
   -7.5056   -7.3026  -10.0166 C   0  0  0  0  0  0  0  0  0  0  0  0
   -8.0256   -9.6699   -9.4480 C   0  0  0  0  0  0  0  0  0  0  0  0
   -6.9706   -4.0144   -5.5228 H   0  0  0  0  0  0  0  0  0  0  0  0
  -12.3186   -7.1215   -9.5465 H   0  0  0  0  0  0  0  0  0  0  0  0
  -11.1443   -6.8852  -10.8589 H   0  0  0  0  0  0  0  0  0  0  0  0
  -11.8682   -5.5009  -10.0494 H   0  0  0  0  0  0  0  0  0  0  0  0
   -6.4814   -6.5200   -5.6457 H   0  0  0  0  0  0  0  0  0  0  0  0
   -8.4750   -8.6415   -6.9018 H   0  0  0  0  0  0  0  0  0  0  0  0
  -10.4306   -8.6148   -8.5067 H   0  0  0  0  0  0  0  0  0  0  0  0
   -7.8093   -7.4513  -11.0551 H   0  0  0  0  0  0  0  0  0  0  0  0
   -6.4389   -7.5105   -9.9237 H   0  0  0  0  0  0  0  0  0  0  0  0
   -7.6722   -6.2586   -9.7573 H   0  0  0  0  0  0  0  0  0  0  0  0
   -8.3312   -9.8753  -10.4748 H   0  0  0  0  0  0  0  0  0  0  0  0
   -8.5870  -10.3296   -8.7896 H   0  0  0  0  0  0  0  0  0  0  0  0
   -6.9675   -9.9067   -9.3446 H   0  0  0  0  0  0  0  0  0  0  0  0
  1  2  1  0
  1 15  1  0
  1 16  1  0
  1 17  1  0
  2 10  1  0
  2  3  2  0
  3  4  1  0
  4  8  1  0
  4  5  2  0
  5  6  1  0
  6 14  1  0
  6  7  1  0
  7  8  2  0
  7 18  1  0
  8  9  1  0
  9 11  1  0
  9 10  1  0
  9 19  1  1
 10 11  1  0
 10 20  1  1
 11 12  1  0
 11 13  1  0
 12 21  1  0
 12 22  1  0
 12 23  1  0
 13 24  1  0
 13 25  1  0
 13 26  1  0
M  END
>  <i_m_ct_stereo_status>  (306) 
1

>  <s_m_source_file>  (306) 
/var/tmp/pbs.5076255.sched01/tmp1uy3qkd6/1269t22etaf.sdf

>  <i_m_source_file_index>  (306) 
13

>  <i_lp_mmshare_version>  (306) 
48012

>  <i_f3d_flags>  (306) 
0

>  <s_epik_input>  (306) 
W0NIM11DKD1OMSlbQ0BASF0oQzIoW0NIM10pW0NIM10pW0NASF0yYyhjMTMpW2NIXVtuSF1uMw==

>  <s_epik_cmdline>  (306) 
J2VwaWtfcHl0aG9uJywgJy1waHQnLCAnMi4wJywgJy1waCcsICc3LjAnLCAnLXRuJywgJzgnLCAnLW1hJywgJzIwMCcsICctaW1hZScsICc8aW5maWxlLm1hZT4nLCAnLW9tYWUnLCAnPG91dGZpbGUubWFlPic=

>  <r_lp_tautomer_probability>  (306) 
1

>  <r_epik_Ionization_Penalty>  (306) 
0.000124634

>  <r_epik_Ionization_Penalty_Charging>  (306) 
0

>  <r_epik_Ionization_Penalty_Neutral>  (306) 
0.000124634

>  <r_epik_State_Penalty>  (306) 
-0

>  <r_epik_Charging_Adjusted_Penalty>  (306) 
0

>  <i_epik_Tot_Q>  (306) 
0

>  <i_epik_Tot_abs_Q>  (306) 
0

>  <s_epik_Chemistry_Notes>  (306) 
This compound has an imine and may undergo hydrolysis.

>  <s_lp_Force_Field>  (306) 
OPLS3e

>  <r_lp_Energy>  (306) 
22.1718

>  <b_lp_Chiralities_Consistent>  (306) 
1

>  <s_lp_Variant>  (306) 
99:0-2

>  <s_i_glide_gridfile>  (306) 
pfpi4k_grid

>  <i_i_glide_lignum>  (306) 
13

>  <i_i_glide_rotatable_bonds>  (306) 
0

>  <r_i_docking_score>  (306) 
-4.83581

>  <r_i_glide_ligand_efficiency>  (306) 
-0.371986

>  <r_i_glide_ligand_efficiency_sa>  (306) 
-0.874663

>  <r_i_glide_ligand_efficiency_ln>  (306) 
-1.35649

>  <r_i_glide_gscore>  (306) 
-4.83581

>  <r_i_glide_lipo>  (306) 
-1.15625

>  <r_i_glide_hbond>  (306) 
0

>  <r_i_glide_metal>  (306) 
-0

>  <r_i_glide_rewards>  (306) 
-2.46402

>  <r_i_glide_evdw>  (306) 
-18.1132

>  <r_i_glide_ecoul>  (306) 
-1.93125

>  <r_i_glide_erotb>  (306) 
0

>  <r_i_glide_esite>  (306) 
-0.0201884

>  <r_i_glide_emodel>  (306) 
-26.038

>  <r_i_glide_energy>  (306) 
-20.0445

>  <r_i_glide_einternal>  (306) 
0

>  <r_i_glide_intrahb_reward>  (306) 
-0

>  <i_i_glide_confnum>  (306) 
2

>  <i_i_glide_posenum>  (306) 
26

>  <r_i_glide_eff_state_penalty>  (306) 
0

>  <ligand_id>  (306) 
99

>  <original_smiles>  (306) 
CC1=Nc2n[nH]cc2C2C1C2(C)C

>  <smiles>  (306) 
[H]c1c2c(nn1[H])N=C(C([H])([H])[H])C1([H])C2([H])C1(C([H])([H])[H])C([H])([H])[H]

$$$$
101:0:0
     RDKit          3D

 35 38  0  0  1  0  0  0  0  0999 V2000
    2.6437   -3.9380    1.9927 C   0  0  0  0  0  0  0  0  0  0  0  0
    4.0299   -4.1153    1.6385 N   0  0  0  0  0  0  0  0  0  0  0  0
    4.9438   -4.2330    2.6427 N   0  0  0  0  0  0  0  0  0  0  0  0
    6.0676   -4.4592    1.9848 C   0  0  0  0  0  0  0  0  0  0  0  0
    5.9650   -4.4791    0.6262 N   0  0  0  0  0  0  0  0  0  0  0  0
    4.6830   -4.1626    0.4635 C   0  0  0  0  0  0  0  0  0  0  0  0
    4.0683   -3.9666   -0.9030 C   0  0  2  0  0  0  0  0  0  0  0  0
    5.1294   -3.7676   -2.0455 C   0  0  1  0  0  0  0  0  0  0  0  0
    4.4717   -3.7053   -3.4559 C   0  0  0  0  0  0  0  0  0  0  0  0
    3.4950   -2.5182   -3.4891 C   0  0  2  0  0  0  0  0  0  0  0  0
    4.2555   -1.1978   -3.2220 C   0  0  0  0  0  0  0  0  0  0  0  0
    4.9472   -1.2577   -1.8371 C   0  0  2  0  0  0  0  0  0  0  0  0
    5.9358   -2.4489   -1.8315 C   0  0  0  0  0  0  0  0  0  0  0  0
    3.8919   -1.4623   -0.7335 C   0  0  0  0  0  0  0  0  0  0  0  0
    3.1042   -2.7555   -0.9978 C   0  0  1  0  0  0  0  0  0  0  0  0
    2.4576   -2.7153   -2.3924 C   0  0  0  0  0  0  0  0  0  0  0  0
    1.9769   -4.1920    1.1690 H   0  0  0  0  0  0  0  0  0  0  0  0
    2.4457   -2.9071    2.2648 H   0  0  0  0  0  0  0  0  0  0  0  0
    2.3853   -4.5470    2.8522 H   0  0  0  0  0  0  0  0  0  0  0  0
    7.0130   -4.5784    2.4833 H   0  0  0  0  0  0  0  0  0  0  0  0
    3.5004   -4.8669   -1.0814 H   0  0  0  0  0  0  0  0  0  0  0  0
    5.8049   -4.6177   -2.0419 H   0  0  0  0  0  0  0  0  0  0  0  0
    5.2373   -3.5988   -4.2372 H   0  0  0  0  0  0  0  0  0  0  0  0
    3.9445   -4.6255   -3.7173 H   0  0  0  0  0  0  0  0  0  0  0  0
    2.9922   -2.4580   -4.4553 H   0  0  0  0  0  0  0  0  0  0  0  0
    5.0028   -1.0399   -4.0113 H   0  0  0  0  0  0  0  0  0  0  0  0
    3.5665   -0.3479   -3.2438 H   0  0  0  0  0  0  0  0  0  0  0  0
    5.4884   -0.3290   -1.6496 H   0  0  0  0  0  0  0  0  0  0  0  0
    6.4881   -2.4458   -0.8862 H   0  0  0  0  0  0  0  0  0  0  0  0
    6.6936   -2.3587   -2.6259 H   0  0  0  0  0  0  0  0  0  0  0  0
    4.3730   -1.4971    0.2399 H   0  0  0  0  0  0  0  0  0  0  0  0
    3.1868   -0.6477   -0.6984 H   0  0  0  0  0  0  0  0  0  0  0  0
    2.2537   -2.7769   -0.3008 H   0  0  0  0  0  0  0  0  0  0  0  0
    1.8264   -1.8452   -2.4552 H   0  0  0  0  0  0  0  0  0  0  0  0
    1.8602   -3.6118   -2.5698 H   0  0  0  0  0  0  0  0  0  0  0  0
  1  2  1  0
  1 17  1  0
  1 18  1  0
  1 19  1  0
  2  6  1  0
  2  3  1  0
  3  4  2  0
  4  5  1  0
  4 20  1  0
  5  6  2  0
  6  7  1  0
  7 15  1  0
  7  8  1  0
  7 21  1  6
  8 13  1  0
  8  9  1  0
  8 22  1  6
  9 10  1  0
  9 23  1  0
  9 24  1  0
 10 16  1  0
 10 11  1  0
 10 25  1  6
 11 12  1  0
 11 26  1  0
 11 27  1  0
 12 13  1  0
 12 14  1  0
 12 28  1  1
 13 29  1  0
 13 30  1  0
 14 15  1  0
 14 31  1  0
 14 32  1  0
 15 16  1  0
 15 33  1  1
 16 34  1  0
 16 35  1  0
M  END
>  <i_m_ct_stereo_status>  (307) 
1

>  <s_m_source_file>  (307) 
/var/tmp/pbs.5076255.sched01/tmp1uy3qkd6/1269t22etaf.sdf

>  <i_m_source_file_index>  (307) 
15

>  <i_lp_mmshare_version>  (307) 
48012

>  <i_f3d_flags>  (307) 
0

>  <s_epik_input>  (307) 
W0NIM11uMW5bY0hdbmMxW0NASF0oW0NAQEhdMjMpW0NASF00W0NIMl1bQ0BASF0oW0NIMl0zKVtDSDJdW0NAQEhdKFtDSDJdMilbQ0gyXTQ=

>  <s_epik_cmdline>  (307) 
J2VwaWtfcHl0aG9uJywgJy1waHQnLCAnMi4wJywgJy1waCcsICc3LjAnLCAnLXRuJywgJzgnLCAnLW1hJywgJzIwMCcsICctaW1hZScsICc8aW5maWxlLm1hZT4nLCAnLW9tYWUnLCAnPG91dGZpbGUubWFlPic=

>  <r_lp_tautomer_probability>  (307) 
1

>  <r_epik_Ionization_Penalty>  (307) 
0.000554177

>  <r_epik_Ionization_Penalty_Charging>  (307) 
0

>  <r_epik_Ionization_Penalty_Neutral>  (307) 
0.000554177

>  <r_epik_State_Penalty>  (307) 
0.000347121

>  <r_epik_Charging_Adjusted_Penalty>  (307) 
0.000347121

>  <i_epik_Tot_Q>  (307) 
0

>  <i_epik_Tot_abs_Q>  (307) 
0

>  <s_lp_Force_Field>  (307) 
OPLS3e

>  <r_lp_Energy>  (307) 
6.87207

>  <b_lp_Chiralities_Consistent>  (307) 
1

>  <s_lp_Variant>  (307) 
101:0-1

>  <s_i_glide_gridfile>  (307) 
pfpi4k_grid

>  <i_i_glide_lignum>  (307) 
15

>  <i_i_glide_rotatable_bonds>  (307) 
1

>  <r_i_docking_score>  (307) 
-2.98793

>  <r_i_glide_ligand_efficiency>  (307) 
-0.186746

>  <r_i_glide_ligand_efficiency_sa>  (307) 
-0.470569

>  <r_i_glide_ligand_efficiency_ln>  (307) 
-0.79201

>  <r_i_glide_gscore>  (307) 
-2.98793

>  <r_i_glide_lipo>  (307) 
-0.368638

>  <r_i_glide_hbond>  (307) 
0

>  <r_i_glide_metal>  (307) 
-0

>  <r_i_glide_rewards>  (307) 
-2.05382

>  <r_i_glide_evdw>  (307) 
-13.2785

>  <r_i_glide_ecoul>  (307) 
-1.71231

>  <r_i_glide_erotb>  (307) 
0.355306

>  <r_i_glide_esite>  (307) 
0

>  <r_i_glide_emodel>  (307) 
-16.1771

>  <r_i_glide_energy>  (307) 
-14.9908

>  <r_i_glide_einternal>  (307) 
0.123317

>  <r_i_glide_intrahb_reward>  (307) 
-0

>  <i_i_glide_confnum>  (307) 
3

>  <i_i_glide_posenum>  (307) 
12

>  <r_i_glide_eff_state_penalty>  (307) 
0

>  <ligand_id>  (307) 
101

>  <original_smiles>  (307) 
Cn1ncnc1C1C2CC3CC(C2)CC1C3

>  <smiles>  (307) 
[H]c1nc(C2([H])C3([H])C([H])([H])C4([H])C([H])([H])C([H])(C3([H])[H])C([H])([H])C2([H])C4([H])[H])n(C([H])([H])[H])n1

$$$$
102:0:0
     RDKit          3D

 36 38  0  0  1  0  0  0  0  0999 V2000
   -0.1831   -6.6562    1.4653 O   0  0  0  0  0  0  0  0  0  0  0  0
    0.9007   -7.0382    1.9123 C   0  0  0  0  0  0  0  0  0  0  0  0
    1.0453   -7.9897    2.8443 O   0  0  0  0  0  0  0  0  0  0  0  0
   -0.0620   -8.7125    3.3578 C   0  0  2  0  0  0  0  0  0  0  0  0
   -0.1536   -8.5409    4.8897 C   0  0  0  0  0  0  0  0  0  0  0  0
    0.8013   -9.4635    5.6931 C   0  0  2  0  0  0  0  0  0  0  0  0
    2.3018   -9.1472    5.5675 C   0  0  0  0  0  0  0  0  0  0  0  0
    2.7864   -9.4353    4.2634 O   0  0  0  0  0  0  0  0  0  0  0  0
    2.4988  -10.7293    3.7500 C   0  0  0  0  0  0  0  0  0  0  0  0
    1.0003  -11.0441    3.8711 C   0  0  2  0  0  0  0  0  0  0  0  0
    0.0768  -10.1934    2.9592 C   0  0  0  0  0  0  0  0  0  0  0  0
    0.5994  -10.8662    5.2820 N   0  0  0  0  0  0  0  0  0  0  0  0
    2.1984   -6.4581    1.4849 C   0  0  0  0  0  0  0  0  0  0  0  0
    3.4536   -6.8800    2.0418 C   0  0  0  0  0  0  0  0  0  0  0  0
    4.3788   -6.1190    1.3858 C   0  0  0  0  0  0  0  0  0  0  0  0
    5.8692   -6.0585    1.5003 C   0  0  0  0  0  0  0  0  0  0  0  0
    6.4077   -7.2768    1.4945 F   0  0  0  0  0  0  0  0  0  0  0  0
    6.4036   -5.3758    0.4878 F   0  0  0  0  0  0  0  0  0  0  0  0
    6.2392   -5.4563    2.6291 F   0  0  0  0  0  0  0  0  0  0  0  0
    3.6765   -5.3123    0.5216 N   0  0  0  0  0  0  0  0  0  0  0  0
    2.3430   -5.5060    0.5807 N   0  0  0  0  0  0  0  0  0  0  0  0
    4.0890   -4.6462   -0.1172 H   0  0  0  0  0  0  0  0  0  0  0  0
   -1.0030   -8.3483    2.9392 H   0  0  0  0  0  0  0  0  0  0  0  0
   -1.1748   -8.7963    5.1834 H   0  0  0  0  0  0  0  0  0  0  0  0
   -0.0282   -7.4922    5.1684 H   0  0  0  0  0  0  0  0  0  0  0  0
    0.5251   -9.3868    6.7443 H   0  0  0  0  0  0  0  0  0  0  0  0
    2.4808   -8.0913    5.7605 H   0  0  0  0  0  0  0  0  0  0  0  0
    2.8647   -9.7095    6.3158 H   0  0  0  0  0  0  0  0  0  0  0  0
    2.8012  -10.7496    2.7054 H   0  0  0  0  0  0  0  0  0  0  0  0
    3.0814  -11.4913    4.2722 H   0  0  0  0  0  0  0  0  0  0  0  0
    0.8460  -12.0932    3.6134 H   0  0  0  0  0  0  0  0  0  0  0  0
    0.3505  -10.2998    1.9100 H   0  0  0  0  0  0  0  0  0  0  0  0
   -0.9246  -10.6053    3.0415 H   0  0  0  0  0  0  0  0  0  0  0  0
    1.1368  -11.4723    5.9043 H   0  0  0  0  0  0  0  0  0  0  0  0
    3.6469   -7.6196    2.8012 H   0  0  0  0  0  0  0  0  0  0  0  0
   -0.3878  -11.0871    5.3755 H   0  0  0  0  0  0  0  0  0  0  0  0
  1  2  2  0
  2 13  1  0
  2  3  1  0
  3  4  1  0
  4 11  1  0
  4  5  1  0
  4 23  1  6
  5  6  1  0
  5 24  1  0
  5 25  1  0
  6 12  1  0
  6  7  1  0
  6 26  1  1
  7  8  1  0
  7 27  1  0
  7 28  1  0
  8  9  1  0
  9 10  1  0
  9 29  1  0
  9 30  1  0
 10 11  1  0
 10 12  1  0
 10 31  1  6
 11 32  1  0
 11 33  1  0
 12 34  1  0
 12 36  1  0
 13 14  1  0
 13 21  2  0
 14 15  2  0
 14 35  1  0
 15 16  1  0
 15 20  1  0
 16 17  1  0
 16 18  1  0
 16 19  1  0
 20 21  1  0
 20 22  1  0
M  CHG  1  12   1
M  END
>  <i_m_ct_stereo_status>  (308) 
1

>  <s_m_source_file>  (308) 
/var/tmp/pbs.5076255.sched01/tmp1uy3qkd6/1269t22etaf.sdf

>  <i_m_source_file_index>  (308) 
16

>  <i_lp_mmshare_version>  (308) 
48012

>  <i_f3d_flags>  (308) 
0

>  <s_epik_input>  (308) 
RkMoRikoRiljKG5bbkhdMSlbY0hdYzFDKD1PKU9bQ0BIXShbQ0gyXVtDSF0yMylbQ0gyXVtDQEhdKFtOSF0zKVtDSDJdT1tDSDJdMg==

>  <s_epik_cmdline>  (308) 
J2VwaWtfcHl0aG9uJywgJy1waHQnLCAnMi4wJywgJy1waCcsICc3LjAnLCAnLXRuJywgJzgnLCAnLW1hJywgJzIwMCcsICctaW1hZScsICc8aW5maWxlLm1hZT4nLCAnLW9tYWUnLCAnPG91dGZpbGUubWFlPic=

>  <r_lp_tautomer_probability>  (308) 
0.96331

>  <r_epik_Ionization_Penalty>  (308) 
0.390483

>  <r_epik_Ionization_Penalty_Charging>  (308) 
0.088043

>  <r_epik_Ionization_Penalty_Neutral>  (308) 
0.30244

>  <r_epik_State_Penalty>  (308) 
0.24577

>  <r_epik_Charging_Adjusted_Penalty>  (308) 
0.333813

>  <i_epik_Tot_Q>  (308) 
1

>  <i_epik_Tot_abs_Q>  (308) 
1

>  <s_epik_Chemistry_Notes>  (308) 
This compound has an ester and may undergo hydrolysis at high or low pH.

>  <s_lp_Force_Field>  (308) 
OPLS3e

>  <r_lp_Energy>  (308) 
28.7267

>  <b_lp_Chiralities_Consistent>  (308) 
1

>  <s_lp_Variant>  (308) 
102:0-1

>  <s_i_glide_gridfile>  (308) 
pfpi4k_grid

>  <i_i_glide_lignum>  (308) 
16

>  <i_i_glide_rotatable_bonds>  (308) 
4

>  <r_i_docking_score>  (308) 
-4.63851

>  <r_i_glide_ligand_efficiency>  (308) 
-0.220881

>  <r_i_glide_ligand_efficiency_sa>  (308) 
-0.609395

>  <r_i_glide_ligand_efficiency_ln>  (308) 
-1.14686

>  <r_i_glide_gscore>  (308) 
-4.63851

>  <r_i_glide_lipo>  (308) 
-0.289669

>  <r_i_glide_hbond>  (308) 
-0.62503

>  <r_i_glide_metal>  (308) 
-0

>  <r_i_glide_rewards>  (308) 
-1.65041

>  <r_i_glide_evdw>  (308) 
-21.8495

>  <r_i_glide_ecoul>  (308) 
-9.43857

>  <r_i_glide_erotb>  (308) 
0.590732

>  <r_i_glide_esite>  (308) 
-0.155866

>  <r_i_glide_emodel>  (308) 
-45.1271

>  <r_i_glide_energy>  (308) 
-31.2881

>  <r_i_glide_einternal>  (308) 
1.30835

>  <r_i_glide_intrahb_reward>  (308) 
-0

>  <i_i_glide_confnum>  (308) 
6

>  <i_i_glide_posenum>  (308) 
21

>  <r_i_glide_eff_state_penalty>  (308) 
0

>  <ligand_id>  (308) 
102

>  <original_smiles>  (308) 
O=C(OC1CC2COCC(C1)N2)c1cc(C(F)(F)F)n[nH]1

>  <smiles>  (308) 
[H]c1c(C(=O)OC2([H])C([H])([H])C3([H])C([H])([H])OC([H])([H])C([H])(C2([H])[H])[N+]3([H])[H])nn([H])c1C(F)(F)F

$$$$
102:0:1
     RDKit          3D

 36 38  0  0  1  0  0  0  0  0999 V2000
    0.5628   -5.6950    4.0206 O   0  0  0  0  0  0  0  0  0  0  0  0
    1.0197   -6.3830    3.1117 C   0  0  0  0  0  0  0  0  0  0  0  0
    0.8429   -7.7100    2.9545 O   0  0  0  0  0  0  0  0  0  0  0  0
   -0.1684   -8.4240    3.6450 C   0  0  2  0  0  0  0  0  0  0  0  0
    0.0167   -8.5153    5.1828 C   0  0  0  0  0  0  0  0  0  0  0  0
    1.0079   -9.6064    5.6436 C   0  0  2  0  0  0  0  0  0  0  0  0
    2.4813   -9.3728    5.2749 C   0  0  0  0  0  0  0  0  0  0  0  0
    2.6875   -9.4795    3.8685 O   0  0  0  0  0  0  0  0  0  0  0  0
    2.2012  -10.6688    3.2531 C   0  0  0  0  0  0  0  0  0  0  0  0
    0.7265  -10.8850    3.6113 C   0  0  2  0  0  0  0  0  0  0  0  0
   -0.2588   -9.8374    3.0216 C   0  0  0  0  0  0  0  0  0  0  0  0
    0.6139  -10.9086    5.0852 N   0  0  0  0  0  0  0  0  0  0  0  0
    1.7876   -5.8375    1.9890 C   0  0  0  0  0  0  0  0  0  0  0  0
    2.6624   -4.7173    2.1371 C   0  0  0  0  0  0  0  0  0  0  0  0
    3.1237   -4.5070    0.8635 C   0  0  0  0  0  0  0  0  0  0  0  0
    4.0898   -3.5300    0.2853 C   0  0  0  0  0  0  0  0  0  0  0  0
    4.5286   -2.6711    1.2042 F   0  0  0  0  0  0  0  0  0  0  0  0
    5.1508   -4.1547   -0.2236 F   0  0  0  0  0  0  0  0  0  0  0  0
    3.5330   -2.8261   -0.6988 F   0  0  0  0  0  0  0  0  0  0  0  0
    2.4984   -5.4434    0.0778 N   0  0  0  0  0  0  0  0  0  0  0  0
    1.6517   -6.2373    0.7432 N   0  0  0  0  0  0  0  0  0  0  0  0
    2.6441   -5.5473   -0.9245 H   0  0  0  0  0  0  0  0  0  0  0  0
   -1.1052   -7.9090    3.4296 H   0  0  0  0  0  0  0  0  0  0  0  0
   -0.9645   -8.7576    5.6015 H   0  0  0  0  0  0  0  0  0  0  0  0
    0.2827   -7.5642    5.6416 H   0  0  0  0  0  0  0  0  0  0  0  0
    0.9368   -9.6732    6.7275 H   0  0  0  0  0  0  0  0  0  0  0  0
    2.7971   -8.3757    5.5602 H   0  0  0  0  0  0  0  0  0  0  0  0
    3.1185  -10.0795    5.8060 H   0  0  0  0  0  0  0  0  0  0  0  0
    2.3221  -10.5486    2.1818 H   0  0  0  0  0  0  0  0  0  0  0  0
    2.7933  -11.5349    3.5492 H   0  0  0  0  0  0  0  0  0  0  0  0
    0.4366  -11.8685    3.2425 H   0  0  0  0  0  0  0  0  0  0  0  0
   -0.1881   -9.7907    1.9358 H   0  0  0  0  0  0  0  0  0  0  0  0
   -1.2679  -10.2030    3.2103 H   0  0  0  0  0  0  0  0  0  0  0  0
    1.1784  -11.6367    5.5001 H   0  0  0  0  0  0  0  0  0  0  0  0
    2.9213   -4.1613    3.0245 H   0  0  0  0  0  0  0  0  0  0  0  0
   -0.3764  -11.0738    5.3092 H   0  0  0  0  0  0  0  0  0  0  0  0
  1  2  2  0
  2 13  1  0
  2  3  1  0
  3  4  1  0
  4 11  1  0
  4  5  1  0
  4 23  1  1
  5  6  1  0
  5 24  1  0
  5 25  1  0
  6 12  1  0
  6  7  1  0
  6 26  1  1
  7  8  1  0
  7 27  1  0
  7 28  1  0
  8  9  1  0
  9 10  1  0
  9 29  1  0
  9 30  1  0
 10 11  1  0
 10 12  1  0
 10 31  1  6
 11 32  1  0
 11 33  1  0
 12 34  1  0
 12 36  1  0
 13 14  1  0
 13 21  2  0
 14 15  2  0
 14 35  1  0
 15 16  1  0
 15 20  1  0
 16 17  1  0
 16 18  1  0
 16 19  1  0
 20 21  1  0
 20 22  1  0
M  CHG  1  12   1
M  END
>  <i_m_ct_stereo_status>  (309) 
1

>  <s_m_source_file>  (309) 
/var/tmp/pbs.5076255.sched01/tmp1uy3qkd6/1269t22etaf.sdf

>  <i_m_source_file_index>  (309) 
16

>  <i_lp_mmshare_version>  (309) 
48012

>  <i_f3d_flags>  (309) 
0

>  <s_epik_input>  (309) 
RkMoRikoRiljKG5bbkhdMSlbY0hdYzFDKD1PKU9bQ0BIXShbQ0gyXVtDSF0yMylbQ0gyXVtDQEhdKFtOSF0zKVtDSDJdT1tDSDJdMg==

>  <s_epik_cmdline>  (309) 
J2VwaWtfcHl0aG9uJywgJy1waHQnLCAnMi4wJywgJy1waCcsICc3LjAnLCAnLXRuJywgJzgnLCAnLW1hJywgJzIwMCcsICctaW1hZScsICc8aW5maWxlLm1hZT4nLCAnLW9tYWUnLCAnPG91dGZpbGUubWFlPic=

>  <r_lp_tautomer_probability>  (309) 
0.96331

>  <r_epik_Ionization_Penalty>  (309) 
0.390483

>  <r_epik_Ionization_Penalty_Charging>  (309) 
0.088043

>  <r_epik_Ionization_Penalty_Neutral>  (309) 
0.30244

>  <r_epik_State_Penalty>  (309) 
0.24577

>  <r_epik_Charging_Adjusted_Penalty>  (309) 
0.333813

>  <i_epik_Tot_Q>  (309) 
1

>  <i_epik_Tot_abs_Q>  (309) 
1

>  <s_epik_Chemistry_Notes>  (309) 
This compound has an ester and may undergo hydrolysis at high or low pH.

>  <s_lp_Force_Field>  (309) 
OPLS3e

>  <r_lp_Energy>  (309) 
28.7267

>  <b_lp_Chiralities_Consistent>  (309) 
1

>  <s_lp_Variant>  (309) 
102:0-1

>  <s_i_glide_gridfile>  (309) 
pfpi4k_grid

>  <i_i_glide_lignum>  (309) 
16

>  <i_i_glide_rotatable_bonds>  (309) 
4

>  <r_i_docking_score>  (309) 
-4.42785

>  <r_i_glide_ligand_efficiency>  (309) 
-0.21085

>  <r_i_glide_ligand_efficiency_sa>  (309) 
-0.581719

>  <r_i_glide_ligand_efficiency_ln>  (309) 
-1.09478

>  <r_i_glide_gscore>  (309) 
-4.42785

>  <r_i_glide_lipo>  (309) 
-0.127737

>  <r_i_glide_hbond>  (309) 
-0.613433

>  <r_i_glide_metal>  (309) 
-0

>  <r_i_glide_rewards>  (309) 
-1.42525

>  <r_i_glide_evdw>  (309) 
-19.9802

>  <r_i_glide_ecoul>  (309) 
-11.0404

>  <r_i_glide_erotb>  (309) 
0.590732

>  <r_i_glide_esite>  (309) 
-0.197086

>  <r_i_glide_emodel>  (309) 
-41.7579

>  <r_i_glide_energy>  (309) 
-31.0207

>  <r_i_glide_einternal>  (309) 
5.61093

>  <r_i_glide_intrahb_reward>  (309) 
-0

>  <i_i_glide_confnum>  (309) 
6

>  <i_i_glide_posenum>  (309) 
34

>  <r_i_glide_eff_state_penalty>  (309) 
0

>  <ligand_id>  (309) 
102

>  <original_smiles>  (309) 
O=C(OC1CC2COCC(C1)N2)c1cc(C(F)(F)F)n[nH]1

>  <smiles>  (309) 
[H]c1c(C(=O)OC2([H])C([H])([H])C3([H])C([H])([H])OC([H])([H])C([H])(C2([H])[H])[N+]3([H])[H])nn([H])c1C(F)(F)F

$$$$
102:0:2
     RDKit          3D

 36 38  0  0  1  0  0  0  0  0999 V2000
   -1.7572    0.2122    6.4772 O   0  0  0  0  0  0  0  0  0  0  0  0
   -1.2506    1.3295    6.5677 C   0  0  0  0  0  0  0  0  0  0  0  0
   -0.2711    1.7740    5.7678 O   0  0  0  0  0  0  0  0  0  0  0  0
    0.2792    0.9307    4.7655 C   0  0  2  0  0  0  0  0  0  0  0  0
    1.5748    1.5899    4.2365 C   0  0  0  0  0  0  0  0  0  0  0  0
    1.3371    2.6781    3.1631 C   0  0  2  0  0  0  0  0  0  0  0  0
    0.6526    3.9723    3.6676 C   0  0  0  0  0  0  0  0  0  0  0  0
   -0.6981    3.7393    4.0362 O   0  0  0  0  0  0  0  0  0  0  0  0
   -1.5033    3.0672    3.0804 C   0  0  0  0  0  0  0  0  0  0  0  0
   -0.8296    1.7718    2.5704 C   0  0  2  0  0  0  0  0  0  0  0  0
   -0.7142    0.6367    3.6072 C   0  0  0  0  0  0  0  0  0  0  0  0
    0.5133    2.1211    2.0764 N   0  0  0  0  0  0  0  0  0  0  0  0
   -1.6621    2.3399    7.5761 C   0  0  0  0  0  0  0  0  0  0  0  0
   -1.0757    3.6381    7.6497 C   0  0  0  0  0  0  0  0  0  0  0  0
   -1.7150    4.2282    8.7073 C   0  0  0  0  0  0  0  0  0  0  0  0
   -1.5741    5.5770    9.3191 C   0  0  0  0  0  0  0  0  0  0  0  0
   -0.4212    6.1539    8.9750 F   0  0  0  0  0  0  0  0  0  0  0  0
   -2.5610    6.3769    8.9181 F   0  0  0  0  0  0  0  0  0  0  0  0
   -1.6153    5.5095   10.6499 F   0  0  0  0  0  0  0  0  0  0  0  0
   -2.6236    3.3107    9.1792 N   0  0  0  0  0  0  0  0  0  0  0  0
   -2.5828    2.1484    8.5033 N   0  0  0  0  0  0  0  0  0  0  0  0
   -3.2361    3.4476    9.9759 H   0  0  0  0  0  0  0  0  0  0  0  0
    0.5570   -0.0112    5.2426 H   0  0  0  0  0  0  0  0  0  0  0  0
    2.1776    0.8073    3.7727 H   0  0  0  0  0  0  0  0  0  0  0  0
    2.1806    1.9769    5.0578 H   0  0  0  0  0  0  0  0  0  0  0  0
    2.3009    2.9529    2.7343 H   0  0  0  0  0  0  0  0  0  0  0  0
    1.1773    4.3693    4.5293 H   0  0  0  0  0  0  0  0  0  0  0  0
    0.7052    4.7410    2.8862 H   0  0  0  0  0  0  0  0  0  0  0  0
   -2.4543    2.8403    3.5565 H   0  0  0  0  0  0  0  0  0  0  0  0
   -1.7323    3.7304    2.2412 H   0  0  0  0  0  0  0  0  0  0  0  0
   -1.4164    1.3930    1.7339 H   0  0  0  0  0  0  0  0  0  0  0  0
   -1.7108    0.3677    3.9607 H   0  0  0  0  0  0  0  0  0  0  0  0
   -0.3543   -0.2542    3.0898 H   0  0  0  0  0  0  0  0  0  0  0  0
    0.3949    2.8559    1.3687 H   0  0  0  0  0  0  0  0  0  0  0  0
   -0.2966    4.0673    7.0333 H   0  0  0  0  0  0  0  0  0  0  0  0
    0.9499    1.3163    1.6450 H   0  0  0  0  0  0  0  0  0  0  0  0
  1  2  2  0
  2 13  1  0
  2  3  1  0
  3  4  1  0
  4 11  1  0
  4  5  1  0
  4 23  1  1
  5  6  1  0
  5 24  1  0
  5 25  1  0
  6 12  1  0
  6  7  1  0
  6 26  1  6
  7  8  1  0
  7 27  1  0
  7 28  1  0
  8  9  1  0
  9 10  1  0
  9 29  1  0
  9 30  1  0
 10 11  1  0
 10 12  1  0
 10 31  1  6
 11 32  1  0
 11 33  1  0
 12 34  1  0
 12 36  1  0
 13 14  1  0
 13 21  2  0
 14 15  2  0
 14 35  1  0
 15 16  1  0
 15 20  1  0
 16 17  1  0
 16 18  1  0
 16 19  1  0
 20 21  1  0
 20 22  1  0
M  CHG  1  12   1
M  END
>  <i_m_ct_stereo_status>  (310) 
1

>  <s_m_source_file>  (310) 
/var/tmp/pbs.5076255.sched01/tmp1uy3qkd6/1269t22etaf.sdf

>  <i_m_source_file_index>  (310) 
16

>  <i_lp_mmshare_version>  (310) 
48012

>  <i_f3d_flags>  (310) 
0

>  <s_epik_input>  (310) 
RkMoRikoRiljKG5bbkhdMSlbY0hdYzFDKD1PKU9bQ0BIXShbQ0gyXVtDSF0yMylbQ0gyXVtDQEhdKFtOSF0zKVtDSDJdT1tDSDJdMg==

>  <s_epik_cmdline>  (310) 
J2VwaWtfcHl0aG9uJywgJy1waHQnLCAnMi4wJywgJy1waCcsICc3LjAnLCAnLXRuJywgJzgnLCAnLW1hJywgJzIwMCcsICctaW1hZScsICc8aW5maWxlLm1hZT4nLCAnLW9tYWUnLCAnPG91dGZpbGUubWFlPic=

>  <r_lp_tautomer_probability>  (310) 
0.96331

>  <r_epik_Ionization_Penalty>  (310) 
0.390483

>  <r_epik_Ionization_Penalty_Charging>  (310) 
0.088043

>  <r_epik_Ionization_Penalty_Neutral>  (310) 
0.30244

>  <r_epik_State_Penalty>  (310) 
0.24577

>  <r_epik_Charging_Adjusted_Penalty>  (310) 
0.333813

>  <i_epik_Tot_Q>  (310) 
1

>  <i_epik_Tot_abs_Q>  (310) 
1

>  <s_epik_Chemistry_Notes>  (310) 
This compound has an ester and may undergo hydrolysis at high or low pH.

>  <s_lp_Force_Field>  (310) 
OPLS3e

>  <r_lp_Energy>  (310) 
28.7267

>  <b_lp_Chiralities_Consistent>  (310) 
1

>  <s_lp_Variant>  (310) 
102:0-1

>  <s_i_glide_gridfile>  (310) 
pfpi4k_grid

>  <i_i_glide_lignum>  (310) 
16

>  <i_i_glide_rotatable_bonds>  (310) 
4

>  <r_i_docking_score>  (310) 
-3.7811

>  <r_i_glide_ligand_efficiency>  (310) 
-0.180052

>  <r_i_glide_ligand_efficiency_sa>  (310) 
-0.496751

>  <r_i_glide_ligand_efficiency_ln>  (310) 
-0.934869

>  <r_i_glide_gscore>  (310) 
-3.7811

>  <r_i_glide_lipo>  (310) 
-0.00706314

>  <r_i_glide_hbond>  (310) 
-0.36

>  <r_i_glide_metal>  (310) 
-0

>  <r_i_glide_rewards>  (310) 
-1.32095

>  <r_i_glide_evdw>  (310) 
-17.9836

>  <r_i_glide_ecoul>  (310) 
-10.8359

>  <r_i_glide_erotb>  (310) 
0.590732

>  <r_i_glide_esite>  (310) 
-0.159257

>  <r_i_glide_emodel>  (310) 
-40.0342

>  <r_i_glide_energy>  (310) 
-28.8195

>  <r_i_glide_einternal>  (310) 
0.906182

>  <r_i_glide_intrahb_reward>  (310) 
-0

>  <i_i_glide_confnum>  (310) 
1

>  <i_i_glide_posenum>  (310) 
1

>  <r_i_glide_eff_state_penalty>  (310) 
0

>  <ligand_id>  (310) 
102

>  <original_smiles>  (310) 
O=C(OC1CC2COCC(C1)N2)c1cc(C(F)(F)F)n[nH]1

>  <smiles>  (310) 
[H]c1c(C(=O)OC2([H])C([H])([H])C3([H])C([H])([H])OC([H])([H])C([H])(C2([H])[H])[N+]3([H])[H])nn([H])c1C(F)(F)F

$$$$
102:1:0
     RDKit          3D

 36 38  0  0  1  0  0  0  0  0999 V2000
    0.8186   -6.3844    1.5807 O   0  0  0  0  0  0  0  0  0  0  0  0
    2.0491   -6.3708    1.5774 C   0  0  0  0  0  0  0  0  0  0  0  0
    2.8550   -7.2569    2.2431 O   0  0  0  0  0  0  0  0  0  0  0  0
    2.3316   -8.3500    3.0169 C   0  0  1  0  0  0  0  0  0  0  0  0
    1.5092   -7.8472    4.2405 C   0  0  0  0  0  0  0  0  0  0  0  0
    0.6075   -8.9292    4.8700 C   0  0  2  0  0  0  0  0  0  0  0  0
    1.3632  -10.0334    5.6412 C   0  0  0  0  0  0  0  0  0  0  0  0
    2.1402  -10.8213    4.7489 O   0  0  0  0  0  0  0  0  0  0  0  0
    1.3984  -11.4222    3.6965 C   0  0  0  0  0  0  0  0  0  0  0  0
    0.6544  -10.3378    2.8891 C   0  0  2  0  0  0  0  0  0  0  0  0
    1.5755   -9.3666    2.1181 C   0  0  0  0  0  0  0  0  0  0  0  0
   -0.2041   -9.5729    3.8177 N   0  0  0  0  0  0  0  0  0  0  0  0
    2.8062   -5.3534    0.8199 C   0  0  0  0  0  0  0  0  0  0  0  0
    4.2246   -5.2255    0.8621 C   0  0  0  0  0  0  0  0  0  0  0  0
    4.4816   -4.1663    0.0371 C   0  0  0  0  0  0  0  0  0  0  0  0
    5.7547   -3.5116   -0.3692 C   0  0  0  0  0  0  0  0  0  0  0  0
    5.8509   -3.4522   -1.6977 F   0  0  0  0  0  0  0  0  0  0  0  0
    5.8121   -2.2670    0.1035 F   0  0  0  0  0  0  0  0  0  0  0  0
    6.8175   -4.1791    0.0946 F   0  0  0  0  0  0  0  0  0  0  0  0
    3.2670   -3.7209   -0.4292 N   0  0  0  0  0  0  0  0  0  0  0  0
    2.2375   -4.4470    0.0441 N   0  0  0  0  0  0  0  0  0  0  0  0
    3.1248   -2.9475   -1.0556 H   0  0  0  0  0  0  0  0  0  0  0  0
    3.1945   -8.8777    3.4158 H   0  0  0  0  0  0  0  0  0  0  0  0
    0.8332   -7.0448    3.9483 H   0  0  0  0  0  0  0  0  0  0  0  0
    2.1841   -7.4036    4.9775 H   0  0  0  0  0  0  0  0  0  0  0  0
   -0.0706   -8.4197    5.5596 H   0  0  0  0  0  0  0  0  0  0  0  0
    2.0444   -9.5816    6.3637 H   0  0  0  0  0  0  0  0  0  0  0  0
    0.6337  -10.6336    6.2013 H   0  0  0  0  0  0  0  0  0  0  0  0
    2.1009  -11.9477    3.0479 H   0  0  0  0  0  0  0  0  0  0  0  0
    0.6704  -12.1594    4.0663 H   0  0  0  0  0  0  0  0  0  0  0  0
    0.0136  -10.8231    2.1473 H   0  0  0  0  0  0  0  0  0  0  0  0
    2.2797   -9.8970    1.4694 H   0  0  0  0  0  0  0  0  0  0  0  0
    0.9174   -8.8248    1.4441 H   0  0  0  0  0  0  0  0  0  0  0  0
   -0.8603  -10.2135    4.2774 H   0  0  0  0  0  0  0  0  0  0  0  0
    4.9435   -5.8223    1.4162 H   0  0  0  0  0  0  0  0  0  0  0  0
   -0.7413   -8.8850    3.3070 H   0  0  0  0  0  0  0  0  0  0  0  0
  1  2  2  0
  2 13  1  0
  2  3  1  0
  3  4  1  0
  4 11  1  0
  4  5  1  0
  4 23  1  1
  5  6  1  0
  5 24  1  0
  5 25  1  0
  6 12  1  0
  6  7  1  0
  6 26  1  1
  7  8  1  0
  7 27  1  0
  7 28  1  0
  8  9  1  0
  9 10  1  0
  9 29  1  0
  9 30  1  0
 10 11  1  0
 10 12  1  0
 10 31  1  6
 11 32  1  0
 11 33  1  0
 12 34  1  0
 12 36  1  0
 13 14  1  0
 13 21  2  0
 14 15  2  0
 14 35  1  0
 15 16  1  0
 15 20  1  0
 16 17  1  0
 16 18  1  0
 16 19  1  0
 20 21  1  0
 20 22  1  0
M  CHG  1  12   1
M  END
>  <i_m_ct_stereo_status>  (311) 
1

>  <s_m_source_file>  (311) 
/var/tmp/pbs.5076255.sched01/tmp1uy3qkd6/1269t22etaf.sdf

>  <i_m_source_file_index>  (311) 
17

>  <i_lp_mmshare_version>  (311) 
48012

>  <i_f3d_flags>  (311) 
0

>  <s_epik_input>  (311) 
RkMoRikoRiljKG5bbkhdMSlbY0hdYzFDKD1PKU9bQ0BIXShbQ0gyXVtDSF0yMylbQ0gyXVtDQEhdKFtOSF0zKVtDSDJdT1tDSDJdMg==

>  <s_epik_cmdline>  (311) 
J2VwaWtfcHl0aG9uJywgJy1waHQnLCAnMi4wJywgJy1waCcsICc3LjAnLCAnLXRuJywgJzgnLCAnLW1hJywgJzIwMCcsICctaW1hZScsICc8aW5maWxlLm1hZT4nLCAnLW9tYWUnLCAnPG91dGZpbGUubWFlPic=

>  <r_lp_tautomer_probability>  (311) 
0.96331

>  <r_epik_Ionization_Penalty>  (311) 
0.390483

>  <r_epik_Ionization_Penalty_Charging>  (311) 
0.088043

>  <r_epik_Ionization_Penalty_Neutral>  (311) 
0.30244

>  <r_epik_State_Penalty>  (311) 
0.24577

>  <r_epik_Charging_Adjusted_Penalty>  (311) 
0.333813

>  <i_epik_Tot_Q>  (311) 
1

>  <i_epik_Tot_abs_Q>  (311) 
1

>  <s_epik_Chemistry_Notes>  (311) 
This compound has an ester and may undergo hydrolysis at high or low pH.

>  <s_lp_Force_Field>  (311) 
OPLS3e

>  <r_lp_Energy>  (311) 
25.7258

>  <b_lp_Chiralities_Consistent>  (311) 
1

>  <s_lp_Variant>  (311) 
102:0-2

>  <s_i_glide_gridfile>  (311) 
pfpi4k_grid

>  <i_i_glide_lignum>  (311) 
17

>  <i_i_glide_rotatable_bonds>  (311) 
4

>  <r_i_docking_score>  (311) 
-4.18802

>  <r_i_glide_ligand_efficiency>  (311) 
-0.199429

>  <r_i_glide_ligand_efficiency_sa>  (311) 
-0.55021

>  <r_i_glide_ligand_efficiency_ln>  (311) 
-1.03548

>  <r_i_glide_gscore>  (311) 
-4.18802

>  <r_i_glide_lipo>  (311) 
-0.476651

>  <r_i_glide_hbond>  (311) 
-0.323709

>  <r_i_glide_metal>  (311) 
-0

>  <r_i_glide_rewards>  (311) 
-1.67767

>  <r_i_glide_evdw>  (311) 
-21.4865

>  <r_i_glide_ecoul>  (311) 
-7.5447

>  <r_i_glide_erotb>  (311) 
0.590732

>  <r_i_glide_esite>  (311) 
-0.0946918

>  <r_i_glide_emodel>  (311) 
-38.1914

>  <r_i_glide_energy>  (311) 
-29.0312

>  <r_i_glide_einternal>  (311) 
4.43219

>  <r_i_glide_intrahb_reward>  (311) 
-0

>  <i_i_glide_confnum>  (311) 
3

>  <i_i_glide_posenum>  (311) 
11

>  <r_i_glide_eff_state_penalty>  (311) 
0

>  <ligand_id>  (311) 
102

>  <original_smiles>  (311) 
O=C(OC1CC2COCC(C1)N2)c1cc(C(F)(F)F)n[nH]1

>  <smiles>  (311) 
[H]c1c(C(=O)OC2([H])C([H])([H])C3([H])C([H])([H])OC([H])([H])C([H])(C2([H])[H])[N+]3([H])[H])nn([H])c1C(F)(F)F

$$$$
102:1:1
     RDKit          3D

 36 38  0  0  1  0  0  0  0  0999 V2000
    4.4555   -6.4603    1.5703 O   0  0  0  0  0  0  0  0  0  0  0  0
    3.3982   -6.0169    1.1127 C   0  0  0  0  0  0  0  0  0  0  0  0
    2.1646   -6.5578    1.3473 O   0  0  0  0  0  0  0  0  0  0  0  0
    1.9531   -7.6118    2.2942 C   0  0  1  0  0  0  0  0  0  0  0  0
    0.4197   -7.8066    2.4406 C   0  0  0  0  0  0  0  0  0  0  0  0
    0.0131   -9.1271    3.1511 C   0  0  2  0  0  0  0  0  0  0  0  0
    0.3920   -9.2051    4.6466 C   0  0  0  0  0  0  0  0  0  0  0  0
    1.8047   -9.2122    4.7941 O   0  0  0  0  0  0  0  0  0  0  0  0
    2.4718  -10.2546    4.0938 C   0  0  0  0  0  0  0  0  0  0  0  0
    2.1214  -10.1887    2.5928 C   0  0  2  0  0  0  0  0  0  0  0  0
    2.6346   -8.9334    1.8547 C   0  0  0  0  0  0  0  0  0  0  0  0
    0.6485  -10.2722    2.4721 N   0  0  0  0  0  0  0  0  0  0  0  0
    3.3171   -4.8170    0.2418 C   0  0  0  0  0  0  0  0  0  0  0  0
    4.4726   -4.2443   -0.3767 C   0  0  0  0  0  0  0  0  0  0  0  0
    3.9777   -3.1520   -1.0542 C   0  0  0  0  0  0  0  0  0  0  0  0
    4.6293   -2.1403   -1.9201 C   0  0  0  0  0  0  0  0  0  0  0  0
    5.9602   -2.2575   -1.9017 F   0  0  0  0  0  0  0  0  0  0  0  0
    4.2246   -2.2648   -3.1874 F   0  0  0  0  0  0  0  0  0  0  0  0
    4.3274   -0.9080   -1.5140 F   0  0  0  0  0  0  0  0  0  0  0  0
    2.6229   -3.1122   -0.8008 N   0  0  0  0  0  0  0  0  0  0  0  0
    2.2254   -4.1335   -0.0290 N   0  0  0  0  0  0  0  0  0  0  0  0
    1.9815   -2.3837   -1.1143 H   0  0  0  0  0  0  0  0  0  0  0  0
    2.3513   -7.3006    3.2585 H   0  0  0  0  0  0  0  0  0  0  0  0
   -0.0339   -7.8227    1.4469 H   0  0  0  0  0  0  0  0  0  0  0  0
   -0.0176   -6.9464    2.9510 H   0  0  0  0  0  0  0  0  0  0  0  0
   -1.0677   -9.2473    3.0671 H   0  0  0  0  0  0  0  0  0  0  0  0
    0.0197   -8.3345    5.1804 H   0  0  0  0  0  0  0  0  0  0  0  0
   -0.0717  -10.0855    5.1075 H   0  0  0  0  0  0  0  0  0  0  0  0
    3.5393  -10.1102    4.2427 H   0  0  0  0  0  0  0  0  0  0  0  0
    2.2207  -11.2473    4.4907 H   0  0  0  0  0  0  0  0  0  0  0  0
    2.5836  -11.0504    2.1078 H   0  0  0  0  0  0  0  0  0  0  0  0
    3.7188   -8.8743    1.9687 H   0  0  0  0  0  0  0  0  0  0  0  0
    2.4507   -9.0910    0.7933 H   0  0  0  0  0  0  0  0  0  0  0  0
    0.3353  -11.1336    2.8980 H   0  0  0  0  0  0  0  0  0  0  0  0
    5.4981   -4.5822   -0.3358 H   0  0  0  0  0  0  0  0  0  0  0  0
    0.3896  -10.2656    1.4833 H   0  0  0  0  0  0  0  0  0  0  0  0
  1  2  2  0
  2 13  1  0
  2  3  1  0
  3  4  1  0
  4 11  1  0
  4  5  1  0
  4 23  1  1
  5  6  1  0
  5 24  1  0
  5 25  1  0
  6 12  1  0
  6  7  1  0
  6 26  1  1
  7  8  1  0
  7 27  1  0
  7 28  1  0
  8  9  1  0
  9 10  1  0
  9 29  1  0
  9 30  1  0
 10 11  1  0
 10 12  1  0
 10 31  1  6
 11 32  1  0
 11 33  1  0
 12 34  1  0
 12 36  1  0
 13 14  1  0
 13 21  2  0
 14 15  2  0
 14 35  1  0
 15 16  1  0
 15 20  1  0
 16 17  1  0
 16 18  1  0
 16 19  1  0
 20 21  1  0
 20 22  1  0
M  CHG  1  12   1
M  END
>  <i_m_ct_stereo_status>  (312) 
1

>  <s_m_source_file>  (312) 
/var/tmp/pbs.5076255.sched01/tmp1uy3qkd6/1269t22etaf.sdf

>  <i_m_source_file_index>  (312) 
17

>  <i_lp_mmshare_version>  (312) 
48012

>  <i_f3d_flags>  (312) 
0

>  <s_epik_input>  (312) 
RkMoRikoRiljKG5bbkhdMSlbY0hdYzFDKD1PKU9bQ0BIXShbQ0gyXVtDSF0yMylbQ0gyXVtDQEhdKFtOSF0zKVtDSDJdT1tDSDJdMg==

>  <s_epik_cmdline>  (312) 
J2VwaWtfcHl0aG9uJywgJy1waHQnLCAnMi4wJywgJy1waCcsICc3LjAnLCAnLXRuJywgJzgnLCAnLW1hJywgJzIwMCcsICctaW1hZScsICc8aW5maWxlLm1hZT4nLCAnLW9tYWUnLCAnPG91dGZpbGUubWFlPic=

>  <r_lp_tautomer_probability>  (312) 
0.96331

>  <r_epik_Ionization_Penalty>  (312) 
0.390483

>  <r_epik_Ionization_Penalty_Charging>  (312) 
0.088043

>  <r_epik_Ionization_Penalty_Neutral>  (312) 
0.30244

>  <r_epik_State_Penalty>  (312) 
0.24577

>  <r_epik_Charging_Adjusted_Penalty>  (312) 
0.333813

>  <i_epik_Tot_Q>  (312) 
1

>  <i_epik_Tot_abs_Q>  (312) 
1

>  <s_epik_Chemistry_Notes>  (312) 
This compound has an ester and may undergo hydrolysis at high or low pH.

>  <s_lp_Force_Field>  (312) 
OPLS3e

>  <r_lp_Energy>  (312) 
25.7258

>  <b_lp_Chiralities_Consistent>  (312) 
1

>  <s_lp_Variant>  (312) 
102:0-2

>  <s_i_glide_gridfile>  (312) 
pfpi4k_grid

>  <i_i_glide_lignum>  (312) 
17

>  <i_i_glide_rotatable_bonds>  (312) 
4

>  <r_i_docking_score>  (312) 
-3.68196

>  <r_i_glide_ligand_efficiency>  (312) 
-0.175331

>  <r_i_glide_ligand_efficiency_sa>  (312) 
-0.483726

>  <r_i_glide_ligand_efficiency_ln>  (312) 
-0.910356

>  <r_i_glide_gscore>  (312) 
-3.68196

>  <r_i_glide_lipo>  (312) 
-0.0698037

>  <r_i_glide_hbond>  (312) 
-0.16

>  <r_i_glide_metal>  (312) 
-0

>  <r_i_glide_rewards>  (312) 
-1.55451

>  <r_i_glide_evdw>  (312) 
-22.635

>  <r_i_glide_ecoul>  (312) 
-8.32352

>  <r_i_glide_erotb>  (312) 
0.590732

>  <r_i_glide_esite>  (312) 
-0.108099

>  <r_i_glide_emodel>  (312) 
-39.6036

>  <r_i_glide_energy>  (312) 
-30.9586

>  <r_i_glide_einternal>  (312) 
2.6567

>  <r_i_glide_intrahb_reward>  (312) 
-0

>  <i_i_glide_confnum>  (312) 
5

>  <i_i_glide_posenum>  (312) 
38

>  <r_i_glide_eff_state_penalty>  (312) 
0

>  <ligand_id>  (312) 
102

>  <original_smiles>  (312) 
O=C(OC1CC2COCC(C1)N2)c1cc(C(F)(F)F)n[nH]1

>  <smiles>  (312) 
[H]c1c(C(=O)OC2([H])C([H])([H])C3([H])C([H])([H])OC([H])([H])C([H])(C2([H])[H])[N+]3([H])[H])nn([H])c1C(F)(F)F

$$$$
102:1:2
     RDKit          3D

 36 38  0  0  1  0  0  0  0  0999 V2000
    4.0968   -6.2608    1.6844 O   0  0  0  0  0  0  0  0  0  0  0  0
    3.1439   -5.8266    1.0374 C   0  0  0  0  0  0  0  0  0  0  0  0
    1.8686   -6.3069    1.1101 O   0  0  0  0  0  0  0  0  0  0  0  0
    1.4506   -7.2208    2.1260 C   0  0  1  0  0  0  0  0  0  0  0  0
   -0.0942   -7.3085    2.0430 C   0  0  0  0  0  0  0  0  0  0  0  0
   -0.7076   -8.4718    2.8662 C   0  0  2  0  0  0  0  0  0  0  0  0
   -0.5555   -8.3162    4.3956 C   0  0  0  0  0  0  0  0  0  0  0  0
    0.8153   -8.3886    4.7767 O   0  0  0  0  0  0  0  0  0  0  0  0
    1.4798   -9.5744    4.3412 C   0  0  0  0  0  0  0  0  0  0  0  0
    1.3653   -9.7277    2.8061 C   0  0  2  0  0  0  0  0  0  0  0  0
    2.0872   -8.6277    1.9806 C   0  0  0  0  0  0  0  0  0  0  0  0
   -0.0747   -9.7479    2.4715 N   0  0  0  0  0  0  0  0  0  0  0  0
    3.2480   -4.6989    0.0863 C   0  0  0  0  0  0  0  0  0  0  0  0
    4.4850   -4.1969   -0.4159 C   0  0  0  0  0  0  0  0  0  0  0  0
    4.1189   -3.1366   -1.2092 C   0  0  0  0  0  0  0  0  0  0  0  0
    4.9129   -2.1863   -2.0409 C   0  0  0  0  0  0  0  0  0  0  0  0
    4.6147   -2.3308   -3.3357 F   0  0  0  0  0  0  0  0  0  0  0  0
    4.6506   -0.9231   -1.6987 F   0  0  0  0  0  0  0  0  0  0  0  0
    6.2276   -2.3805   -1.8977 F   0  0  0  0  0  0  0  0  0  0  0  0
    2.7537   -3.0495   -1.1365 N   0  0  0  0  0  0  0  0  0  0  0  0
    2.2148   -3.9971   -0.3514 N   0  0  0  0  0  0  0  0  0  0  0  0
    2.1728   -2.3219   -1.5439 H   0  0  0  0  0  0  0  0  0  0  0  0
    1.7225   -6.8004    3.0916 H   0  0  0  0  0  0  0  0  0  0  0  0
   -0.3908   -7.4468    1.0021 H   0  0  0  0  0  0  0  0  0  0  0  0
   -0.5201   -6.3552    2.3527 H   0  0  0  0  0  0  0  0  0  0  0  0
   -1.7751   -8.5340    2.6256 H   0  0  0  0  0  0  0  0  0  0  0  0
   -0.9301   -7.3516    4.7272 H   0  0  0  0  0  0  0  0  0  0  0  0
   -1.1688   -9.0518    4.9138 H   0  0  0  0  0  0  0  0  0  0  0  0
    2.5235   -9.4717    4.6364 H   0  0  0  0  0  0  0  0  0  0  0  0
    1.0851  -10.4759    4.8354 H   0  0  0  0  0  0  0  0  0  0  0  0
    1.7991  -10.6936    2.5216 H   0  0  0  0  0  0  0  0  0  0  0  0
    3.1429   -8.6055    2.2585 H   0  0  0  0  0  0  0  0  0  0  0  0
    2.0591   -8.9301    0.9343 H   0  0  0  0  0  0  0  0  0  0  0  0
   -0.5234  -10.5089    2.9677 H   0  0  0  0  0  0  0  0  0  0  0  0
    5.4899   -4.5488   -0.2136 H   0  0  0  0  0  0  0  0  0  0  0  0
   -0.1806   -9.8780    1.4639 H   0  0  0  0  0  0  0  0  0  0  0  0
  1  2  2  0
  2 13  1  0
  2  3  1  0
  3  4  1  0
  4 11  1  0
  4  5  1  0
  4 23  1  1
  5  6  1  0
  5 24  1  0
  5 25  1  0
  6 12  1  0
  6  7  1  0
  6 26  1  1
  7  8  1  0
  7 27  1  0
  7 28  1  0
  8  9  1  0
  9 10  1  0
  9 29  1  0
  9 30  1  0
 10 11  1  0
 10 12  1  0
 10 31  1  6
 11 32  1  0
 11 33  1  0
 12 34  1  0
 12 36  1  0
 13 14  1  0
 13 21  2  0
 14 15  2  0
 14 35  1  0
 15 16  1  0
 15 20  1  0
 16 17  1  0
 16 18  1  0
 16 19  1  0
 20 21  1  0
 20 22  1  0
M  CHG  1  12   1
M  END
>  <i_m_ct_stereo_status>  (313) 
1

>  <s_m_source_file>  (313) 
/var/tmp/pbs.5076255.sched01/tmp1uy3qkd6/1269t22etaf.sdf

>  <i_m_source_file_index>  (313) 
17

>  <i_lp_mmshare_version>  (313) 
48012

>  <i_f3d_flags>  (313) 
0

>  <s_epik_input>  (313) 
RkMoRikoRiljKG5bbkhdMSlbY0hdYzFDKD1PKU9bQ0BIXShbQ0gyXVtDSF0yMylbQ0gyXVtDQEhdKFtOSF0zKVtDSDJdT1tDSDJdMg==

>  <s_epik_cmdline>  (313) 
J2VwaWtfcHl0aG9uJywgJy1waHQnLCAnMi4wJywgJy1waCcsICc3LjAnLCAnLXRuJywgJzgnLCAnLW1hJywgJzIwMCcsICctaW1hZScsICc8aW5maWxlLm1hZT4nLCAnLW9tYWUnLCAnPG91dGZpbGUubWFlPic=

>  <r_lp_tautomer_probability>  (313) 
0.96331

>  <r_epik_Ionization_Penalty>  (313) 
0.390483

>  <r_epik_Ionization_Penalty_Charging>  (313) 
0.088043

>  <r_epik_Ionization_Penalty_Neutral>  (313) 
0.30244

>  <r_epik_State_Penalty>  (313) 
0.24577

>  <r_epik_Charging_Adjusted_Penalty>  (313) 
0.333813

>  <i_epik_Tot_Q>  (313) 
1

>  <i_epik_Tot_abs_Q>  (313) 
1

>  <s_epik_Chemistry_Notes>  (313) 
This compound has an ester and may undergo hydrolysis at high or low pH.

>  <s_lp_Force_Field>  (313) 
OPLS3e

>  <r_lp_Energy>  (313) 
25.7258

>  <b_lp_Chiralities_Consistent>  (313) 
1

>  <s_lp_Variant>  (313) 
102:0-2

>  <s_i_glide_gridfile>  (313) 
pfpi4k_grid

>  <i_i_glide_lignum>  (313) 
17

>  <i_i_glide_rotatable_bonds>  (313) 
4

>  <r_i_docking_score>  (313) 
-3.44269

>  <r_i_glide_ligand_efficiency>  (313) 
-0.163937

>  <r_i_glide_ligand_efficiency_sa>  (313) 
-0.452291

>  <r_i_glide_ligand_efficiency_ln>  (313) 
-0.851197

>  <r_i_glide_gscore>  (313) 
-3.44269

>  <r_i_glide_lipo>  (313) 
-0.075349

>  <r_i_glide_hbond>  (313) 
-0.10129

>  <r_i_glide_metal>  (313) 
-0

>  <r_i_glide_rewards>  (313) 
-1.43228

>  <r_i_glide_evdw>  (313) 
-25.7849

>  <r_i_glide_ecoul>  (313) 
-6.88155

>  <r_i_glide_erotb>  (313) 
0.590732

>  <r_i_glide_esite>  (313) 
-0.103027

>  <r_i_glide_emodel>  (313) 
-40.3454

>  <r_i_glide_energy>  (313) 
-32.6664

>  <r_i_glide_einternal>  (313) 
3.26572

>  <r_i_glide_intrahb_reward>  (313) 
-0

>  <i_i_glide_confnum>  (313) 
5

>  <i_i_glide_posenum>  (313) 
32

>  <r_i_glide_eff_state_penalty>  (313) 
0

>  <ligand_id>  (313) 
102

>  <original_smiles>  (313) 
O=C(OC1CC2COCC(C1)N2)c1cc(C(F)(F)F)n[nH]1

>  <smiles>  (313) 
[H]c1c(C(=O)OC2([H])C([H])([H])C3([H])C([H])([H])OC([H])([H])C([H])(C2([H])[H])[N+]3([H])[H])nn([H])c1C(F)(F)F

$$$$
102:2:0
     RDKit          3D

 35 37  0  0  1  0  0  0  0  0999 V2000
   -1.0701   -8.7621    2.6798 O   0  0  0  0  0  0  0  0  0  0  0  0
    0.1405   -8.5132    2.6296 C   0  0  0  0  0  0  0  0  0  0  0  0
    1.0658   -9.1591    3.3494 O   0  0  0  0  0  0  0  0  0  0  0  0
    0.7115  -10.1592    4.3001 C   0  0  2  0  0  0  0  0  0  0  0  0
    1.1992   -9.7271    5.6962 C   0  0  0  0  0  0  0  0  0  0  0  0
    2.7030  -10.0211    5.9622 C   0  0  2  0  0  0  0  0  0  0  0  0
    3.6941   -9.1717    5.1589 C   0  0  0  0  0  0  0  0  0  0  0  0
    3.6491   -9.5123    3.7891 O   0  0  0  0  0  0  0  0  0  0  0  0
    3.7653  -10.8803    3.4518 C   0  0  0  0  0  0  0  0  0  0  0  0
    2.7800  -11.7266    4.2660 C   0  0  2  0  0  0  0  0  0  0  0  0
    1.2814  -11.5379    3.9122 C   0  0  0  0  0  0  0  0  0  0  0  0
    3.0097  -11.4438    5.6894 N   0  0  0  0  0  0  0  0  0  0  0  0
    0.7057   -7.4351    1.7811 C   0  0  0  0  0  0  0  0  0  0  0  0
    2.0965   -7.0354    1.8680 C   0  0  0  0  0  0  0  0  0  0  0  0
    2.0914   -6.0049    0.9012 C   0  0  0  0  0  0  0  0  0  0  0  0
    3.3791   -5.2160    0.6049 C   0  0  0  0  0  0  0  0  0  0  0  0
    3.1172   -4.2733   -0.2860 F   0  0  0  0  0  0  0  0  0  0  0  0
    3.8400   -4.6277    1.7117 F   0  0  0  0  0  0  0  0  0  0  0  0
    4.3283   -6.0220    0.1227 F   0  0  0  0  0  0  0  0  0  0  0  0
    0.8536   -5.8582    0.3660 N   0  0  0  0  0  0  0  0  0  0  0  0
   -0.0141   -6.7091    0.9130 N   0  0  0  0  0  0  0  0  0  0  0  0
   -0.3692  -10.2848    4.3716 H   0  0  0  0  0  0  0  0  0  0  0  0
    0.6274  -10.2838    6.4387 H   0  0  0  0  0  0  0  0  0  0  0  0
    0.9578   -8.6776    5.8779 H   0  0  0  0  0  0  0  0  0  0  0  0
    2.8916   -9.8398    7.0213 H   0  0  0  0  0  0  0  0  0  0  0  0
    3.4478   -8.1161    5.2292 H   0  0  0  0  0  0  0  0  0  0  0  0
    4.7056   -9.2873    5.5423 H   0  0  0  0  0  0  0  0  0  0  0  0
    3.5650  -10.9608    2.3878 H   0  0  0  0  0  0  0  0  0  0  0  0
    4.7877  -11.2165    3.6119 H   0  0  0  0  0  0  0  0  0  0  0  0
    3.0430  -12.7681    4.1013 H   0  0  0  0  0  0  0  0  0  0  0  0
    1.0878  -11.7665    2.8635 H   0  0  0  0  0  0  0  0  0  0  0  0
    0.7295  -12.2949    4.4716 H   0  0  0  0  0  0  0  0  0  0  0  0
    3.9718  -11.6313    5.9254 H   0  0  0  0  0  0  0  0  0  0  0  0
    2.9131   -7.4158    2.5190 H   0  0  0  0  0  0  0  0  0  0  0  0
    2.4188  -12.0191    6.3041 H   0  0  0  0  0  0  0  0  0  0  0  0
  1  2  2  0
  2 13  1  0
  2  3  1  0
  3  4  1  0
  4 11  1  0
  4  5  1  0
  4 22  1  1
  5  6  1  0
  5 23  1  0
  5 24  1  0
  6 12  1  0
  6  7  1  0
  6 25  1  1
  7  8  1  0
  7 26  1  0
  7 27  1  0
  8  9  1  0
  9 10  1  0
  9 28  1  0
  9 29  1  0
 10 11  1  0
 10 12  1  0
 10 30  1  1
 11 31  1  0
 11 32  1  0
 12 33  1  0
 12 35  1  0
 13 14  1  0
 13 21  2  0
 14 15  2  0
 14 34  1  0
 15 16  1  0
 15 20  1  0
 16 17  1  0
 16 18  1  0
 16 19  1  0
 20 21  1  0
M  CHG  2  12   1  20  -1
M  END
>  <i_m_ct_stereo_status>  (314) 
1

>  <s_m_source_file>  (314) 
/var/tmp/pbs.5076255.sched01/tmp1uy3qkd6/1269t22etaf.sdf

>  <i_m_source_file_index>  (314) 
18

>  <i_lp_mmshare_version>  (314) 
48012

>  <i_f3d_flags>  (314) 
0

>  <s_epik_input>  (314) 
RkMoRikoRiljKG5bbkhdMSlbY0hdYzFDKD1PKU9bQ0BIXShbQ0gyXVtDSF0yMylbQ0gyXVtDQEhdKFtOSF0zKVtDSDJdT1tDSDJdMg==

>  <s_epik_cmdline>  (314) 
J2VwaWtfcHl0aG9uJywgJy1waHQnLCAnMi4wJywgJy1waCcsICc3LjAnLCAnLXRuJywgJzgnLCAnLW1hJywgJzIwMCcsICctaW1hZScsICc8aW5maWxlLm1hZT4nLCAnLW9tYWUnLCAnPG91dGZpbGUubWFlPic=

>  <r_epik_Ionization_Penalty>  (314) 
1.43649

>  <r_epik_Ionization_Penalty_Charging>  (314) 
0.631258

>  <r_epik_Ionization_Penalty_Neutral>  (314) 
0.805227

>  <r_epik_State_Penalty>  (314) 
1.13399

>  <r_epik_Charging_Adjusted_Penalty>  (314) 
1.76525

>  <i_epik_Tot_Q>  (314) 
0

>  <i_epik_Tot_abs_Q>  (314) 
2

>  <s_epik_Chemistry_Notes>  (314) 
This compound has an ester and may undergo hydrolysis at high or low pH.

>  <s_lp_Force_Field>  (314) 
OPLS3e

>  <r_lp_Energy>  (314) 
27.7228

>  <b_lp_Chiralities_Consistent>  (314) 
1

>  <s_lp_Variant>  (314) 
102:0-3

>  <s_i_glide_gridfile>  (314) 
pfpi4k_grid

>  <i_i_glide_lignum>  (314) 
18

>  <i_i_glide_rotatable_bonds>  (314) 
4

>  <r_i_docking_score>  (314) 
-5.46359

>  <r_i_glide_ligand_efficiency>  (314) 
-0.260171

>  <r_i_glide_ligand_efficiency_sa>  (314) 
-0.717792

>  <r_i_glide_ligand_efficiency_ln>  (314) 
-1.35086

>  <r_i_glide_gscore>  (314) 
-5.46359

>  <r_i_glide_lipo>  (314) 
-0.117499

>  <r_i_glide_hbond>  (314) 
-0.212183

>  <r_i_glide_metal>  (314) 
-0

>  <r_i_glide_rewards>  (314) 
-2.138

>  <r_i_glide_evdw>  (314) 
-19.2739

>  <r_i_glide_ecoul>  (314) 
-13.8766

>  <r_i_glide_erotb>  (314) 
0.41591

>  <r_i_glide_esite>  (314) 
-0.366622

>  <r_i_glide_emodel>  (314) 
-52.8518

>  <r_i_glide_energy>  (314) 
-33.1505

>  <r_i_glide_einternal>  (314) 
2.23037

>  <r_i_glide_intrahb_reward>  (314) 
-0

>  <i_i_glide_confnum>  (314) 
6

>  <i_i_glide_posenum>  (314) 
40

>  <r_i_glide_eff_state_penalty>  (314) 
0

>  <ligand_id>  (314) 
102

>  <original_smiles>  (314) 
O=C(OC1CC2COCC(C1)N2)c1cc(C(F)(F)F)n[nH]1

>  <smiles>  (314) 
[H]c1c(C(=O)OC2([H])C([H])([H])C3([H])C([H])([H])OC([H])([H])C([H])(C2([H])[H])[N+]3([H])[H])n[n-]c1C(F)(F)F

$$$$
102:2:1
     RDKit          3D

 35 37  0  0  1  0  0  0  0  0999 V2000
    4.5627   -6.9656    1.6288 O   0  0  0  0  0  0  0  0  0  0  0  0
    3.6717   -6.3246    1.0616 C   0  0  0  0  0  0  0  0  0  0  0  0
    3.8900   -5.2884    0.2291 O   0  0  0  0  0  0  0  0  0  0  0  0
    5.1478   -4.6434    0.1092 C   0  0  2  0  0  0  0  0  0  0  0  0
    5.2703   -3.5483    1.1988 C   0  0  0  0  0  0  0  0  0  0  0  0
    4.5374   -2.2182    0.8615 C   0  0  2  0  0  0  0  0  0  0  0  0
    3.0045   -2.2992    0.8418 C   0  0  0  0  0  0  0  0  0  0  0  0
    2.5698   -3.1014   -0.2428 O   0  0  0  0  0  0  0  0  0  0  0  0
    3.0472   -2.7552   -1.5318 C   0  0  0  0  0  0  0  0  0  0  0  0
    4.5811   -2.6654   -1.5130 C   0  0  2  0  0  0  0  0  0  0  0  0
    5.3103   -4.0175   -1.3002 C   0  0  0  0  0  0  0  0  0  0  0  0
    4.9745   -1.7104   -0.4547 N   0  0  0  0  0  0  0  0  0  0  0  0
    2.2154   -6.5353    1.2534 C   0  0  0  0  0  0  0  0  0  0  0  0
    1.6947   -7.4516    2.2545 C   0  0  0  0  0  0  0  0  0  0  0  0
    0.2891   -7.2105    2.0652 C   0  0  0  0  0  0  0  0  0  0  0  0
   -0.7439   -7.9533    2.9013 C   0  0  0  0  0  0  0  0  0  0  0  0
   -1.5179   -7.0677    3.5333 F   0  0  0  0  0  0  0  0  0  0  0  0
   -1.5220   -8.6759    2.0940 F   0  0  0  0  0  0  0  0  0  0  0  0
   -0.1966   -8.7629    3.8032 F   0  0  0  0  0  0  0  0  0  0  0  0
    0.1100   -6.2796    1.0995 N   0  0  0  0  0  0  0  0  0  0  0  0
    1.2534   -5.8913    0.5798 N   0  0  0  0  0  0  0  0  0  0  0  0
    5.9485   -5.3778    0.2360 H   0  0  0  0  0  0  0  0  0  0  0  0
    6.3298   -3.3222    1.3265 H   0  0  0  0  0  0  0  0  0  0  0  0
    4.9370   -3.9340    2.1646 H   0  0  0  0  0  0  0  0  0  0  0  0
    4.8232   -1.4819    1.6148 H   0  0  0  0  0  0  0  0  0  0  0  0
    2.6229   -2.7532    1.7517 H   0  0  0  0  0  0  0  0  0  0  0  0
    2.5732   -1.3019    0.7762 H   0  0  0  0  0  0  0  0  0  0  0  0
    2.7043   -3.5153   -2.2278 H   0  0  0  0  0  0  0  0  0  0  0  0
    2.6171   -1.8104   -1.8563 H   0  0  0  0  0  0  0  0  0  0  0  0
    4.9058   -2.2564   -2.4730 H   0  0  0  0  0  0  0  0  0  0  0  0
    5.0234   -4.7325   -2.0744 H   0  0  0  0  0  0  0  0  0  0  0  0
    6.3755   -3.8334   -1.4529 H   0  0  0  0  0  0  0  0  0  0  0  0
    4.5085   -0.8274   -0.6288 H   0  0  0  0  0  0  0  0  0  0  0  0
    2.2138   -8.1046    2.9506 H   0  0  0  0  0  0  0  0  0  0  0  0
    5.9756   -1.5765   -0.4476 H   0  0  0  0  0  0  0  0  0  0  0  0
  1  2  2  0
  2 13  1  0
  2  3  1  0
  3  4  1  0
  4 11  1  0
  4  5  1  0
  4 22  1  1
  5  6  1  0
  5 23  1  0
  5 24  1  0
  6 12  1  0
  6  7  1  0
  6 25  1  1
  7  8  1  0
  7 26  1  0
  7 27  1  0
  8  9  1  0
  9 10  1  0
  9 28  1  0
  9 29  1  0
 10 11  1  0
 10 12  1  0
 10 30  1  6
 11 31  1  0
 11 32  1  0
 12 33  1  0
 12 35  1  0
 13 14  1  0
 13 21  2  0
 14 15  2  0
 14 34  1  0
 15 16  1  0
 15 20  1  0
 16 17  1  0
 16 18  1  0
 16 19  1  0
 20 21  1  0
M  CHG  2  12   1  20  -1
M  END
>  <i_m_ct_stereo_status>  (315) 
1

>  <s_m_source_file>  (315) 
/var/tmp/pbs.5076255.sched01/tmp1uy3qkd6/1269t22etaf.sdf

>  <i_m_source_file_index>  (315) 
18

>  <i_lp_mmshare_version>  (315) 
48012

>  <i_f3d_flags>  (315) 
0

>  <s_epik_input>  (315) 
RkMoRikoRiljKG5bbkhdMSlbY0hdYzFDKD1PKU9bQ0BIXShbQ0gyXVtDSF0yMylbQ0gyXVtDQEhdKFtOSF0zKVtDSDJdT1tDSDJdMg==

>  <s_epik_cmdline>  (315) 
J2VwaWtfcHl0aG9uJywgJy1waHQnLCAnMi4wJywgJy1waCcsICc3LjAnLCAnLXRuJywgJzgnLCAnLW1hJywgJzIwMCcsICctaW1hZScsICc8aW5maWxlLm1hZT4nLCAnLW9tYWUnLCAnPG91dGZpbGUubWFlPic=

>  <r_epik_Ionization_Penalty>  (315) 
1.43649

>  <r_epik_Ionization_Penalty_Charging>  (315) 
0.631258

>  <r_epik_Ionization_Penalty_Neutral>  (315) 
0.805227

>  <r_epik_State_Penalty>  (315) 
1.13399

>  <r_epik_Charging_Adjusted_Penalty>  (315) 
1.76525

>  <i_epik_Tot_Q>  (315) 
0

>  <i_epik_Tot_abs_Q>  (315) 
2

>  <s_epik_Chemistry_Notes>  (315) 
This compound has an ester and may undergo hydrolysis at high or low pH.

>  <s_lp_Force_Field>  (315) 
OPLS3e

>  <r_lp_Energy>  (315) 
27.7228

>  <b_lp_Chiralities_Consistent>  (315) 
1

>  <s_lp_Variant>  (315) 
102:0-3

>  <s_i_glide_gridfile>  (315) 
pfpi4k_grid

>  <i_i_glide_lignum>  (315) 
18

>  <i_i_glide_rotatable_bonds>  (315) 
4

>  <r_i_docking_score>  (315) 
-3.97575

>  <r_i_glide_ligand_efficiency>  (315) 
-0.189321

>  <r_i_glide_ligand_efficiency_sa>  (315) 
-0.522323

>  <r_i_glide_ligand_efficiency_ln>  (315) 
-0.982995

>  <r_i_glide_gscore>  (315) 
-3.97575

>  <r_i_glide_lipo>  (315) 
-0.103279

>  <r_i_glide_hbond>  (315) 
0

>  <r_i_glide_metal>  (315) 
-0

>  <r_i_glide_rewards>  (315) 
-1.52791

>  <r_i_glide_evdw>  (315) 
-20.2686

>  <r_i_glide_ecoul>  (315) 
-10.5105

>  <r_i_glide_erotb>  (315) 
0.594157

>  <r_i_glide_esite>  (315) 
-0.34871

>  <r_i_glide_emodel>  (315) 
-44.4557

>  <r_i_glide_energy>  (315) 
-30.7791

>  <r_i_glide_einternal>  (315) 
2.8297

>  <r_i_glide_intrahb_reward>  (315) 
-0

>  <i_i_glide_confnum>  (315) 
6

>  <i_i_glide_posenum>  (315) 
19

>  <r_i_glide_eff_state_penalty>  (315) 
0

>  <ligand_id>  (315) 
102

>  <original_smiles>  (315) 
O=C(OC1CC2COCC(C1)N2)c1cc(C(F)(F)F)n[nH]1

>  <smiles>  (315) 
[H]c1c(C(=O)OC2([H])C([H])([H])C3([H])C([H])([H])OC([H])([H])C([H])(C2([H])[H])[N+]3([H])[H])n[n-]c1C(F)(F)F

$$$$
102:2:2
     RDKit          3D

 35 37  0  0  1  0  0  0  0  0999 V2000
    4.6428   -7.2103    1.3931 O   0  0  0  0  0  0  0  0  0  0  0  0
    3.7738   -6.4178    1.0219 C   0  0  0  0  0  0  0  0  0  0  0  0
    4.0350   -5.2605    0.3689 O   0  0  0  0  0  0  0  0  0  0  0  0
    5.3604   -4.7915    0.1351 C   0  0  2  0  0  0  0  0  0  0  0  0
    5.9009   -4.0475    1.3843 C   0  0  0  0  0  0  0  0  0  0  0  0
    5.4170   -2.5781    1.5212 C   0  0  2  0  0  0  0  0  0  0  0  0
    3.9186   -2.4055    1.8310 C   0  0  0  0  0  0  0  0  0  0  0  0
    3.1253   -2.8143    0.7311 O   0  0  0  0  0  0  0  0  0  0  0  0
    3.4376   -2.2376   -0.5257 C   0  0  0  0  0  0  0  0  0  0  0  0
    4.9387   -2.4016   -0.8430 C   0  0  2  0  0  0  0  0  0  0  0  0
    5.3914   -3.8612   -1.1061 C   0  0  0  0  0  0  0  0  0  0  0  0
    5.7064   -1.8252    0.2839 N   0  0  0  0  0  0  0  0  0  0  0  0
    2.3224   -6.5820    1.2465 C   0  0  0  0  0  0  0  0  0  0  0  0
    1.7884   -7.5312    2.2096 C   0  0  0  0  0  0  0  0  0  0  0  0
    0.3920   -7.2475    2.0399 C   0  0  0  0  0  0  0  0  0  0  0  0
   -0.6421   -7.9729    2.8764 C   0  0  0  0  0  0  0  0  0  0  0  0
   -1.4004   -7.0744    3.5126 F   0  0  0  0  0  0  0  0  0  0  0  0
   -1.4309   -8.6906    2.0794 F   0  0  0  0  0  0  0  0  0  0  0  0
   -0.0984   -8.7921    3.7896 F   0  0  0  0  0  0  0  0  0  0  0  0
    0.2157   -6.2692    1.1009 N   0  0  0  0  0  0  0  0  0  0  0  0
    1.3675   -5.9131    0.5895 N   0  0  0  0  0  0  0  0  0  0  0  0
    6.0152   -5.6409   -0.0856 H   0  0  0  0  0  0  0  0  0  0  0  0
    6.9900   -4.0278    1.3117 H   0  0  0  0  0  0  0  0  0  0  0  0
    5.6888   -4.6141    2.2944 H   0  0  0  0  0  0  0  0  0  0  0  0
    5.9726   -2.1183    2.3340 H   0  0  0  0  0  0  0  0  0  0  0  0
    3.6117   -3.0307    2.6644 H   0  0  0  0  0  0  0  0  0  0  0  0
    3.6912   -1.3690    2.0969 H   0  0  0  0  0  0  0  0  0  0  0  0
    2.8190   -2.7467   -1.2562 H   0  0  0  0  0  0  0  0  0  0  0  0
    3.1600   -1.1813   -0.5345 H   0  0  0  0  0  0  0  0  0  0  0  0
    5.1476   -1.8149   -1.7340 H   0  0  0  0  0  0  0  0  0  0  0  0
    4.8396   -4.3073   -1.9377 H   0  0  0  0  0  0  0  0  0  0  0  0
    6.4250   -3.8092   -1.4467 H   0  0  0  0  0  0  0  0  0  0  0  0
    5.4108   -0.8657    0.4166 H   0  0  0  0  0  0  0  0  0  0  0  0
    2.3078   -8.2394    2.8698 H   0  0  0  0  0  0  0  0  0  0  0  0
    6.6953   -1.8530    0.0963 H   0  0  0  0  0  0  0  0  0  0  0  0
  1  2  2  0
  2 13  1  0
  2  3  1  0
  3  4  1  0
  4 11  1  0
  4  5  1  0
  4 22  1  6
  5  6  1  0
  5 23  1  0
  5 24  1  0
  6 12  1  0
  6  7  1  0
  6 25  1  1
  7  8  1  0
  7 26  1  0
  7 27  1  0
  8  9  1  0
  9 10  1  0
  9 28  1  0
  9 29  1  0
 10 11  1  0
 10 12  1  0
 10 30  1  6
 11 31  1  0
 11 32  1  0
 12 33  1  0
 12 35  1  0
 13 14  1  0
 13 21  2  0
 14 15  2  0
 14 34  1  0
 15 16  1  0
 15 20  1  0
 16 17  1  0
 16 18  1  0
 16 19  1  0
 20 21  1  0
M  CHG  2  12   1  20  -1
M  END
>  <i_m_ct_stereo_status>  (316) 
1

>  <s_m_source_file>  (316) 
/var/tmp/pbs.5076255.sched01/tmp1uy3qkd6/1269t22etaf.sdf

>  <i_m_source_file_index>  (316) 
18

>  <i_lp_mmshare_version>  (316) 
48012

>  <i_f3d_flags>  (316) 
0

>  <s_epik_input>  (316) 
RkMoRikoRiljKG5bbkhdMSlbY0hdYzFDKD1PKU9bQ0BIXShbQ0gyXVtDSF0yMylbQ0gyXVtDQEhdKFtOSF0zKVtDSDJdT1tDSDJdMg==

>  <s_epik_cmdline>  (316) 
J2VwaWtfcHl0aG9uJywgJy1waHQnLCAnMi4wJywgJy1waCcsICc3LjAnLCAnLXRuJywgJzgnLCAnLW1hJywgJzIwMCcsICctaW1hZScsICc8aW5maWxlLm1hZT4nLCAnLW9tYWUnLCAnPG91dGZpbGUubWFlPic=

>  <r_epik_Ionization_Penalty>  (316) 
1.43649

>  <r_epik_Ionization_Penalty_Charging>  (316) 
0.631258

>  <r_epik_Ionization_Penalty_Neutral>  (316) 
0.805227

>  <r_epik_State_Penalty>  (316) 
1.13399

>  <r_epik_Charging_Adjusted_Penalty>  (316) 
1.76525

>  <i_epik_Tot_Q>  (316) 
0

>  <i_epik_Tot_abs_Q>  (316) 
2

>  <s_epik_Chemistry_Notes>  (316) 
This compound has an ester and may undergo hydrolysis at high or low pH.

>  <s_lp_Force_Field>  (316) 
OPLS3e

>  <r_lp_Energy>  (316) 
27.7228

>  <b_lp_Chiralities_Consistent>  (316) 
1

>  <s_lp_Variant>  (316) 
102:0-3

>  <s_i_glide_gridfile>  (316) 
pfpi4k_grid

>  <i_i_glide_lignum>  (316) 
18

>  <i_i_glide_rotatable_bonds>  (316) 
4

>  <r_i_docking_score>  (316) 
-3.91931

>  <r_i_glide_ligand_efficiency>  (316) 
-0.186634

>  <r_i_glide_ligand_efficiency_sa>  (316) 
-0.514909

>  <r_i_glide_ligand_efficiency_ln>  (316) 
-0.969042

>  <r_i_glide_gscore>  (316) 
-3.91931

>  <r_i_glide_lipo>  (316) 
-0.231734

>  <r_i_glide_hbond>  (316) 
0

>  <r_i_glide_metal>  (316) 
-0

>  <r_i_glide_rewards>  (316) 
-1.51038

>  <r_i_glide_evdw>  (316) 
-21.1182

>  <r_i_glide_ecoul>  (316) 
-9.26359

>  <r_i_glide_erotb>  (316) 
0.594157

>  <r_i_glide_esite>  (316) 
-0.325904

>  <r_i_glide_emodel>  (316) 
-44.3

>  <r_i_glide_energy>  (316) 
-30.3818

>  <r_i_glide_einternal>  (316) 
1.91612

>  <r_i_glide_intrahb_reward>  (316) 
-0

>  <i_i_glide_confnum>  (316) 
4

>  <i_i_glide_posenum>  (316) 
5

>  <r_i_glide_eff_state_penalty>  (316) 
0

>  <ligand_id>  (316) 
102

>  <original_smiles>  (316) 
O=C(OC1CC2COCC(C1)N2)c1cc(C(F)(F)F)n[nH]1

>  <smiles>  (316) 
[H]c1c(C(=O)OC2([H])C([H])([H])C3([H])C([H])([H])OC([H])([H])C([H])(C2([H])[H])[N+]3([H])[H])n[n-]c1C(F)(F)F

$$$$
102:3:0
     RDKit          3D

 35 37  0  0  1  0  0  0  0  0999 V2000
    3.7977   -6.2153    1.6250 O   0  0  0  0  0  0  0  0  0  0  0  0
    2.7054   -5.9577    1.1188 C   0  0  0  0  0  0  0  0  0  0  0  0
    2.5076   -4.9706    0.2039 O   0  0  0  0  0  0  0  0  0  0  0  0
    3.4870   -3.9620   -0.0580 C   0  0  1  0  0  0  0  0  0  0  0  0
    3.3201   -3.4472   -1.5110 C   0  0  0  0  0  0  0  0  0  0  0  0
    3.9355   -2.0501   -1.7590 C   0  0  2  0  0  0  0  0  0  0  0  0
    5.4585   -1.9944   -1.6811 C   0  0  0  0  0  0  0  0  0  0  0  0
    5.8885   -2.2266   -0.3565 O   0  0  0  0  0  0  0  0  0  0  0  0
    5.3390   -1.3951    0.6457 C   0  0  0  0  0  0  0  0  0  0  0  0
    3.8162   -1.4649    0.5836 C   0  0  2  0  0  0  0  0  0  0  0  0
    3.1983   -2.8316    0.9572 C   0  0  0  0  0  0  0  0  0  0  0  0
    3.4104   -1.0851   -0.7788 N   0  0  0  0  0  0  0  0  0  0  0  0
    1.4152   -6.5949    1.4852 C   0  0  0  0  0  0  0  0  0  0  0  0
    1.3080   -7.5208    2.6149 C   0  0  0  0  0  0  0  0  0  0  0  0
   -0.1227   -7.6528    2.6090 C   0  0  0  0  0  0  0  0  0  0  0  0
   -0.8020   -8.6379    3.5589 C   0  0  0  0  0  0  0  0  0  0  0  0
   -1.4922   -7.9334    4.4537 F   0  0  0  0  0  0  0  0  0  0  0  0
   -1.6488   -9.4003    2.8636 F   0  0  0  0  0  0  0  0  0  0  0  0
    0.0799   -9.4208    4.1960 F   0  0  0  0  0  0  0  0  0  0  0  0
   -0.6543   -6.7577    1.7319 N   0  0  0  0  0  0  0  0  0  0  0  0
    0.2458   -6.2768    0.9421 N   0  0  0  0  0  0  0  0  0  0  0  0
    4.5183   -4.3157    0.0517 H   0  0  0  0  0  0  0  0  0  0  0  0
    2.2577   -3.3782   -1.7590 H   0  0  0  0  0  0  0  0  0  0  0  0
    3.7612   -4.1578   -2.2113 H   0  0  0  0  0  0  0  0  0  0  0  0
    3.6404   -1.7147   -2.7533 H   0  0  0  0  0  0  0  0  0  0  0  0
    5.9274   -2.7513   -2.2994 H   0  0  0  0  0  0  0  0  0  0  0  0
    5.8167   -1.0314   -2.0293 H   0  0  0  0  0  0  0  0  0  0  0  0
    5.7114   -1.7594    1.5957 H   0  0  0  0  0  0  0  0  0  0  0  0
    5.6838   -0.3697    0.5362 H   0  0  0  0  0  0  0  0  0  0  0  0
    3.4116   -0.7222    1.2684 H   0  0  0  0  0  0  0  0  0  0  0  0
    3.4997   -3.1441    1.9591 H   0  0  0  0  0  0  0  0  0  0  0  0
    2.1171   -2.6813    1.0085 H   0  0  0  0  0  0  0  0  0  0  0  0
    3.7519   -0.1599   -0.9901 H   0  0  0  0  0  0  0  0  0  0  0  0
    2.0807   -7.9485    3.2841 H   0  0  0  0  0  0  0  0  0  0  0  0
    2.3857   -1.0516   -0.8208 H   0  0  0  0  0  0  0  0  0  0  0  0
  1  2  2  0
  2 13  1  0
  2  3  1  0
  3  4  1  0
  4 11  1  0
  4  5  1  0
  4 22  1  6
  5  6  1  0
  5 23  1  0
  5 24  1  0
  6 12  1  0
  6  7  1  0
  6 25  1  6
  7  8  1  0
  7 26  1  0
  7 27  1  0
  8  9  1  0
  9 10  1  0
  9 28  1  0
  9 29  1  0
 10 11  1  0
 10 12  1  0
 10 30  1  1
 11 31  1  0
 11 32  1  0
 12 33  1  0
 12 35  1  0
 13 14  1  0
 13 21  2  0
 14 15  2  0
 14 34  1  0
 15 16  1  0
 15 20  1  0
 16 17  1  0
 16 18  1  0
 16 19  1  0
 20 21  1  0
M  CHG  2  12   1  20  -1
M  END
>  <i_m_ct_stereo_status>  (317) 
1

>  <s_m_source_file>  (317) 
/var/tmp/pbs.5076255.sched01/tmp1uy3qkd6/1269t22etaf.sdf

>  <i_m_source_file_index>  (317) 
19

>  <i_lp_mmshare_version>  (317) 
48012

>  <i_f3d_flags>  (317) 
0

>  <s_epik_input>  (317) 
RkMoRikoRiljKG5bbkhdMSlbY0hdYzFDKD1PKU9bQ0BIXShbQ0gyXVtDSF0yMylbQ0gyXVtDQEhdKFtOSF0zKVtDSDJdT1tDSDJdMg==

>  <s_epik_cmdline>  (317) 
J2VwaWtfcHl0aG9uJywgJy1waHQnLCAnMi4wJywgJy1waCcsICc3LjAnLCAnLXRuJywgJzgnLCAnLW1hJywgJzIwMCcsICctaW1hZScsICc8aW5maWxlLm1hZT4nLCAnLW9tYWUnLCAnPG91dGZpbGUubWFlPic=

>  <r_epik_Ionization_Penalty>  (317) 
1.43649

>  <r_epik_Ionization_Penalty_Charging>  (317) 
0.631258

>  <r_epik_Ionization_Penalty_Neutral>  (317) 
0.805227

>  <r_epik_State_Penalty>  (317) 
1.13399

>  <r_epik_Charging_Adjusted_Penalty>  (317) 
1.76525

>  <i_epik_Tot_Q>  (317) 
0

>  <i_epik_Tot_abs_Q>  (317) 
2

>  <s_epik_Chemistry_Notes>  (317) 
This compound has an ester and may undergo hydrolysis at high or low pH.

>  <s_lp_Force_Field>  (317) 
OPLS3e

>  <r_lp_Energy>  (317) 
26.0357

>  <b_lp_Chiralities_Consistent>  (317) 
1

>  <s_lp_Variant>  (317) 
102:0-4

>  <s_i_glide_gridfile>  (317) 
pfpi4k_grid

>  <i_i_glide_lignum>  (317) 
19

>  <i_i_glide_rotatable_bonds>  (317) 
4

>  <r_i_docking_score>  (317) 
-4.29099

>  <r_i_glide_ligand_efficiency>  (317) 
-0.204333

>  <r_i_glide_ligand_efficiency_sa>  (317) 
-0.563739

>  <r_i_glide_ligand_efficiency_ln>  (317) 
-1.06094

>  <r_i_glide_gscore>  (317) 
-4.29099

>  <r_i_glide_lipo>  (317) 
-0.154664

>  <r_i_glide_hbond>  (317) 
-0.2

>  <r_i_glide_metal>  (317) 
-0

>  <r_i_glide_rewards>  (317) 
-1.32782

>  <r_i_glide_evdw>  (317) 
-20.5988

>  <r_i_glide_ecoul>  (317) 
-11.4474

>  <r_i_glide_erotb>  (317) 
0.594157

>  <r_i_glide_esite>  (317) 
-0.455604

>  <r_i_glide_emodel>  (317) 
-44.1035

>  <r_i_glide_energy>  (317) 
-32.0462

>  <r_i_glide_einternal>  (317) 
3.92837

>  <r_i_glide_intrahb_reward>  (317) 
-0

>  <i_i_glide_confnum>  (317) 
5

>  <i_i_glide_posenum>  (317) 
13

>  <r_i_glide_eff_state_penalty>  (317) 
0

>  <ligand_id>  (317) 
102

>  <original_smiles>  (317) 
O=C(OC1CC2COCC(C1)N2)c1cc(C(F)(F)F)n[nH]1

>  <smiles>  (317) 
[H]c1c(C(=O)OC2([H])C([H])([H])C3([H])C([H])([H])OC([H])([H])C([H])(C2([H])[H])[N+]3([H])[H])n[n-]c1C(F)(F)F

$$$$
102:3:1
     RDKit          3D

 35 37  0  0  1  0  0  0  0  0999 V2000
    0.5141   -5.3197    4.8949 O   0  0  0  0  0  0  0  0  0  0  0  0
    0.2778   -5.8166    5.9983 C   0  0  0  0  0  0  0  0  0  0  0  0
    0.4081   -7.1333    6.2684 O   0  0  0  0  0  0  0  0  0  0  0  0
    0.9023   -8.0396    5.2723 C   0  0  1  0  0  0  0  0  0  0  0  0
    1.1711   -9.3877    5.9784 C   0  0  0  0  0  0  0  0  0  0  0  0
    1.3632  -10.5830    5.0122 C   0  0  2  0  0  0  0  0  0  0  0  0
    2.6348  -10.5576    4.1582 C   0  0  0  0  0  0  0  0  0  0  0  0
    2.5701   -9.4646    3.2601 O   0  0  0  0  0  0  0  0  0  0  0  0
    1.4422   -9.4400    2.4060 C   0  0  0  0  0  0  0  0  0  0  0  0
    0.1529   -9.4773    3.2320 C   0  0  2  0  0  0  0  0  0  0  0  0
   -0.1060   -8.2243    4.1014 C   0  0  0  0  0  0  0  0  0  0  0  0
    0.2171  -10.6732    4.0920 N   0  0  0  0  0  0  0  0  0  0  0  0
   -0.2146   -5.0093    7.1396 C   0  0  0  0  0  0  0  0  0  0  0  0
   -0.2094   -5.5315    8.4941 C   0  0  0  0  0  0  0  0  0  0  0  0
   -0.7388   -4.3892    9.1754 C   0  0  0  0  0  0  0  0  0  0  0  0
   -0.9437   -4.4141   10.6842 C   0  0  0  0  0  0  0  0  0  0  0  0
   -0.5543   -5.5588   11.2511 F   0  0  0  0  0  0  0  0  0  0  0  0
   -0.2596   -3.4113   11.2303 F   0  0  0  0  0  0  0  0  0  0  0  0
   -2.2383   -4.2335   10.9369 F   0  0  0  0  0  0  0  0  0  0  0  0
   -0.9735   -3.4127    8.2875 N   0  0  0  0  0  0  0  0  0  0  0  0
   -0.6784   -3.7506    7.0639 N   0  0  0  0  0  0  0  0  0  0  0  0
    1.8521   -7.6798    4.8727 H   0  0  0  0  0  0  0  0  0  0  0  0
    0.3227   -9.6347    6.6209 H   0  0  0  0  0  0  0  0  0  0  0  0
    2.0295   -9.3059    6.6463 H   0  0  0  0  0  0  0  0  0  0  0  0
    1.3735  -11.4921    5.6018 H   0  0  0  0  0  0  0  0  0  0  0  0
    3.5078  -10.4010    4.7753 H   0  0  0  0  0  0  0  0  0  0  0  0
    2.7763  -11.5073    3.6398 H   0  0  0  0  0  0  0  0  0  0  0  0
    1.5057   -8.5414    1.8063 H   0  0  0  0  0  0  0  0  0  0  0  0
    1.4620  -10.2743    1.7124 H   0  0  0  0  0  0  0  0  0  0  0  0
   -0.6889   -9.5894    2.5461 H   0  0  0  0  0  0  0  0  0  0  0  0
   -0.1192   -7.3446    3.4547 H   0  0  0  0  0  0  0  0  0  0  0  0
   -1.1115   -8.3176    4.5167 H   0  0  0  0  0  0  0  0  0  0  0  0
    0.3061  -11.4975    3.5151 H   0  0  0  0  0  0  0  0  0  0  0  0
    0.1108   -6.4980    8.8783 H   0  0  0  0  0  0  0  0  0  0  0  0
   -0.6830  -10.7541    4.5886 H   0  0  0  0  0  0  0  0  0  0  0  0
  1  2  2  0
  2 13  1  0
  2  3  1  0
  3  4  1  0
  4 11  1  0
  4  5  1  0
  4 22  1  6
  5  6  1  0
  5 23  1  0
  5 24  1  0
  6 12  1  0
  6  7  1  0
  6 25  1  1
  7  8  1  0
  7 26  1  0
  7 27  1  0
  8  9  1  0
  9 10  1  0
  9 28  1  0
  9 29  1  0
 10 11  1  0
 10 12  1  0
 10 30  1  6
 11 31  1  0
 11 32  1  0
 12 33  1  0
 12 35  1  0
 13 14  1  0
 13 21  2  0
 14 15  2  0
 14 34  1  0
 15 16  1  0
 15 20  1  0
 16 17  1  0
 16 18  1  0
 16 19  1  0
 20 21  1  0
M  CHG  2  12   1  20  -1
M  END
>  <i_m_ct_stereo_status>  (318) 
1

>  <s_m_source_file>  (318) 
/var/tmp/pbs.5076255.sched01/tmp1uy3qkd6/1269t22etaf.sdf

>  <i_m_source_file_index>  (318) 
19

>  <i_lp_mmshare_version>  (318) 
48012

>  <i_f3d_flags>  (318) 
0

>  <s_epik_input>  (318) 
RkMoRikoRiljKG5bbkhdMSlbY0hdYzFDKD1PKU9bQ0BIXShbQ0gyXVtDSF0yMylbQ0gyXVtDQEhdKFtOSF0zKVtDSDJdT1tDSDJdMg==

>  <s_epik_cmdline>  (318) 
J2VwaWtfcHl0aG9uJywgJy1waHQnLCAnMi4wJywgJy1waCcsICc3LjAnLCAnLXRuJywgJzgnLCAnLW1hJywgJzIwMCcsICctaW1hZScsICc8aW5maWxlLm1hZT4nLCAnLW9tYWUnLCAnPG91dGZpbGUubWFlPic=

>  <r_epik_Ionization_Penalty>  (318) 
1.43649

>  <r_epik_Ionization_Penalty_Charging>  (318) 
0.631258

>  <r_epik_Ionization_Penalty_Neutral>  (318) 
0.805227

>  <r_epik_State_Penalty>  (318) 
1.13399

>  <r_epik_Charging_Adjusted_Penalty>  (318) 
1.76525

>  <i_epik_Tot_Q>  (318) 
0

>  <i_epik_Tot_abs_Q>  (318) 
2

>  <s_epik_Chemistry_Notes>  (318) 
This compound has an ester and may undergo hydrolysis at high or low pH.

>  <s_lp_Force_Field>  (318) 
OPLS3e

>  <r_lp_Energy>  (318) 
26.0357

>  <b_lp_Chiralities_Consistent>  (318) 
1

>  <s_lp_Variant>  (318) 
102:0-4

>  <s_i_glide_gridfile>  (318) 
pfpi4k_grid

>  <i_i_glide_lignum>  (318) 
19

>  <i_i_glide_rotatable_bonds>  (318) 
4

>  <r_i_docking_score>  (318) 
-3.71956

>  <r_i_glide_ligand_efficiency>  (318) 
-0.177122

>  <r_i_glide_ligand_efficiency_sa>  (318) 
-0.488666

>  <r_i_glide_ligand_efficiency_ln>  (318) 
-0.919654

>  <r_i_glide_gscore>  (318) 
-3.71956

>  <r_i_glide_lipo>  (318) 
-0.100679

>  <r_i_glide_hbond>  (318) 
-0.2

>  <r_i_glide_metal>  (318) 
-0

>  <r_i_glide_rewards>  (318) 
-1.48086

>  <r_i_glide_evdw>  (318) 
-17.3993

>  <r_i_glide_ecoul>  (318) 
-9.51802

>  <r_i_glide_erotb>  (318) 
0.594157

>  <r_i_glide_esite>  (318) 
-0.23451

>  <r_i_glide_emodel>  (318) 
-39.4376

>  <r_i_glide_energy>  (318) 
-26.9173

>  <r_i_glide_einternal>  (318) 
0.942299

>  <r_i_glide_intrahb_reward>  (318) 
-0

>  <i_i_glide_confnum>  (318) 
3

>  <i_i_glide_posenum>  (318) 
27

>  <r_i_glide_eff_state_penalty>  (318) 
0

>  <ligand_id>  (318) 
102

>  <original_smiles>  (318) 
O=C(OC1CC2COCC(C1)N2)c1cc(C(F)(F)F)n[nH]1

>  <smiles>  (318) 
[H]c1c(C(=O)OC2([H])C([H])([H])C3([H])C([H])([H])OC([H])([H])C([H])(C2([H])[H])[N+]3([H])[H])n[n-]c1C(F)(F)F

$$$$
102:3:2
     RDKit          3D

 35 37  0  0  1  0  0  0  0  0999 V2000
   -0.9316   -0.6442    6.4189 O   0  0  0  0  0  0  0  0  0  0  0  0
   -0.4150   -1.5079    5.6950 C   0  0  0  0  0  0  0  0  0  0  0  0
    0.2528   -1.2170    4.5594 O   0  0  0  0  0  0  0  0  0  0  0  0
    0.4286    0.1426    4.1398 C   0  0  1  0  0  0  0  0  0  0  0  0
    1.4617    0.1136    2.9891 C   0  0  0  0  0  0  0  0  0  0  0  0
    1.4982    1.4143    2.1391 C   0  0  2  0  0  0  0  0  0  0  0  0
    2.0285    2.6506    2.8784 C   0  0  0  0  0  0  0  0  0  0  0  0
    1.1389    2.9635    3.9305 O   0  0  0  0  0  0  0  0  0  0  0  0
   -0.1821    3.2476    3.5222 C   0  0  0  0  0  0  0  0  0  0  0  0
   -0.7495    2.0274    2.7889 C   0  0  2  0  0  0  0  0  0  0  0  0
   -0.9171    0.7749    3.6770 C   0  0  0  0  0  0  0  0  0  0  0  0
    0.1431    1.7231    1.6582 N   0  0  0  0  0  0  0  0  0  0  0  0
   -0.5347   -2.9495    6.0111 C   0  0  0  0  0  0  0  0  0  0  0  0
    0.2557   -3.9518    5.3239 C   0  0  0  0  0  0  0  0  0  0  0  0
   -0.2177   -5.1139    6.0117 C   0  0  0  0  0  0  0  0  0  0  0  0
    0.3228   -6.4728    5.6026 C   0  0  0  0  0  0  0  0  0  0  0  0
    0.6089   -7.1813    6.6918 F   0  0  0  0  0  0  0  0  0  0  0  0
   -0.6003   -7.1156    4.8890 F   0  0  0  0  0  0  0  0  0  0  0  0
    1.4298   -6.3775    4.8604 F   0  0  0  0  0  0  0  0  0  0  0  0
   -1.1601   -4.7612    6.9186 N   0  0  0  0  0  0  0  0  0  0  0  0
   -1.3578   -3.4536    6.9342 N   0  0  0  0  0  0  0  0  0  0  0  0
    0.8436    0.7557    4.9465 H   0  0  0  0  0  0  0  0  0  0  0  0
    1.2090   -0.7032    2.3101 H   0  0  0  0  0  0  0  0  0  0  0  0
    2.4520   -0.1273    3.3854 H   0  0  0  0  0  0  0  0  0  0  0  0
    2.1438    1.2347    1.2774 H   0  0  0  0  0  0  0  0  0  0  0  0
    2.9756    2.4608    3.3619 H   0  0  0  0  0  0  0  0  0  0  0  0
    2.1641    3.4931    2.1967 H   0  0  0  0  0  0  0  0  0  0  0  0
   -0.7232    3.4586    4.4339 H   0  0  0  0  0  0  0  0  0  0  0  0
   -0.2291    4.1369    2.8916 H   0  0  0  0  0  0  0  0  0  0  0  0
   -1.7321    2.2943    2.3976 H   0  0  0  0  0  0  0  0  0  0  0  0
   -1.5676    1.0152    4.5203 H   0  0  0  0  0  0  0  0  0  0  0  0
   -1.4605    0.0487    3.0816 H   0  0  0  0  0  0  0  0  0  0  0  0
    0.2006    2.6168    1.1230 H   0  0  0  0  0  0  0  0  0  0  0  0
    0.9864   -3.8614    4.5250 H   0  0  0  0  0  0  0  0  0  0  0  0
   -0.2158    1.0119    1.0284 H   0  0  0  0  0  0  0  0  0  0  0  0
  1  2  2  0
  2 13  1  0
  2  3  1  0
  3  4  1  0
  4 11  1  0
  4  5  1  0
  4 22  1  1
  5  6  1  0
  5 23  1  0
  5 24  1  0
  6 12  1  0
  6  7  1  0
  6 25  1  6
  7  8  1  0
  7 26  1  0
  7 27  1  0
  8  9  1  0
  9 10  1  0
  9 28  1  0
  9 29  1  0
 10 11  1  0
 10 12  1  0
 10 30  1  6
 11 31  1  0
 11 32  1  0
 12 33  1  0
 12 35  1  0
 13 14  1  0
 13 21  2  0
 14 15  2  0
 14 34  1  0
 15 16  1  0
 15 20  1  0
 16 17  1  0
 16 18  1  0
 16 19  1  0
 20 21  1  0
M  CHG  2  12   1  20  -1
M  END
>  <i_m_ct_stereo_status>  (319) 
1

>  <s_m_source_file>  (319) 
/var/tmp/pbs.5076255.sched01/tmp1uy3qkd6/1269t22etaf.sdf

>  <i_m_source_file_index>  (319) 
19

>  <i_lp_mmshare_version>  (319) 
48012

>  <i_f3d_flags>  (319) 
0

>  <s_epik_input>  (319) 
RkMoRikoRiljKG5bbkhdMSlbY0hdYzFDKD1PKU9bQ0BIXShbQ0gyXVtDSF0yMylbQ0gyXVtDQEhdKFtOSF0zKVtDSDJdT1tDSDJdMg==

>  <s_epik_cmdline>  (319) 
J2VwaWtfcHl0aG9uJywgJy1waHQnLCAnMi4wJywgJy1waCcsICc3LjAnLCAnLXRuJywgJzgnLCAnLW1hJywgJzIwMCcsICctaW1hZScsICc8aW5maWxlLm1hZT4nLCAnLW9tYWUnLCAnPG91dGZpbGUubWFlPic=

>  <r_epik_Ionization_Penalty>  (319) 
1.43649

>  <r_epik_Ionization_Penalty_Charging>  (319) 
0.631258

>  <r_epik_Ionization_Penalty_Neutral>  (319) 
0.805227

>  <r_epik_State_Penalty>  (319) 
1.13399

>  <r_epik_Charging_Adjusted_Penalty>  (319) 
1.76525

>  <i_epik_Tot_Q>  (319) 
0

>  <i_epik_Tot_abs_Q>  (319) 
2

>  <s_epik_Chemistry_Notes>  (319) 
This compound has an ester and may undergo hydrolysis at high or low pH.

>  <s_lp_Force_Field>  (319) 
OPLS3e

>  <r_lp_Energy>  (319) 
26.0357

>  <b_lp_Chiralities_Consistent>  (319) 
1

>  <s_lp_Variant>  (319) 
102:0-4

>  <s_i_glide_gridfile>  (319) 
pfpi4k_grid

>  <i_i_glide_lignum>  (319) 
19

>  <i_i_glide_rotatable_bonds>  (319) 
4

>  <r_i_docking_score>  (319) 
-3.70488

>  <r_i_glide_ligand_efficiency>  (319) 
-0.176423

>  <r_i_glide_ligand_efficiency_sa>  (319) 
-0.486737

>  <r_i_glide_ligand_efficiency_ln>  (319) 
-0.916023

>  <r_i_glide_gscore>  (319) 
-3.70488

>  <r_i_glide_lipo>  (319) 
-0.00548338

>  <r_i_glide_hbond>  (319) 
-0.404458

>  <r_i_glide_metal>  (319) 
-0

>  <r_i_glide_rewards>  (319) 
-1.32782

>  <r_i_glide_evdw>  (319) 
-17.7695

>  <r_i_glide_ecoul>  (319) 
-9.75575

>  <r_i_glide_erotb>  (319) 
0.594157

>  <r_i_glide_esite>  (319) 
-0.209436

>  <r_i_glide_emodel>  (319) 
-39.9383

>  <r_i_glide_energy>  (319) 
-27.5252

>  <r_i_glide_einternal>  (319) 
0.889138

>  <r_i_glide_intrahb_reward>  (319) 
-0

>  <i_i_glide_confnum>  (319) 
1

>  <i_i_glide_posenum>  (319) 
16

>  <r_i_glide_eff_state_penalty>  (319) 
0

>  <ligand_id>  (319) 
102

>  <original_smiles>  (319) 
O=C(OC1CC2COCC(C1)N2)c1cc(C(F)(F)F)n[nH]1

>  <smiles>  (319) 
[H]c1c(C(=O)OC2([H])C([H])([H])C3([H])C([H])([H])OC([H])([H])C([H])(C2([H])[H])[N+]3([H])[H])n[n-]c1C(F)(F)F

$$$$
102:4:0
     RDKit          3D

 36 38  0  0  1  0  0  0  0  0999 V2000
    0.2937   -6.2586    1.8231 O   0  0  0  0  0  0  0  0  0  0  0  0
    1.2744   -6.9755    2.0346 C   0  0  0  0  0  0  0  0  0  0  0  0
    1.2654   -8.1506    2.6869 O   0  0  0  0  0  0  0  0  0  0  0  0
    0.1092   -8.7428    3.2498 C   0  0  2  0  0  0  0  0  0  0  0  0
    0.0812   -8.5542    4.7867 C   0  0  0  0  0  0  0  0  0  0  0  0
    0.9527   -9.5691    5.5842 C   0  0  2  0  0  0  0  0  0  0  0  0
    2.4704   -9.4143    5.4333 C   0  0  0  0  0  0  0  0  0  0  0  0
    2.8802   -9.7403    4.1158 O   0  0  0  0  0  0  0  0  0  0  0  0
    2.4776  -11.0080    3.6277 C   0  0  0  0  0  0  0  0  0  0  0  0
    0.9632  -11.1712    3.7795 C   0  0  2  0  0  0  0  0  0  0  0  0
    0.1008  -10.2404    2.8798 C   0  0  0  0  0  0  0  0  0  0  0  0
    0.6128  -10.9500    5.1977 N   0  0  0  0  0  0  0  0  0  0  0  0
    2.6317   -6.6454    1.6241 C   0  0  0  0  0  0  0  0  0  0  0  0
    3.1276   -5.4419    1.2182 C   0  0  0  0  0  0  0  0  0  0  0  0
    4.5152   -5.7516    0.9717 C   0  0  0  0  0  0  0  0  0  0  0  0
    5.6144   -4.8342    0.4994 C   0  0  0  0  0  0  0  0  0  0  0  0
    6.8125   -5.4349    0.5401 F   0  0  0  0  0  0  0  0  0  0  0  0
    5.3696   -4.4589   -0.7548 F   0  0  0  0  0  0  0  0  0  0  0  0
    5.6592   -3.7541    1.2774 F   0  0  0  0  0  0  0  0  0  0  0  0
    4.8037   -7.0293    1.1977 N   0  0  0  0  0  0  0  0  0  0  0  0
    3.6479   -7.5692    1.6101 N   0  0  0  0  0  0  0  0  0  0  0  0
    3.5509   -8.5396    1.8717 H   0  0  0  0  0  0  0  0  0  0  0  0
   -0.7984   -8.2976    2.8238 H   0  0  0  0  0  0  0  0  0  0  0  0
    0.3344   -7.5270    5.0482 H   0  0  0  0  0  0  0  0  0  0  0  0
   -0.9555   -8.6934    5.1054 H   0  0  0  0  0  0  0  0  0  0  0  0
    0.6970   -9.4630    6.6418 H   0  0  0  0  0  0  0  0  0  0  0  0
    2.7636   -8.3865    5.6151 H   0  0  0  0  0  0  0  0  0  0  0  0
    2.9887  -10.0343    6.1613 H   0  0  0  0  0  0  0  0  0  0  0  0
    2.7659  -11.0582    2.5823 H   0  0  0  0  0  0  0  0  0  0  0  0
    2.9970  -11.8069    4.1508 H   0  0  0  0  0  0  0  0  0  0  0  0
    0.7013  -12.2027    3.5268 H   0  0  0  0  0  0  0  0  0  0  0  0
   -0.9379  -10.5391    2.9959 H   0  0  0  0  0  0  0  0  0  0  0  0
    0.3311  -10.3942    1.8263 H   0  0  0  0  0  0  0  0  0  0  0  0
    1.0824  -11.6035    5.8260 H   0  0  0  0  0  0  0  0  0  0  0  0
    2.6100   -4.4970    1.1242 H   0  0  0  0  0  0  0  0  0  0  0  0
   -0.3963  -11.0768    5.2972 H   0  0  0  0  0  0  0  0  0  0  0  0
  1  2  2  0
  2  3  1  0
  2 13  1  0
  3  4  1  0
  4 11  1  0
  4  5  1  0
  4 23  1  6
  5  6  1  0
  5 24  1  0
  5 25  1  0
  6 12  1  0
  6  7  1  0
  6 26  1  1
  7  8  1  0
  7 27  1  0
  7 28  1  0
  8  9  1  0
  9 10  1  0
  9 29  1  0
  9 30  1  0
 10 11  1  0
 10 12  1  0
 10 31  1  6
 11 32  1  0
 11 33  1  0
 12 34  1  0
 12 36  1  0
 13 21  1  0
 13 14  2  0
 14 15  1  0
 14 35  1  0
 15 16  1  0
 15 20  2  0
 16 17  1  0
 16 18  1  0
 16 19  1  0
 20 21  1  0
 21 22  1  0
M  CHG  1  12   1
M  END
>  <i_m_ct_stereo_status>  (320) 
1

>  <s_m_source_file>  (320) 
/var/tmp/pbs.5076255.sched01/tmp1uy3qkd6/1269t22etaf.sdf

>  <i_m_source_file_index>  (320) 
20

>  <i_lp_mmshare_version>  (320) 
48012

>  <i_f3d_flags>  (320) 
0

>  <s_epik_input>  (320) 
RkMoRikoRiljKG5bbkhdMSlbY0hdYzFDKD1PKU9bQ0BIXShbQ0gyXVtDSF0yMylbQ0gyXVtDQEhdKFtOSF0zKVtDSDJdT1tDSDJdMg==

>  <s_epik_cmdline>  (320) 
J2VwaWtfcHl0aG9uJywgJy1waHQnLCAnMi4wJywgJy1waCcsICc3LjAnLCAnLXRuJywgJzgnLCAnLW1hJywgJzIwMCcsICctaW1hZScsICc8aW5maWxlLm1hZT4nLCAnLW9tYWUnLCAnPG91dGZpbGUubWFlPic=

>  <r_lp_tautomer_probability>  (320) 
0.0366904

>  <r_epik_Ionization_Penalty>  (320) 
0.10927

>  <r_epik_Ionization_Penalty_Charging>  (320) 
0.0942852

>  <r_epik_Ionization_Penalty_Neutral>  (320) 
0.0149846

>  <r_epik_State_Penalty>  (320) 
1.42114

>  <r_epik_Charging_Adjusted_Penalty>  (320) 
1.51542

>  <i_epik_Tot_Q>  (320) 
1

>  <i_epik_Tot_abs_Q>  (320) 
1

>  <s_epik_Chemistry_Notes>  (320) 
This compound has an ester and may undergo hydrolysis at high or low pH.

>  <s_lp_Force_Field>  (320) 
OPLS3e

>  <r_lp_Energy>  (320) 
28.3984

>  <b_lp_Chiralities_Consistent>  (320) 
1

>  <s_lp_Variant>  (320) 
102:0-5

>  <s_i_glide_gridfile>  (320) 
pfpi4k_grid

>  <i_i_glide_lignum>  (320) 
20

>  <i_i_glide_rotatable_bonds>  (320) 
4

>  <r_i_docking_score>  (320) 
-4.662

>  <r_i_glide_ligand_efficiency>  (320) 
-0.222

>  <r_i_glide_ligand_efficiency_sa>  (320) 
-0.612481

>  <r_i_glide_ligand_efficiency_ln>  (320) 
-1.15267

>  <r_i_glide_gscore>  (320) 
-4.662

>  <r_i_glide_lipo>  (320) 
-0.35788

>  <r_i_glide_hbond>  (320) 
-0.643881

>  <r_i_glide_metal>  (320) 
-0

>  <r_i_glide_rewards>  (320) 
-1.57828

>  <r_i_glide_evdw>  (320) 
-21.2782

>  <r_i_glide_ecoul>  (320) 
-9.84766

>  <r_i_glide_erotb>  (320) 
0.590732

>  <r_i_glide_esite>  (320) 
-0.131632

>  <r_i_glide_emodel>  (320) 
-42.8675

>  <r_i_glide_energy>  (320) 
-31.1258

>  <r_i_glide_einternal>  (320) 
4.54719

>  <r_i_glide_intrahb_reward>  (320) 
-0

>  <i_i_glide_confnum>  (320) 
5

>  <i_i_glide_posenum>  (320) 
1

>  <r_i_glide_eff_state_penalty>  (320) 
0

>  <ligand_id>  (320) 
102

>  <original_smiles>  (320) 
O=C(OC1CC2COCC(C1)N2)c1cc(C(F)(F)F)n[nH]1

>  <smiles>  (320) 
[H]c1c(C(F)(F)F)nn([H])c1C(=O)OC1([H])C([H])([H])C2([H])C([H])([H])OC([H])([H])C([H])(C1([H])[H])[N+]2([H])[H]

$$$$
102:4:1
     RDKit          3D

 36 38  0  0  1  0  0  0  0  0999 V2000
    5.5845   -0.2903    0.8520 O   0  0  0  0  0  0  0  0  0  0  0  0
    4.4037   -0.5337    0.6383 C   0  0  0  0  0  0  0  0  0  0  0  0
    3.8804   -1.0480   -0.5028 O   0  0  0  0  0  0  0  0  0  0  0  0
    4.6337   -1.2240   -1.6912 C   0  0  2  0  0  0  0  0  0  0  0  0
    3.6548   -1.4607   -2.8795 C   0  0  0  0  0  0  0  0  0  0  0  0
    3.1554   -2.9274   -3.0202 C   0  0  2  0  0  0  0  0  0  0  0  0
    2.1863   -3.3876   -1.9324 C   0  0  0  0  0  0  0  0  0  0  0  0
    2.8226   -3.4698   -0.6654 O   0  0  0  0  0  0  0  0  0  0  0  0
    4.0226   -4.2288   -0.6242 C   0  0  0  0  0  0  0  0  0  0  0  0
    4.9989   -3.7876   -1.7299 C   0  0  2  0  0  0  0  0  0  0  0  0
    5.6414   -2.3928   -1.5589 C   0  0  0  0  0  0  0  0  0  0  0  0
    4.3059   -3.8557   -3.0329 N   0  0  0  0  0  0  0  0  0  0  0  0
    3.3432   -0.2994    1.6068 C   0  0  0  0  0  0  0  0  0  0  0  0
    3.4715    0.0524    2.9247 C   0  0  0  0  0  0  0  0  0  0  0  0
    2.0944    0.1373    3.3392 C   0  0  0  0  0  0  0  0  0  0  0  0
    1.5259    0.4840    4.6882 C   0  0  0  0  0  0  0  0  0  0  0  0
    0.7834    1.5926    4.6009 F   0  0  0  0  0  0  0  0  0  0  0  0
    0.7483   -0.5147    5.1229 F   0  0  0  0  0  0  0  0  0  0  0  0
    2.5052    0.6829    5.5647 F   0  0  0  0  0  0  0  0  0  0  0  0
    1.2434   -0.1401    2.3642 N   0  0  0  0  0  0  0  0  0  0  0  0
    2.0126   -0.3877    1.2910 N   0  0  0  0  0  0  0  0  0  0  0  0
    1.6041   -0.6489    0.3762 H   0  0  0  0  0  0  0  0  0  0  0  0
    5.1669   -0.2903   -1.8896 H   0  0  0  0  0  0  0  0  0  0  0  0
    2.8118   -0.7636   -2.8348 H   0  0  0  0  0  0  0  0  0  0  0  0
    4.1810   -1.2121   -3.8021 H   0  0  0  0  0  0  0  0  0  0  0  0
    2.6278   -3.0168   -3.9781 H   0  0  0  0  0  0  0  0  0  0  0  0
    1.3763   -2.6733   -1.8861 H   0  0  0  0  0  0  0  0  0  0  0  0
    1.7112   -4.3240   -2.1807 H   0  0  0  0  0  0  0  0  0  0  0  0
    4.4591   -4.0928    0.3597 H   0  0  0  0  0  0  0  0  0  0  0  0
    3.7972   -5.2849   -0.7168 H   0  0  0  0  0  0  0  0  0  0  0  0
    5.8126   -4.5050   -1.7520 H   0  0  0  0  0  0  0  0  0  0  0  0
    6.3971   -2.2681   -2.3360 H   0  0  0  0  0  0  0  0  0  0  0  0
    6.1892   -2.3581   -0.6181 H   0  0  0  0  0  0  0  0  0  0  0  0
    3.9303   -4.7979   -3.1199 H   0  0  0  0  0  0  0  0  0  0  0  0
    4.3708    0.2182    3.4929 H   0  0  0  0  0  0  0  0  0  0  0  0
    4.9398   -3.6471   -3.7988 H   0  0  0  0  0  0  0  0  0  0  0  0
  1  2  2  0
  2  3  1  0
  2 13  1  0
  3  4  1  0
  4 11  1  0
  4  5  1  0
  4 23  1  6
  5  6  1  0
  5 24  1  0
  5 25  1  0
  6 12  1  0
  6  7  1  0
  6 26  1  6
  7  8  1  0
  7 27  1  0
  7 28  1  0
  8  9  1  0
  9 10  1  0
  9 29  1  0
  9 30  1  0
 10 11  1  0
 10 12  1  0
 10 31  1  6
 11 32  1  0
 11 33  1  0
 12 34  1  0
 12 36  1  0
 13 21  1  0
 13 14  2  0
 14 15  1  0
 14 35  1  0
 15 16  1  0
 15 20  2  0
 16 17  1  0
 16 18  1  0
 16 19  1  0
 20 21  1  0
 21 22  1  0
M  CHG  1  12   1
M  END
>  <i_m_ct_stereo_status>  (321) 
1

>  <s_m_source_file>  (321) 
/var/tmp/pbs.5076255.sched01/tmp1uy3qkd6/1269t22etaf.sdf

>  <i_m_source_file_index>  (321) 
20

>  <i_lp_mmshare_version>  (321) 
48012

>  <i_f3d_flags>  (321) 
0

>  <s_epik_input>  (321) 
RkMoRikoRiljKG5bbkhdMSlbY0hdYzFDKD1PKU9bQ0BIXShbQ0gyXVtDSF0yMylbQ0gyXVtDQEhdKFtOSF0zKVtDSDJdT1tDSDJdMg==

>  <s_epik_cmdline>  (321) 
J2VwaWtfcHl0aG9uJywgJy1waHQnLCAnMi4wJywgJy1waCcsICc3LjAnLCAnLXRuJywgJzgnLCAnLW1hJywgJzIwMCcsICctaW1hZScsICc8aW5maWxlLm1hZT4nLCAnLW9tYWUnLCAnPG91dGZpbGUubWFlPic=

>  <r_lp_tautomer_probability>  (321) 
0.0366904

>  <r_epik_Ionization_Penalty>  (321) 
0.10927

>  <r_epik_Ionization_Penalty_Charging>  (321) 
0.0942852

>  <r_epik_Ionization_Penalty_Neutral>  (321) 
0.0149846

>  <r_epik_State_Penalty>  (321) 
1.42114

>  <r_epik_Charging_Adjusted_Penalty>  (321) 
1.51542

>  <i_epik_Tot_Q>  (321) 
1

>  <i_epik_Tot_abs_Q>  (321) 
1

>  <s_epik_Chemistry_Notes>  (321) 
This compound has an ester and may undergo hydrolysis at high or low pH.

>  <s_lp_Force_Field>  (321) 
OPLS3e

>  <r_lp_Energy>  (321) 
28.3984

>  <b_lp_Chiralities_Consistent>  (321) 
1

>  <s_lp_Variant>  (321) 
102:0-5

>  <s_i_glide_gridfile>  (321) 
pfpi4k_grid

>  <i_i_glide_lignum>  (321) 
20

>  <i_i_glide_rotatable_bonds>  (321) 
4

>  <r_i_docking_score>  (321) 
-4.12776

>  <r_i_glide_ligand_efficiency>  (321) 
-0.19656

>  <r_i_glide_ligand_efficiency_sa>  (321) 
-0.542294

>  <r_i_glide_ligand_efficiency_ln>  (321) 
-1.02058

>  <r_i_glide_gscore>  (321) 
-4.12776

>  <r_i_glide_lipo>  (321) 
-0.221778

>  <r_i_glide_hbond>  (321) 
-0.211961

>  <r_i_glide_metal>  (321) 
-0

>  <r_i_glide_rewards>  (321) 
-1.48229

>  <r_i_glide_evdw>  (321) 
-18.9527

>  <r_i_glide_ecoul>  (321) 
-11.4563

>  <r_i_glide_erotb>  (321) 
0.590732

>  <r_i_glide_esite>  (321) 
-0.136389

>  <r_i_glide_emodel>  (321) 
-41.1244

>  <r_i_glide_energy>  (321) 
-30.409

>  <r_i_glide_einternal>  (321) 
3.28196

>  <r_i_glide_intrahb_reward>  (321) 
-0

>  <i_i_glide_confnum>  (321) 
4

>  <i_i_glide_posenum>  (321) 
31

>  <r_i_glide_eff_state_penalty>  (321) 
0

>  <ligand_id>  (321) 
102

>  <original_smiles>  (321) 
O=C(OC1CC2COCC(C1)N2)c1cc(C(F)(F)F)n[nH]1

>  <smiles>  (321) 
[H]c1c(C(F)(F)F)nn([H])c1C(=O)OC1([H])C([H])([H])C2([H])C([H])([H])OC([H])([H])C([H])(C1([H])[H])[N+]2([H])[H]

$$$$
102:4:2
     RDKit          3D

 36 38  0  0  1  0  0  0  0  0999 V2000
    1.5415    4.2378    5.7426 O   0  0  0  0  0  0  0  0  0  0  0  0
    0.9407    3.1625    5.7498 C   0  0  0  0  0  0  0  0  0  0  0  0
    1.2433    2.0794    5.0025 O   0  0  0  0  0  0  0  0  0  0  0  0
    2.2308    2.0854    3.9850 C   0  0  2  0  0  0  0  0  0  0  0  0
    1.6140    2.5799    2.6579 C   0  0  0  0  0  0  0  0  0  0  0  0
    0.8127    1.5099    1.8709 C   0  0  2  0  0  0  0  0  0  0  0  0
   -0.5241    1.0827    2.5003 C   0  0  0  0  0  0  0  0  0  0  0  0
   -0.3089    0.3458    3.6926 O   0  0  0  0  0  0  0  0  0  0  0  0
    0.6085   -0.7325    3.6118 C   0  0  0  0  0  0  0  0  0  0  0  0
    1.9387   -0.3079    2.9718 C   0  0  2  0  0  0  0  0  0  0  0  0
    2.8073    0.6545    3.8243 C   0  0  0  0  0  0  0  0  0  0  0  0
    1.6450    0.3116    1.6653 N   0  0  0  0  0  0  0  0  0  0  0  0
   -0.2351    2.8898    6.5732 C   0  0  0  0  0  0  0  0  0  0  0  0
   -0.8747    3.7247    7.4436 C   0  0  0  0  0  0  0  0  0  0  0  0
   -1.9495    2.8986    7.9287 C   0  0  0  0  0  0  0  0  0  0  0  0
   -3.0040    3.2563    8.9449 C   0  0  0  0  0  0  0  0  0  0  0  0
   -2.8107    2.5501   10.0573 F   0  0  0  0  0  0  0  0  0  0  0  0
   -2.9553    4.5556    9.2320 F   0  0  0  0  0  0  0  0  0  0  0  0
   -4.2114    2.9645    8.4583 F   0  0  0  0  0  0  0  0  0  0  0  0
   -1.9495    1.6747    7.3887 N   0  0  0  0  0  0  0  0  0  0  0  0
   -0.8928    1.6932    6.5541 N   0  0  0  0  0  0  0  0  0  0  0  0
   -0.6212    0.9179    5.9621 H   0  0  0  0  0  0  0  0  0  0  0  0
    3.0546    2.7495    4.2707 H   0  0  0  0  0  0  0  0  0  0  0  0
    1.0099    3.4731    2.8236 H   0  0  0  0  0  0  0  0  0  0  0  0
    2.4392    2.9114    2.0304 H   0  0  0  0  0  0  0  0  0  0  0  0
    0.5742    1.9168    0.8888 H   0  0  0  0  0  0  0  0  0  0  0  0
   -1.1292    1.9529    2.7476 H   0  0  0  0  0  0  0  0  0  0  0  0
   -1.1058    0.5014    1.7842 H   0  0  0  0  0  0  0  0  0  0  0  0
    0.7576   -1.1058    4.6214 H   0  0  0  0  0  0  0  0  0  0  0  0
    0.1944   -1.5571    3.0346 H   0  0  0  0  0  0  0  0  0  0  0  0
    2.5196   -1.2127    2.7860 H   0  0  0  0  0  0  0  0  0  0  0  0
    3.7669    0.7523    3.3143 H   0  0  0  0  0  0  0  0  0  0  0  0
    3.0345    0.2217    4.7989 H   0  0  0  0  0  0  0  0  0  0  0  0
    1.1422   -0.3195    1.0436 H   0  0  0  0  0  0  0  0  0  0  0  0
   -0.6260    4.7433    7.7016 H   0  0  0  0  0  0  0  0  0  0  0  0
    2.5013    0.5620    1.1913 H   0  0  0  0  0  0  0  0  0  0  0  0
  1  2  2  0
  2  3  1  0
  2 13  1  0
  3  4  1  0
  4 11  1  0
  4  5  1  0
  4 23  1  1
  5  6  1  0
  5 24  1  0
  5 25  1  0
  6 12  1  0
  6  7  1  0
  6 26  1  6
  7  8  1  0
  7 27  1  0
  7 28  1  0
  8  9  1  0
  9 10  1  0
  9 29  1  0
  9 30  1  0
 10 11  1  0
 10 12  1  0
 10 31  1  6
 11 32  1  0
 11 33  1  0
 12 34  1  0
 12 36  1  0
 13 21  1  0
 13 14  2  0
 14 15  1  0
 14 35  1  0
 15 16  1  0
 15 20  2  0
 16 17  1  0
 16 18  1  0
 16 19  1  0
 20 21  1  0
 21 22  1  0
M  CHG  1  12   1
M  END
>  <i_m_ct_stereo_status>  (322) 
1

>  <s_m_source_file>  (322) 
/var/tmp/pbs.5076255.sched01/tmp1uy3qkd6/1269t22etaf.sdf

>  <i_m_source_file_index>  (322) 
20

>  <i_lp_mmshare_version>  (322) 
48012

>  <i_f3d_flags>  (322) 
0

>  <s_epik_input>  (322) 
RkMoRikoRiljKG5bbkhdMSlbY0hdYzFDKD1PKU9bQ0BIXShbQ0gyXVtDSF0yMylbQ0gyXVtDQEhdKFtOSF0zKVtDSDJdT1tDSDJdMg==

>  <s_epik_cmdline>  (322) 
J2VwaWtfcHl0aG9uJywgJy1waHQnLCAnMi4wJywgJy1waCcsICc3LjAnLCAnLXRuJywgJzgnLCAnLW1hJywgJzIwMCcsICctaW1hZScsICc8aW5maWxlLm1hZT4nLCAnLW9tYWUnLCAnPG91dGZpbGUubWFlPic=

>  <r_lp_tautomer_probability>  (322) 
0.0366904

>  <r_epik_Ionization_Penalty>  (322) 
0.10927

>  <r_epik_Ionization_Penalty_Charging>  (322) 
0.0942852

>  <r_epik_Ionization_Penalty_Neutral>  (322) 
0.0149846

>  <r_epik_State_Penalty>  (322) 
1.42114

>  <r_epik_Charging_Adjusted_Penalty>  (322) 
1.51542

>  <i_epik_Tot_Q>  (322) 
1

>  <i_epik_Tot_abs_Q>  (322) 
1

>  <s_epik_Chemistry_Notes>  (322) 
This compound has an ester and may undergo hydrolysis at high or low pH.

>  <s_lp_Force_Field>  (322) 
OPLS3e

>  <r_lp_Energy>  (322) 
28.3984

>  <b_lp_Chiralities_Consistent>  (322) 
1

>  <s_lp_Variant>  (322) 
102:0-5

>  <s_i_glide_gridfile>  (322) 
pfpi4k_grid

>  <i_i_glide_lignum>  (322) 
20

>  <i_i_glide_rotatable_bonds>  (322) 
4

>  <r_i_docking_score>  (322) 
-3.87407

>  <r_i_glide_ligand_efficiency>  (322) 
-0.184479

>  <r_i_glide_ligand_efficiency_sa>  (322) 
-0.508964

>  <r_i_glide_ligand_efficiency_ln>  (322) 
-0.957855

>  <r_i_glide_gscore>  (322) 
-3.87407

>  <r_i_glide_lipo>  (322) 
-0.00315266

>  <r_i_glide_hbond>  (322) 
-0.210468

>  <r_i_glide_metal>  (322) 
-0

>  <r_i_glide_rewards>  (322) 
-1.94779

>  <r_i_glide_evdw>  (322) 
-18.7461

>  <r_i_glide_ecoul>  (322) 
-7.83528

>  <r_i_glide_erotb>  (322) 
0.590732

>  <r_i_glide_esite>  (322) 
-0.19079

>  <r_i_glide_emodel>  (322) 
-41.979

>  <r_i_glide_energy>  (322) 
-26.5814

>  <r_i_glide_einternal>  (322) 
2.71207

>  <r_i_glide_intrahb_reward>  (322) 
-0.5

>  <i_i_glide_confnum>  (322) 
5

>  <i_i_glide_posenum>  (322) 
24

>  <r_i_glide_eff_state_penalty>  (322) 
0

>  <ligand_id>  (322) 
102

>  <original_smiles>  (322) 
O=C(OC1CC2COCC(C1)N2)c1cc(C(F)(F)F)n[nH]1

>  <smiles>  (322) 
[H]c1c(C(F)(F)F)nn([H])c1C(=O)OC1([H])C([H])([H])C2([H])C([H])([H])OC([H])([H])C([H])(C1([H])[H])[N+]2([H])[H]

$$$$
102:5:0
     RDKit          3D

 36 38  0  0  1  0  0  0  0  0999 V2000
    4.5537   -3.0058    0.8989 O   0  0  0  0  0  0  0  0  0  0  0  0
    3.8948   -3.4987   -0.0187 C   0  0  0  0  0  0  0  0  0  0  0  0
    3.2979   -4.7220    0.0185 O   0  0  0  0  0  0  0  0  0  0  0  0
    3.5032   -5.6817    1.0564 C   0  0  1  0  0  0  0  0  0  0  0  0
    2.1587   -6.4155    1.2888 C   0  0  0  0  0  0  0  0  0  0  0  0
    2.3030   -7.7646    2.0513 C   0  0  2  0  0  0  0  0  0  0  0  0
    2.7460   -7.6258    3.5143 C   0  0  0  0  0  0  0  0  0  0  0  0
    4.0751   -7.1221    3.5601 O   0  0  0  0  0  0  0  0  0  0  0  0
    5.0481   -7.8791    2.8504 C   0  0  0  0  0  0  0  0  0  0  0  0
    4.6204   -8.0110    1.3831 C   0  0  2  0  0  0  0  0  0  0  0  0
    4.5973   -6.6739    0.5885 C   0  0  0  0  0  0  0  0  0  0  0  0
    3.2800   -8.6425    1.3589 N   0  0  0  0  0  0  0  0  0  0  0  0
    3.6673   -2.8253   -1.3029 C   0  0  0  0  0  0  0  0  0  0  0  0
    3.9724   -1.5349   -1.6610 C   0  0  0  0  0  0  0  0  0  0  0  0
    3.5174   -1.4818   -3.0200 C   0  0  0  0  0  0  0  0  0  0  0  0
    3.5615   -0.3387   -4.0094 C   0  0  0  0  0  0  0  0  0  0  0  0
    4.2120   -0.7473   -5.0963 F   0  0  0  0  0  0  0  0  0  0  0  0
    2.3569    0.0856   -4.3954 F   0  0  0  0  0  0  0  0  0  0  0  0
    4.2151    0.6894   -3.4950 F   0  0  0  0  0  0  0  0  0  0  0  0
    3.0388   -2.6432   -3.4504 N   0  0  0  0  0  0  0  0  0  0  0  0
    3.1231   -3.4532   -2.3883 N   0  0  0  0  0  0  0  0  0  0  0  0
    2.8565   -4.4430   -2.4207 H   0  0  0  0  0  0  0  0  0  0  0  0
    3.8033   -5.2255    2.0037 H   0  0  0  0  0  0  0  0  0  0  0  0
    1.4573   -5.7503    1.7982 H   0  0  0  0  0  0  0  0  0  0  0  0
    1.6894   -6.6400    0.3253 H   0  0  0  0  0  0  0  0  0  0  0  0
    1.3350   -8.2673    2.0343 H   0  0  0  0  0  0  0  0  0  0  0  0
    2.1288   -6.9126    4.0450 H   0  0  0  0  0  0  0  0  0  0  0  0
    2.6592   -8.5782    4.0335 H   0  0  0  0  0  0  0  0  0  0  0  0
    5.9855   -7.3460    2.9399 H   0  0  0  0  0  0  0  0  0  0  0  0
    5.1884   -8.8621    3.2955 H   0  0  0  0  0  0  0  0  0  0  0  0
    5.3157   -8.6875    0.8854 H   0  0  0  0  0  0  0  0  0  0  0  0
    4.4269   -6.9283   -0.4622 H   0  0  0  0  0  0  0  0  0  0  0  0
    5.5758   -6.1866    0.6097 H   0  0  0  0  0  0  0  0  0  0  0  0
    3.3270   -9.5394    1.8315 H   0  0  0  0  0  0  0  0  0  0  0  0
    4.4246   -0.7655   -1.0462 H   0  0  0  0  0  0  0  0  0  0  0  0
    2.9863   -8.8131    0.4035 H   0  0  0  0  0  0  0  0  0  0  0  0
  1  2  2  0
  2  3  1  0
  2 13  1  0
  3  4  1  0
  4 11  1  0
  4  5  1  0
  4 23  1  1
  5  6  1  0
  5 24  1  0
  5 25  1  0
  6 12  1  0
  6  7  1  0
  6 26  1  1
  7  8  1  0
  7 27  1  0
  7 28  1  0
  8  9  1  0
  9 10  1  0
  9 29  1  0
  9 30  1  0
 10 11  1  0
 10 12  1  0
 10 31  1  6
 11 32  1  0
 11 33  1  0
 12 34  1  0
 12 36  1  0
 13 21  1  0
 13 14  2  0
 14 15  1  0
 14 35  1  0
 15 16  1  0
 15 20  2  0
 16 17  1  0
 16 18  1  0
 16 19  1  0
 20 21  1  0
 21 22  1  0
M  CHG  1  12   1
M  END
>  <i_m_ct_stereo_status>  (323) 
1

>  <s_m_source_file>  (323) 
/var/tmp/pbs.5076255.sched01/tmp1uy3qkd6/1269t22etaf.sdf

>  <i_m_source_file_index>  (323) 
21

>  <i_lp_mmshare_version>  (323) 
48012

>  <i_f3d_flags>  (323) 
0

>  <s_epik_input>  (323) 
RkMoRikoRiljKG5bbkhdMSlbY0hdYzFDKD1PKU9bQ0BIXShbQ0gyXVtDSF0yMylbQ0gyXVtDQEhdKFtOSF0zKVtDSDJdT1tDSDJdMg==

>  <s_epik_cmdline>  (323) 
J2VwaWtfcHl0aG9uJywgJy1waHQnLCAnMi4wJywgJy1waCcsICc3LjAnLCAnLXRuJywgJzgnLCAnLW1hJywgJzIwMCcsICctaW1hZScsICc8aW5maWxlLm1hZT4nLCAnLW9tYWUnLCAnPG91dGZpbGUubWFlPic=

>  <r_lp_tautomer_probability>  (323) 
0.0366904

>  <r_epik_Ionization_Penalty>  (323) 
0.10927

>  <r_epik_Ionization_Penalty_Charging>  (323) 
0.0942852

>  <r_epik_Ionization_Penalty_Neutral>  (323) 
0.0149846

>  <r_epik_State_Penalty>  (323) 
1.42114

>  <r_epik_Charging_Adjusted_Penalty>  (323) 
1.51542

>  <i_epik_Tot_Q>  (323) 
1

>  <i_epik_Tot_abs_Q>  (323) 
1

>  <s_epik_Chemistry_Notes>  (323) 
This compound has an ester and may undergo hydrolysis at high or low pH.

>  <s_lp_Force_Field>  (323) 
OPLS3e

>  <r_lp_Energy>  (323) 
26.1965

>  <b_lp_Chiralities_Consistent>  (323) 
1

>  <s_lp_Variant>  (323) 
102:0-6

>  <s_i_glide_gridfile>  (323) 
pfpi4k_grid

>  <i_i_glide_lignum>  (323) 
21

>  <i_i_glide_rotatable_bonds>  (323) 
4

>  <r_i_docking_score>  (323) 
-3.8084

>  <r_i_glide_ligand_efficiency>  (323) 
-0.181353

>  <r_i_glide_ligand_efficiency_sa>  (323) 
-0.500338

>  <r_i_glide_ligand_efficiency_ln>  (323) 
-0.94162

>  <r_i_glide_gscore>  (323) 
-3.8084

>  <r_i_glide_lipo>  (323) 
-0.46418

>  <r_i_glide_hbond>  (323) 
-0.32

>  <r_i_glide_metal>  (323) 
-0

>  <r_i_glide_rewards>  (323) 
-1.39265

>  <r_i_glide_evdw>  (323) 
-21.4616

>  <r_i_glide_ecoul>  (323) 
-6.82445

>  <r_i_glide_erotb>  (323) 
0.590732

>  <r_i_glide_esite>  (323) 
-0.125558

>  <r_i_glide_emodel>  (323) 
-35.8344

>  <r_i_glide_energy>  (323) 
-28.286

>  <r_i_glide_einternal>  (323) 
2.89477

>  <r_i_glide_intrahb_reward>  (323) 
-0

>  <i_i_glide_confnum>  (323) 
5

>  <i_i_glide_posenum>  (323) 
4

>  <r_i_glide_eff_state_penalty>  (323) 
0

>  <ligand_id>  (323) 
102

>  <original_smiles>  (323) 
O=C(OC1CC2COCC(C1)N2)c1cc(C(F)(F)F)n[nH]1

>  <smiles>  (323) 
[H]c1c(C(F)(F)F)nn([H])c1C(=O)OC1([H])C([H])([H])C2([H])C([H])([H])OC([H])([H])C([H])(C1([H])[H])[N+]2([H])[H]

$$$$
102:5:1
     RDKit          3D

 36 38  0  0  1  0  0  0  0  0999 V2000
    4.3251    0.1416    2.3962 O   0  0  0  0  0  0  0  0  0  0  0  0
    3.2344   -0.1301    1.8910 C   0  0  0  0  0  0  0  0  0  0  0  0
    3.0432   -0.9916    0.8625 O   0  0  0  0  0  0  0  0  0  0  0  0
    4.1097   -1.6355    0.1630 C   0  0  1  0  0  0  0  0  0  0  0  0
    4.7563   -2.7258    1.0569 C   0  0  0  0  0  0  0  0  0  0  0  0
    5.6019   -3.7598    0.2775 C   0  0  2  0  0  0  0  0  0  0  0  0
    6.8759   -3.1756   -0.3678 C   0  0  0  0  0  0  0  0  0  0  0  0
    6.5318   -2.2674   -1.4050 O   0  0  0  0  0  0  0  0  0  0  0  0
    5.6819   -2.8029   -2.4092 C   0  0  0  0  0  0  0  0  0  0  0  0
    4.3972   -3.3521   -1.7822 C   0  0  2  0  0  0  0  0  0  0  0  0
    3.4998   -2.2751   -1.1167 C   0  0  0  0  0  0  0  0  0  0  0  0
    4.7762   -4.3780   -0.7879 N   0  0  0  0  0  0  0  0  0  0  0  0
    1.9673    0.4276    2.3622 C   0  0  0  0  0  0  0  0  0  0  0  0
    1.7194    1.1673    3.4820 C   0  0  0  0  0  0  0  0  0  0  0  0
    0.3137    1.4283    3.3814 C   0  0  0  0  0  0  0  0  0  0  0  0
   -0.5962    2.1996    4.3019 C   0  0  0  0  0  0  0  0  0  0  0  0
   -1.2208    3.1799    3.6476 F   0  0  0  0  0  0  0  0  0  0  0  0
   -1.5095    1.3752    4.8171 F   0  0  0  0  0  0  0  0  0  0  0  0
    0.1144    2.7272    5.2992 F   0  0  0  0  0  0  0  0  0  0  0  0
   -0.2299    0.8641    2.3063 N   0  0  0  0  0  0  0  0  0  0  0  0
    0.7902    0.2717    1.6898 N   0  0  0  0  0  0  0  0  0  0  0  0
    0.7027   -0.1685    0.7572 H   0  0  0  0  0  0  0  0  0  0  0  0
    4.8623   -0.9065   -0.1459 H   0  0  0  0  0  0  0  0  0  0  0  0
    5.3596   -2.2600    1.8390 H   0  0  0  0  0  0  0  0  0  0  0  0
    3.9633   -3.2704    1.5755 H   0  0  0  0  0  0  0  0  0  0  0  0
    5.8952   -4.5407    0.9761 H   0  0  0  0  0  0  0  0  0  0  0  0
    7.4627   -2.6209    0.3576 H   0  0  0  0  0  0  0  0  0  0  0  0
    7.5119   -3.9851   -0.7342 H   0  0  0  0  0  0  0  0  0  0  0  0
    5.4135   -2.0003   -3.0874 H   0  0  0  0  0  0  0  0  0  0  0  0
    6.1923   -3.5788   -2.9904 H   0  0  0  0  0  0  0  0  0  0  0  0
    3.8236   -3.8410   -2.5677 H   0  0  0  0  0  0  0  0  0  0  0  0
    2.5594   -2.7665   -0.8589 H   0  0  0  0  0  0  0  0  0  0  0  0
    3.2168   -1.4956   -1.8304 H   0  0  0  0  0  0  0  0  0  0  0  0
    5.3110   -5.0988   -1.2603 H   0  0  0  0  0  0  0  0  0  0  0  0
    2.4271    1.4709    4.2512 H   0  0  0  0  0  0  0  0  0  0  0  0
    3.9390   -4.7990   -0.4076 H   0  0  0  0  0  0  0  0  0  0  0  0
  1  2  2  0
  2  3  1  0
  2 13  1  0
  3  4  1  0
  4 11  1  0
  4  5  1  0
  4 23  1  6
  5  6  1  0
  5 24  1  0
  5 25  1  0
  6 12  1  0
  6  7  1  0
  6 26  1  1
  7  8  1  0
  7 27  1  0
  7 28  1  0
  8  9  1  0
  9 10  1  0
  9 29  1  0
  9 30  1  0
 10 11  1  0
 10 12  1  0
 10 31  1  6
 11 32  1  0
 11 33  1  0
 12 34  1  0
 12 36  1  0
 13 21  1  0
 13 14  2  0
 14 15  1  0
 14 35  1  0
 15 16  1  0
 15 20  2  0
 16 17  1  0
 16 18  1  0
 16 19  1  0
 20 21  1  0
 21 22  1  0
M  CHG  1  12   1
M  END
>  <i_m_ct_stereo_status>  (324) 
1

>  <s_m_source_file>  (324) 
/var/tmp/pbs.5076255.sched01/tmp1uy3qkd6/1269t22etaf.sdf

>  <i_m_source_file_index>  (324) 
21

>  <i_lp_mmshare_version>  (324) 
48012

>  <i_f3d_flags>  (324) 
0

>  <s_epik_input>  (324) 
RkMoRikoRiljKG5bbkhdMSlbY0hdYzFDKD1PKU9bQ0BIXShbQ0gyXVtDSF0yMylbQ0gyXVtDQEhdKFtOSF0zKVtDSDJdT1tDSDJdMg==

>  <s_epik_cmdline>  (324) 
J2VwaWtfcHl0aG9uJywgJy1waHQnLCAnMi4wJywgJy1waCcsICc3LjAnLCAnLXRuJywgJzgnLCAnLW1hJywgJzIwMCcsICctaW1hZScsICc8aW5maWxlLm1hZT4nLCAnLW9tYWUnLCAnPG91dGZpbGUubWFlPic=

>  <r_lp_tautomer_probability>  (324) 
0.0366904

>  <r_epik_Ionization_Penalty>  (324) 
0.10927

>  <r_epik_Ionization_Penalty_Charging>  (324) 
0.0942852

>  <r_epik_Ionization_Penalty_Neutral>  (324) 
0.0149846

>  <r_epik_State_Penalty>  (324) 
1.42114

>  <r_epik_Charging_Adjusted_Penalty>  (324) 
1.51542

>  <i_epik_Tot_Q>  (324) 
1

>  <i_epik_Tot_abs_Q>  (324) 
1

>  <s_epik_Chemistry_Notes>  (324) 
This compound has an ester and may undergo hydrolysis at high or low pH.

>  <s_lp_Force_Field>  (324) 
OPLS3e

>  <r_lp_Energy>  (324) 
26.1965

>  <b_lp_Chiralities_Consistent>  (324) 
1

>  <s_lp_Variant>  (324) 
102:0-6

>  <s_i_glide_gridfile>  (324) 
pfpi4k_grid

>  <i_i_glide_lignum>  (324) 
21

>  <i_i_glide_rotatable_bonds>  (324) 
4

>  <r_i_docking_score>  (324) 
-3.56242

>  <r_i_glide_ligand_efficiency>  (324) 
-0.169639

>  <r_i_glide_ligand_efficiency_sa>  (324) 
-0.468021

>  <r_i_glide_ligand_efficiency_ln>  (324) 
-0.880801

>  <r_i_glide_gscore>  (324) 
-3.56242

>  <r_i_glide_lipo>  (324) 
-0.302415

>  <r_i_glide_hbond>  (324) 
-0.318481

>  <r_i_glide_metal>  (324) 
-0

>  <r_i_glide_rewards>  (324) 
-1.32095

>  <r_i_glide_evdw>  (324) 
-22.8218

>  <r_i_glide_ecoul>  (324) 
-5.81345

>  <r_i_glide_erotb>  (324) 
0.590732

>  <r_i_glide_esite>  (324) 
-0.198199

>  <r_i_glide_emodel>  (324) 
-35.6676

>  <r_i_glide_energy>  (324) 
-28.6352

>  <r_i_glide_einternal>  (324) 
2.93873

>  <r_i_glide_intrahb_reward>  (324) 
-0

>  <i_i_glide_confnum>  (324) 
4

>  <i_i_glide_posenum>  (324) 
29

>  <r_i_glide_eff_state_penalty>  (324) 
0

>  <ligand_id>  (324) 
102

>  <original_smiles>  (324) 
O=C(OC1CC2COCC(C1)N2)c1cc(C(F)(F)F)n[nH]1

>  <smiles>  (324) 
[H]c1c(C(F)(F)F)nn([H])c1C(=O)OC1([H])C([H])([H])C2([H])C([H])([H])OC([H])([H])C([H])(C1([H])[H])[N+]2([H])[H]

$$$$
102:5:2
     RDKit          3D

 36 38  0  0  1  0  0  0  0  0999 V2000
    4.3517   -0.2269    2.6819 O   0  0  0  0  0  0  0  0  0  0  0  0
    3.3883   -0.0219    1.9483 C   0  0  0  0  0  0  0  0  0  0  0  0
    3.3002   -0.3857    0.6475 O   0  0  0  0  0  0  0  0  0  0  0  0
    4.0903   -1.4132    0.0615 C   0  0  1  0  0  0  0  0  0  0  0  0
    3.3048   -2.7309    0.2863 C   0  0  0  0  0  0  0  0  0  0  0  0
    3.7433   -3.8819   -0.6400 C   0  0  2  0  0  0  0  0  0  0  0  0
    5.1667   -4.4121   -0.3662 C   0  0  0  0  0  0  0  0  0  0  0  0
    6.1453   -3.4287   -0.7005 O   0  0  0  0  0  0  0  0  0  0  0  0
    6.0473   -2.9210   -2.0268 C   0  0  0  0  0  0  0  0  0  0  0  0
    4.6325   -2.3643   -2.3010 C   0  0  2  0  0  0  0  0  0  0  0  0
    4.2425   -1.1208   -1.4573 C   0  0  0  0  0  0  0  0  0  0  0  0
    3.6553   -3.4523   -2.0530 N   0  0  0  0  0  0  0  0  0  0  0  0
    2.1555    0.6371    2.3825 C   0  0  0  0  0  0  0  0  0  0  0  0
    1.8979    1.3575    3.5153 C   0  0  0  0  0  0  0  0  0  0  0  0
    0.5157    1.7018    3.3795 C   0  0  0  0  0  0  0  0  0  0  0  0
   -0.3630    2.5192    4.2978 C   0  0  0  0  0  0  0  0  0  0  0  0
   -1.3629    1.7627    4.7525 F   0  0  0  0  0  0  0  0  0  0  0  0
    0.3446    2.9586    5.3388 F   0  0  0  0  0  0  0  0  0  0  0  0
   -0.8803    3.5708    3.6616 F   0  0  0  0  0  0  0  0  0  0  0  0
   -0.0244    1.1860    2.2825 N   0  0  0  0  0  0  0  0  0  0  0  0
    0.9853    0.5528    1.6785 N   0  0  0  0  0  0  0  0  0  0  0  0
    0.8783    0.0922    0.7702 H   0  0  0  0  0  0  0  0  0  0  0  0
    5.0788   -1.4755    0.5145 H   0  0  0  0  0  0  0  0  0  0  0  0
    3.3644   -3.0225    1.3364 H   0  0  0  0  0  0  0  0  0  0  0  0
    2.2453   -2.5503    0.0952 H   0  0  0  0  0  0  0  0  0  0  0  0
    3.0382   -4.7030   -0.5040 H   0  0  0  0  0  0  0  0  0  0  0  0
    5.2869   -4.6561    0.6886 H   0  0  0  0  0  0  0  0  0  0  0  0
    5.3212   -5.3389   -0.9279 H   0  0  0  0  0  0  0  0  0  0  0  0
    6.7938   -2.1352   -2.1279 H   0  0  0  0  0  0  0  0  0  0  0  0
    6.2925   -3.6863   -2.7710 H   0  0  0  0  0  0  0  0  0  0  0  0
    4.5684   -2.0892   -3.3548 H   0  0  0  0  0  0  0  0  0  0  0  0
    3.2890   -0.7552   -1.8454 H   0  0  0  0  0  0  0  0  0  0  0  0
    4.9455   -0.2987   -1.6091 H   0  0  0  0  0  0  0  0  0  0  0  0
    3.8801   -4.2580   -2.6304 H   0  0  0  0  0  0  0  0  0  0  0  0
    2.5834    1.6017    4.3148 H   0  0  0  0  0  0  0  0  0  0  0  0
    2.7168   -3.1415   -2.2692 H   0  0  0  0  0  0  0  0  0  0  0  0
  1  2  2  0
  2  3  1  0
  2 13  1  0
  3  4  1  0
  4 11  1  0
  4  5  1  0
  4 23  1  1
  5  6  1  0
  5 24  1  0
  5 25  1  0
  6 12  1  0
  6  7  1  0
  6 26  1  6
  7  8  1  0
  7 27  1  0
  7 28  1  0
  8  9  1  0
  9 10  1  0
  9 29  1  0
  9 30  1  0
 10 11  1  0
 10 12  1  0
 10 31  1  6
 11 32  1  0
 11 33  1  0
 12 34  1  0
 12 36  1  0
 13 21  1  0
 13 14  2  0
 14 15  1  0
 14 35  1  0
 15 16  1  0
 15 20  2  0
 16 17  1  0
 16 18  1  0
 16 19  1  0
 20 21  1  0
 21 22  1  0
M  CHG  1  12   1
M  END
>  <i_m_ct_stereo_status>  (325) 
1

>  <s_m_source_file>  (325) 
/var/tmp/pbs.5076255.sched01/tmp1uy3qkd6/1269t22etaf.sdf

>  <i_m_source_file_index>  (325) 
21

>  <i_lp_mmshare_version>  (325) 
48012

>  <i_f3d_flags>  (325) 
0

>  <s_epik_input>  (325) 
RkMoRikoRiljKG5bbkhdMSlbY0hdYzFDKD1PKU9bQ0BIXShbQ0gyXVtDSF0yMylbQ0gyXVtDQEhdKFtOSF0zKVtDSDJdT1tDSDJdMg==

>  <s_epik_cmdline>  (325) 
J2VwaWtfcHl0aG9uJywgJy1waHQnLCAnMi4wJywgJy1waCcsICc3LjAnLCAnLXRuJywgJzgnLCAnLW1hJywgJzIwMCcsICctaW1hZScsICc8aW5maWxlLm1hZT4nLCAnLW9tYWUnLCAnPG91dGZpbGUubWFlPic=

>  <r_lp_tautomer_probability>  (325) 
0.0366904

>  <r_epik_Ionization_Penalty>  (325) 
0.10927

>  <r_epik_Ionization_Penalty_Charging>  (325) 
0.0942852

>  <r_epik_Ionization_Penalty_Neutral>  (325) 
0.0149846

>  <r_epik_State_Penalty>  (325) 
1.42114

>  <r_epik_Charging_Adjusted_Penalty>  (325) 
1.51542

>  <i_epik_Tot_Q>  (325) 
1

>  <i_epik_Tot_abs_Q>  (325) 
1

>  <s_epik_Chemistry_Notes>  (325) 
This compound has an ester and may undergo hydrolysis at high or low pH.

>  <s_lp_Force_Field>  (325) 
OPLS3e

>  <r_lp_Energy>  (325) 
26.1965

>  <b_lp_Chiralities_Consistent>  (325) 
1

>  <s_lp_Variant>  (325) 
102:0-6

>  <s_i_glide_gridfile>  (325) 
pfpi4k_grid

>  <i_i_glide_lignum>  (325) 
21

>  <i_i_glide_rotatable_bonds>  (325) 
4

>  <r_i_docking_score>  (325) 
-3.50937

>  <r_i_glide_ligand_efficiency>  (325) 
-0.167113

>  <r_i_glide_ligand_efficiency_sa>  (325) 
-0.461052

>  <r_i_glide_ligand_efficiency_ln>  (325) 
-0.867686

>  <r_i_glide_gscore>  (325) 
-3.50937

>  <r_i_glide_lipo>  (325) 
-0.22503

>  <r_i_glide_hbond>  (325) 
-0.16

>  <r_i_glide_metal>  (325) 
-0

>  <r_i_glide_rewards>  (325) 
-1.33985

>  <r_i_glide_evdw>  (325) 
-24.6184

>  <r_i_glide_ecoul>  (325) 
-6.25234

>  <r_i_glide_erotb>  (325) 
0.590732

>  <r_i_glide_esite>  (325) 
-0.206456

>  <r_i_glide_emodel>  (325) 
-36.5479

>  <r_i_glide_energy>  (325) 
-30.8708

>  <r_i_glide_einternal>  (325) 
5.15389

>  <r_i_glide_intrahb_reward>  (325) 
-0

>  <i_i_glide_confnum>  (325) 
4

>  <i_i_glide_posenum>  (325) 
33

>  <r_i_glide_eff_state_penalty>  (325) 
0

>  <ligand_id>  (325) 
102

>  <original_smiles>  (325) 
O=C(OC1CC2COCC(C1)N2)c1cc(C(F)(F)F)n[nH]1

>  <smiles>  (325) 
[H]c1c(C(F)(F)F)nn([H])c1C(=O)OC1([H])C([H])([H])C2([H])C([H])([H])OC([H])([H])C([H])(C1([H])[H])[N+]2([H])[H]

$$$$
102:6:0
     RDKit          3D

 35 37  0  0  1  0  0  0  0  0999 V2000
    1.8351   -3.8700   -0.9639 O   0  0  0  0  0  0  0  0  0  0  0  0
    2.5560   -4.3070   -0.0645 C   0  0  0  0  0  0  0  0  0  0  0  0
    3.5217   -3.6116    0.5525 O   0  0  0  0  0  0  0  0  0  0  0  0
    3.5921   -2.1973    0.4215 C   0  0  2  0  0  0  0  0  0  0  0  0
    3.9353   -1.6916   -1.0035 C   0  0  0  0  0  0  0  0  0  0  0  0
    5.4341   -1.7432   -1.3418 C   0  0  2  0  0  0  0  0  0  0  0  0
    6.0253   -3.1598   -1.4958 C   0  0  0  0  0  0  0  0  0  0  0  0
    6.0707   -3.8550   -0.2511 O   0  0  0  0  0  0  0  0  0  0  0  0
    6.6810   -3.1307    0.8159 C   0  0  0  0  0  0  0  0  0  0  0  0
    6.0838   -1.7169    0.9640 C   0  0  2  0  0  0  0  0  0  0  0  0
    4.6137   -1.6625    1.4526 C   0  0  0  0  0  0  0  0  0  0  0  0
    6.1934   -1.0283   -0.3182 N   0  0  0  0  0  0  0  0  0  0  0  0
    2.3237   -5.6218    0.5655 C   0  0  0  0  0  0  0  0  0  0  0  0
    3.3439   -6.3083    1.2942 C   0  0  0  0  0  0  0  0  0  0  0  0
    2.7335   -7.4447    1.7348 C   0  0  0  0  0  0  0  0  0  0  0  0
    3.2387   -8.5988    2.5418 C   0  0  0  0  0  0  0  0  0  0  0  0
    4.5642   -8.5574    2.6739 F   0  0  0  0  0  0  0  0  0  0  0  0
    2.7089   -8.5924    3.7628 F   0  0  0  0  0  0  0  0  0  0  0  0
    2.9217   -9.7542    1.9654 F   0  0  0  0  0  0  0  0  0  0  0  0
    1.4285   -7.3817    1.2942 N   0  0  0  0  0  0  0  0  0  0  0  0
    1.1640   -6.2613    0.5830 N   0  0  0  0  0  0  0  0  0  0  0  0
    0.7380   -8.1056    1.4340 H   0  0  0  0  0  0  0  0  0  0  0  0
    2.6077   -1.8129    0.7006 H   0  0  0  0  0  0  0  0  0  0  0  0
    3.6059   -0.6598   -1.0597 H   0  0  0  0  0  0  0  0  0  0  0  0
    3.3687   -2.1893   -1.7857 H   0  0  0  0  0  0  0  0  0  0  0  0
    5.5454   -1.2339   -2.2996 H   0  0  0  0  0  0  0  0  0  0  0  0
    5.4142   -3.7488   -2.1760 H   0  0  0  0  0  0  0  0  0  0  0  0
    7.0216   -3.0976   -1.9365 H   0  0  0  0  0  0  0  0  0  0  0  0
    6.5281   -3.6982    1.7310 H   0  0  0  0  0  0  0  0  0  0  0  0
    7.7585   -3.0611    0.6620 H   0  0  0  0  0  0  0  0  0  0  0  0
    6.6837   -1.1821    1.7047 H   0  0  0  0  0  0  0  0  0  0  0  0
    4.5003   -2.1728    2.4106 H   0  0  0  0  0  0  0  0  0  0  0  0
    4.3703   -0.6164    1.6511 H   0  0  0  0  0  0  0  0  0  0  0  0
    5.7953   -0.0903   -0.2152 H   0  0  0  0  0  0  0  0  0  0  0  0
    4.3660   -6.0012    1.4626 H   0  0  0  0  0  0  0  0  0  0  0  0
  1  2  2  0
  2 13  1  0
  2  3  1  0
  3  4  1  0
  4 11  1  0
  4  5  1  0
  4 23  1  1
  5  6  1  0
  5 24  1  0
  5 25  1  0
  6 12  1  0
  6  7  1  0
  6 26  1  6
  7  8  1  0
  7 27  1  0
  7 28  1  0
  8  9  1  0
  9 10  1  0
  9 29  1  0
  9 30  1  0
 10 11  1  0
 10 12  1  0
 10 31  1  1
 11 32  1  0
 11 33  1  0
 12 34  1  0
 13 14  1  0
 13 21  2  0
 14 15  2  0
 14 35  1  0
 15 16  1  0
 15 20  1  0
 16 17  1  0
 16 18  1  0
 16 19  1  0
 20 21  1  0
 20 22  1  0
M  END
>  <i_m_ct_stereo_status>  (326) 
1

>  <s_m_source_file>  (326) 
/var/tmp/pbs.5076255.sched01/tmp1uy3qkd6/1269t22etaf.sdf

>  <i_m_source_file_index>  (326) 
22

>  <i_lp_mmshare_version>  (326) 
48012

>  <i_f3d_flags>  (326) 
0

>  <s_epik_input>  (326) 
RkMoRikoRiljKG5bbkhdMSlbY0hdYzFDKD1PKU9bQ0BIXShbQ0gyXVtDSF0yMylbQ0gyXVtDQEhdKFtOSF0zKVtDSDJdT1tDSDJdMg==

>  <s_epik_cmdline>  (326) 
J2VwaWtfcHl0aG9uJywgJy1waHQnLCAnMi4wJywgJy1waCcsICc3LjAnLCAnLXRuJywgJzgnLCAnLW1hJywgJzIwMCcsICctaW1hZScsICc8aW5maWxlLm1hZT4nLCAnLW9tYWUnLCAnPG91dGZpbGUubWFlPic=

>  <r_epik_Ionization_Penalty>  (326) 
1.39485

>  <r_epik_Ionization_Penalty_Charging>  (326) 
0

>  <r_epik_Ionization_Penalty_Neutral>  (326) 
1.39485

>  <r_epik_State_Penalty>  (326) 
1.53325

>  <r_epik_Charging_Adjusted_Penalty>  (326) 
1.53325

>  <i_epik_Tot_Q>  (326) 
0

>  <i_epik_Tot_abs_Q>  (326) 
0

>  <s_epik_Chemistry_Notes>  (326) 
This compound has an ester and may undergo hydrolysis at high or low pH.

>  <s_lp_Force_Field>  (326) 
OPLS3e

>  <r_lp_Energy>  (326) 
19.6979

>  <b_lp_Chiralities_Consistent>  (326) 
1

>  <s_lp_Variant>  (326) 
102:0-7

>  <s_i_glide_gridfile>  (326) 
pfpi4k_grid

>  <i_i_glide_lignum>  (326) 
22

>  <i_i_glide_rotatable_bonds>  (326) 
4

>  <r_i_docking_score>  (326) 
-3.76903

>  <r_i_glide_ligand_efficiency>  (326) 
-0.179478

>  <r_i_glide_ligand_efficiency_sa>  (326) 
-0.495165

>  <r_i_glide_ligand_efficiency_ln>  (326) 
-0.931885

>  <r_i_glide_gscore>  (326) 
-3.76903

>  <r_i_glide_lipo>  (326) 
-0.4082

>  <r_i_glide_hbond>  (326) 
-0.348495

>  <r_i_glide_metal>  (326) 
-0

>  <r_i_glide_rewards>  (326) 
-1.32782

>  <r_i_glide_evdw>  (326) 
-21.5697

>  <r_i_glide_ecoul>  (326) 
-7.05431

>  <r_i_glide_erotb>  (326) 
0.594157

>  <r_i_glide_esite>  (326) 
-0.142037

>  <r_i_glide_emodel>  (326) 
-34.0157

>  <r_i_glide_energy>  (326) 
-28.624

>  <r_i_glide_einternal>  (326) 
3.97163

>  <r_i_glide_intrahb_reward>  (326) 
-0

>  <i_i_glide_confnum>  (326) 
2

>  <i_i_glide_posenum>  (326) 
3

>  <r_i_glide_eff_state_penalty>  (326) 
0

>  <ligand_id>  (326) 
102

>  <original_smiles>  (326) 
O=C(OC1CC2COCC(C1)N2)c1cc(C(F)(F)F)n[nH]1

>  <smiles>  (326) 
[H]c1c(C(=O)OC2([H])C([H])([H])C3([H])N([H])C([H])(C([H])([H])OC3([H])[H])C2([H])[H])nn([H])c1C(F)(F)F

$$$$
102:6:1
     RDKit          3D

 35 37  0  0  1  0  0  0  0  0999 V2000
    5.3646   -6.2462    0.8476 O   0  0  0  0  0  0  0  0  0  0  0  0
    4.1981   -5.8432    0.8291 C   0  0  0  0  0  0  0  0  0  0  0  0
    3.1666   -6.4248    1.4759 O   0  0  0  0  0  0  0  0  0  0  0  0
    3.3314   -7.5319    2.3500 C   0  0  2  0  0  0  0  0  0  0  0  0
    2.3751   -8.6779    1.9551 C   0  0  0  0  0  0  0  0  0  0  0  0
    0.9227   -8.5240    2.4774 C   0  0  2  0  0  0  0  0  0  0  0  0
    0.0983   -7.4019    1.8055 C   0  0  0  0  0  0  0  0  0  0  0  0
    0.5791   -6.1044    2.1492 O   0  0  0  0  0  0  0  0  0  0  0  0
    0.7725   -5.8885    3.5478 C   0  0  0  0  0  0  0  0  0  0  0  0
    1.5889   -7.0204    4.2127 C   0  0  2  0  0  0  0  0  0  0  0  0
    3.0850   -7.0875    3.8073 C   0  0  0  0  0  0  0  0  0  0  0  0
    0.9381   -8.3000    3.9237 N   0  0  0  0  0  0  0  0  0  0  0  0
    3.7439   -4.6509    0.0787 C   0  0  0  0  0  0  0  0  0  0  0  0
    4.5396   -4.0384   -0.9365 C   0  0  0  0  0  0  0  0  0  0  0  0
    3.7678   -3.0039   -1.3981 C   0  0  0  0  0  0  0  0  0  0  0  0
    3.9851   -1.9721   -2.4504 C   0  0  0  0  0  0  0  0  0  0  0  0
    5.0139   -2.2856   -3.2284 F   0  0  0  0  0  0  0  0  0  0  0  0
    2.9186   -1.8453   -3.2395 F   0  0  0  0  0  0  0  0  0  0  0  0
    4.2385   -0.7817   -1.9086 F   0  0  0  0  0  0  0  0  0  0  0  0
    2.6174   -3.0302   -0.6486 N   0  0  0  0  0  0  0  0  0  0  0  0
    2.5926   -4.0232    0.2527 N   0  0  0  0  0  0  0  0  0  0  0  0
    1.8669   -2.3429   -0.7304 H   0  0  0  0  0  0  0  0  0  0  0  0
    4.3505   -7.9168    2.2774 H   0  0  0  0  0  0  0  0  0  0  0  0
    2.7773   -9.6016    2.3746 H   0  0  0  0  0  0  0  0  0  0  0  0
    2.3854   -8.8319    0.8812 H   0  0  0  0  0  0  0  0  0  0  0  0
    0.4112   -9.4657    2.2684 H   0  0  0  0  0  0  0  0  0  0  0  0
    0.1494   -7.4905    0.7220 H   0  0  0  0  0  0  0  0  0  0  0  0
   -0.9540   -7.5042    2.0796 H   0  0  0  0  0  0  0  0  0  0  0  0
    1.2836   -4.9351    3.6708 H   0  0  0  0  0  0  0  0  0  0  0  0
   -0.1921   -5.7935    4.0502 H   0  0  0  0  0  0  0  0  0  0  0  0
    1.5609   -6.8475    5.2896 H   0  0  0  0  0  0  0  0  0  0  0  0
    3.5921   -6.1433    4.0140 H   0  0  0  0  0  0  0  0  0  0  0  0
    3.5624   -7.8242    4.4557 H   0  0  0  0  0  0  0  0  0  0  0  0
    1.4431   -9.0569    4.3771 H   0  0  0  0  0  0  0  0  0  0  0  0
    5.5120   -4.3247   -1.2939 H   0  0  0  0  0  0  0  0  0  0  0  0
  1  2  2  0
  2 13  1  0
  2  3  1  0
  3  4  1  0
  4 11  1  0
  4  5  1  0
  4 23  1  1
  5  6  1  0
  5 24  1  0
  5 25  1  0
  6 12  1  0
  6  7  1  0
  6 26  1  1
  7  8  1  0
  7 27  1  0
  7 28  1  0
  8  9  1  0
  9 10  1  0
  9 29  1  0
  9 30  1  0
 10 11  1  0
 10 12  1  0
 10 31  1  1
 11 32  1  0
 11 33  1  0
 12 34  1  0
 13 14  1  0
 13 21  2  0
 14 15  2  0
 14 35  1  0
 15 16  1  0
 15 20  1  0
 16 17  1  0
 16 18  1  0
 16 19  1  0
 20 21  1  0
 20 22  1  0
M  END
>  <i_m_ct_stereo_status>  (327) 
1

>  <s_m_source_file>  (327) 
/var/tmp/pbs.5076255.sched01/tmp1uy3qkd6/1269t22etaf.sdf

>  <i_m_source_file_index>  (327) 
22

>  <i_lp_mmshare_version>  (327) 
48012

>  <i_f3d_flags>  (327) 
0

>  <s_epik_input>  (327) 
RkMoRikoRiljKG5bbkhdMSlbY0hdYzFDKD1PKU9bQ0BIXShbQ0gyXVtDSF0yMylbQ0gyXVtDQEhdKFtOSF0zKVtDSDJdT1tDSDJdMg==

>  <s_epik_cmdline>  (327) 
J2VwaWtfcHl0aG9uJywgJy1waHQnLCAnMi4wJywgJy1waCcsICc3LjAnLCAnLXRuJywgJzgnLCAnLW1hJywgJzIwMCcsICctaW1hZScsICc8aW5maWxlLm1hZT4nLCAnLW9tYWUnLCAnPG91dGZpbGUubWFlPic=

>  <r_epik_Ionization_Penalty>  (327) 
1.39485

>  <r_epik_Ionization_Penalty_Charging>  (327) 
0

>  <r_epik_Ionization_Penalty_Neutral>  (327) 
1.39485

>  <r_epik_State_Penalty>  (327) 
1.53325

>  <r_epik_Charging_Adjusted_Penalty>  (327) 
1.53325

>  <i_epik_Tot_Q>  (327) 
0

>  <i_epik_Tot_abs_Q>  (327) 
0

>  <s_epik_Chemistry_Notes>  (327) 
This compound has an ester and may undergo hydrolysis at high or low pH.

>  <s_lp_Force_Field>  (327) 
OPLS3e

>  <r_lp_Energy>  (327) 
19.6979

>  <b_lp_Chiralities_Consistent>  (327) 
1

>  <s_lp_Variant>  (327) 
102:0-7

>  <s_i_glide_gridfile>  (327) 
pfpi4k_grid

>  <i_i_glide_lignum>  (327) 
22

>  <i_i_glide_rotatable_bonds>  (327) 
4

>  <r_i_docking_score>  (327) 
-3.3289

>  <r_i_glide_ligand_efficiency>  (327) 
-0.158519

>  <r_i_glide_ligand_efficiency_sa>  (327) 
-0.437342

>  <r_i_glide_ligand_efficiency_ln>  (327) 
-0.823064

>  <r_i_glide_gscore>  (327) 
-3.3289

>  <r_i_glide_lipo>  (327) 
0

>  <r_i_glide_hbond>  (327) 
-0.305699

>  <r_i_glide_metal>  (327) 
-0

>  <r_i_glide_rewards>  (327) 
-1.5501

>  <r_i_glide_evdw>  (327) 
-22.9001

>  <r_i_glide_ecoul>  (327) 
-5.70981

>  <r_i_glide_erotb>  (327) 
0.594157

>  <r_i_glide_esite>  (327) 
-0.0657849

>  <r_i_glide_emodel>  (327) 
-34.6797

>  <r_i_glide_energy>  (327) 
-28.6099

>  <r_i_glide_einternal>  (327) 
2.10238

>  <r_i_glide_intrahb_reward>  (327) 
-0

>  <i_i_glide_confnum>  (327) 
4

>  <i_i_glide_posenum>  (327) 
14

>  <r_i_glide_eff_state_penalty>  (327) 
0

>  <ligand_id>  (327) 
102

>  <original_smiles>  (327) 
O=C(OC1CC2COCC(C1)N2)c1cc(C(F)(F)F)n[nH]1

>  <smiles>  (327) 
[H]c1c(C(=O)OC2([H])C([H])([H])C3([H])N([H])C([H])(C([H])([H])OC3([H])[H])C2([H])[H])nn([H])c1C(F)(F)F

$$$$
102:6:2
     RDKit          3D

 35 37  0  0  1  0  0  0  0  0999 V2000
    4.5428   -7.9653    2.1474 O   0  0  0  0  0  0  0  0  0  0  0  0
    3.5042   -7.3668    1.8602 C   0  0  0  0  0  0  0  0  0  0  0  0
    2.2681   -7.7288    2.2552 O   0  0  0  0  0  0  0  0  0  0  0  0
    2.0388   -8.7807    3.1806 C   0  0  2  0  0  0  0  0  0  0  0  0
    0.8024   -9.5989    2.7544 C   0  0  0  0  0  0  0  0  0  0  0  0
   -0.5632   -8.9754    3.1486 C   0  0  2  0  0  0  0  0  0  0  0  0
   -0.9558   -7.6988    2.3768 C   0  0  0  0  0  0  0  0  0  0  0  0
   -0.1284   -6.5917    2.7124 O   0  0  0  0  0  0  0  0  0  0  0  0
    0.0433   -6.3678    4.1093 C   0  0  0  0  0  0  0  0  0  0  0  0
    0.4247   -7.6537    4.8785 C   0  0  2  0  0  0  0  0  0  0  0  0
    1.8471   -8.2029    4.6000 C   0  0  0  0  0  0  0  0  0  0  0  0
   -0.5807   -8.6684    4.5797 N   0  0  0  0  0  0  0  0  0  0  0  0
    3.4541   -6.1275    1.0451 C   0  0  0  0  0  0  0  0  0  0  0  0
    4.6333   -5.5504    0.4794 C   0  0  0  0  0  0  0  0  0  0  0  0
    4.1863   -4.4326   -0.1693 C   0  0  0  0  0  0  0  0  0  0  0  0
    4.8740   -3.3840   -0.9810 C   0  0  0  0  0  0  0  0  0  0  0  0
    6.2009   -3.5055   -0.9333 F   0  0  0  0  0  0  0  0  0  0  0  0
    4.5088   -3.4478   -2.2612 F   0  0  0  0  0  0  0  0  0  0  0  0
    4.5710   -2.1632   -0.5395 F   0  0  0  0  0  0  0  0  0  0  0  0
    2.8279   -4.3881    0.0378 N   0  0  0  0  0  0  0  0  0  0  0  0
    2.3648   -5.4177    0.7678 N   0  0  0  0  0  0  0  0  0  0  0  0
    2.2191   -3.6714   -0.3362 H   0  0  0  0  0  0  0  0  0  0  0  0
    2.8928   -9.4625    3.1832 H   0  0  0  0  0  0  0  0  0  0  0  0
    0.8663  -10.5761    3.2347 H   0  0  0  0  0  0  0  0  0  0  0  0
    0.8498   -9.8054    1.6879 H   0  0  0  0  0  0  0  0  0  0  0  0
   -1.3264   -9.7261    2.9383 H   0  0  0  0  0  0  0  0  0  0  0  0
   -0.8671   -7.8672    1.3031 H   0  0  0  0  0  0  0  0  0  0  0  0
   -2.0054   -7.4594    2.5715 H   0  0  0  0  0  0  0  0  0  0  0  0
    0.8145   -5.6092    4.2375 H   0  0  0  0  0  0  0  0  0  0  0  0
   -0.8753   -5.9529    4.5341 H   0  0  0  0  0  0  0  0  0  0  0  0
    0.3804   -7.4187    5.9424 H   0  0  0  0  0  0  0  0  0  0  0  0
    2.6067   -7.4499    4.8134 H   0  0  0  0  0  0  0  0  0  0  0  0
    2.0264   -9.0142    5.3052 H   0  0  0  0  0  0  0  0  0  0  0  0
   -0.4011   -9.5309    5.0905 H   0  0  0  0  0  0  0  0  0  0  0  0
    5.6532   -5.9029    0.5387 H   0  0  0  0  0  0  0  0  0  0  0  0
  1  2  2  0
  2 13  1  0
  2  3  1  0
  3  4  1  0
  4 11  1  0
  4  5  1  0
  4 23  1  1
  5  6  1  0
  5 24  1  0
  5 25  1  0
  6 12  1  0
  6  7  1  0
  6 26  1  1
  7  8  1  0
  7 27  1  0
  7 28  1  0
  8  9  1  0
  9 10  1  0
  9 29  1  0
  9 30  1  0
 10 11  1  0
 10 12  1  0
 10 31  1  1
 11 32  1  0
 11 33  1  0
 12 34  1  0
 13 14  1  0
 13 21  2  0
 14 15  2  0
 14 35  1  0
 15 16  1  0
 15 20  1  0
 16 17  1  0
 16 18  1  0
 16 19  1  0
 20 21  1  0
 20 22  1  0
M  END
>  <i_m_ct_stereo_status>  (328) 
1

>  <s_m_source_file>  (328) 
/var/tmp/pbs.5076255.sched01/tmp1uy3qkd6/1269t22etaf.sdf

>  <i_m_source_file_index>  (328) 
22

>  <i_lp_mmshare_version>  (328) 
48012

>  <i_f3d_flags>  (328) 
0

>  <s_epik_input>  (328) 
RkMoRikoRiljKG5bbkhdMSlbY0hdYzFDKD1PKU9bQ0BIXShbQ0gyXVtDSF0yMylbQ0gyXVtDQEhdKFtOSF0zKVtDSDJdT1tDSDJdMg==

>  <s_epik_cmdline>  (328) 
J2VwaWtfcHl0aG9uJywgJy1waHQnLCAnMi4wJywgJy1waCcsICc3LjAnLCAnLXRuJywgJzgnLCAnLW1hJywgJzIwMCcsICctaW1hZScsICc8aW5maWxlLm1hZT4nLCAnLW9tYWUnLCAnPG91dGZpbGUubWFlPic=

>  <r_epik_Ionization_Penalty>  (328) 
1.39485

>  <r_epik_Ionization_Penalty_Charging>  (328) 
0

>  <r_epik_Ionization_Penalty_Neutral>  (328) 
1.39485

>  <r_epik_State_Penalty>  (328) 
1.53325

>  <r_epik_Charging_Adjusted_Penalty>  (328) 
1.53325

>  <i_epik_Tot_Q>  (328) 
0

>  <i_epik_Tot_abs_Q>  (328) 
0

>  <s_epik_Chemistry_Notes>  (328) 
This compound has an ester and may undergo hydrolysis at high or low pH.

>  <s_lp_Force_Field>  (328) 
OPLS3e

>  <r_lp_Energy>  (328) 
19.6979

>  <b_lp_Chiralities_Consistent>  (328) 
1

>  <s_lp_Variant>  (328) 
102:0-7

>  <s_i_glide_gridfile>  (328) 
pfpi4k_grid

>  <i_i_glide_lignum>  (328) 
22

>  <i_i_glide_rotatable_bonds>  (328) 
4

>  <r_i_docking_score>  (328) 
-3.23617

>  <r_i_glide_ligand_efficiency>  (328) 
-0.154103

>  <r_i_glide_ligand_efficiency_sa>  (328) 
-0.425159

>  <r_i_glide_ligand_efficiency_ln>  (328) 
-0.800135

>  <r_i_glide_gscore>  (328) 
-3.23617

>  <r_i_glide_lipo>  (328) 
-0.198374

>  <r_i_glide_hbond>  (328) 
-0.170083

>  <r_i_glide_metal>  (328) 
-0

>  <r_i_glide_rewards>  (328) 
-1.5225

>  <r_i_glide_evdw>  (328) 
-23.6397

>  <r_i_glide_ecoul>  (328) 
-4.63361

>  <r_i_glide_erotb>  (328) 
0.594157

>  <r_i_glide_esite>  (328) 
-0.0623384

>  <r_i_glide_emodel>  (328) 
-34.3442

>  <r_i_glide_energy>  (328) 
-28.2733

>  <r_i_glide_einternal>  (328) 
1.66511

>  <r_i_glide_intrahb_reward>  (328) 
-0

>  <i_i_glide_confnum>  (328) 
4

>  <i_i_glide_posenum>  (328) 
31

>  <r_i_glide_eff_state_penalty>  (328) 
0

>  <ligand_id>  (328) 
102

>  <original_smiles>  (328) 
O=C(OC1CC2COCC(C1)N2)c1cc(C(F)(F)F)n[nH]1

>  <smiles>  (328) 
[H]c1c(C(=O)OC2([H])C([H])([H])C3([H])N([H])C([H])(C([H])([H])OC3([H])[H])C2([H])[H])nn([H])c1C(F)(F)F

$$$$
102:7:0
     RDKit          3D

 35 37  0  0  1  0  0  0  0  0999 V2000
    4.0544   -7.1505    1.5567 O   0  0  0  0  0  0  0  0  0  0  0  0
    3.1407   -6.3374    1.4066 C   0  0  0  0  0  0  0  0  0  0  0  0
    1.9334   -6.4125    2.0344 O   0  0  0  0  0  0  0  0  0  0  0  0
    1.6015   -7.4931    2.9175 C   0  0  1  0  0  0  0  0  0  0  0  0
    0.5439   -6.9879    3.9290 C   0  0  0  0  0  0  0  0  0  0  0  0
   -0.2212   -8.1248    4.6559 C   0  0  2  0  0  0  0  0  0  0  0  0
    0.6368   -8.9549    5.6244 C   0  0  0  0  0  0  0  0  0  0  0  0
    1.6180   -9.6849    4.9052 O   0  0  0  0  0  0  0  0  0  0  0  0
    1.0796  -10.5267    3.8961 C   0  0  0  0  0  0  0  0  0  0  0  0
    0.2288   -9.7010    2.9174 C   0  0  2  0  0  0  0  0  0  0  0  0
    1.0299   -8.6627    2.0890 C   0  0  0  0  0  0  0  0  0  0  0  0
   -0.8363   -9.0314    3.6794 N   0  0  0  0  0  0  0  0  0  0  0  0
    3.2240   -5.1477    0.5109 C   0  0  0  0  0  0  0  0  0  0  0  0
    4.4431   -4.7387   -0.1187 C   0  0  0  0  0  0  0  0  0  0  0  0
    4.0954   -3.6424   -0.8548 C   0  0  0  0  0  0  0  0  0  0  0  0
    4.8718   -2.7380   -1.7566 C   0  0  0  0  0  0  0  0  0  0  0  0
    4.4266   -2.8092   -3.0106 F   0  0  0  0  0  0  0  0  0  0  0  0
    4.7691   -1.4669   -1.3662 F   0  0  0  0  0  0  0  0  0  0  0  0
    6.1666   -3.0465   -1.7676 F   0  0  0  0  0  0  0  0  0  0  0  0
    2.7502   -3.4391   -0.6423 N   0  0  0  0  0  0  0  0  0  0  0  0
    2.2218   -4.3529    0.1830 N   0  0  0  0  0  0  0  0  0  0  0  0
    2.1967   -2.6829   -1.0401 H   0  0  0  0  0  0  0  0  0  0  0  0
    2.4766   -7.8258    3.4789 H   0  0  0  0  0  0  0  0  0  0  0  0
   -0.1909   -6.3790    3.4005 H   0  0  0  0  0  0  0  0  0  0  0  0
    1.0204   -6.3162    4.6494 H   0  0  0  0  0  0  0  0  0  0  0  0
   -1.0087   -7.6471    5.2457 H   0  0  0  0  0  0  0  0  0  0  0  0
    1.1729   -8.3069    6.3167 H   0  0  0  0  0  0  0  0  0  0  0  0
    0.0105   -9.6124    6.2269 H   0  0  0  0  0  0  0  0  0  0  0  0
    1.9240  -10.9861    3.3837 H   0  0  0  0  0  0  0  0  0  0  0  0
    0.4899  -11.3359    4.3275 H   0  0  0  0  0  0  0  0  0  0  0  0
   -0.2181  -10.3967    2.1993 H   0  0  0  0  0  0  0  0  0  0  0  0
    1.8351   -9.1503    1.5322 H   0  0  0  0  0  0  0  0  0  0  0  0
    0.3575   -8.2476    1.3392 H   0  0  0  0  0  0  0  0  0  0  0  0
   -1.3213   -9.7579    4.2088 H   0  0  0  0  0  0  0  0  0  0  0  0
    5.4217   -5.1949   -0.0532 H   0  0  0  0  0  0  0  0  0  0  0  0
  1  2  2  0
  2 13  1  0
  2  3  1  0
  3  4  1  0
  4 11  1  0
  4  5  1  0
  4 23  1  1
  5  6  1  0
  5 24  1  0
  5 25  1  0
  6 12  1  0
  6  7  1  0
  6 26  1  1
  7  8  1  0
  7 27  1  0
  7 28  1  0
  8  9  1  0
  9 10  1  0
  9 29  1  0
  9 30  1  0
 10 11  1  0
 10 12  1  0
 10 31  1  6
 11 32  1  0
 11 33  1  0
 12 34  1  0
 13 14  1  0
 13 21  2  0
 14 15  2  0
 14 35  1  0
 15 16  1  0
 15 20  1  0
 16 17  1  0
 16 18  1  0
 16 19  1  0
 20 21  1  0
 20 22  1  0
M  END
>  <i_m_ct_stereo_status>  (329) 
1

>  <s_m_source_file>  (329) 
/var/tmp/pbs.5076255.sched01/tmp1uy3qkd6/1269t22etaf.sdf

>  <i_m_source_file_index>  (329) 
23

>  <i_lp_mmshare_version>  (329) 
48012

>  <i_f3d_flags>  (329) 
0

>  <s_epik_input>  (329) 
RkMoRikoRiljKG5bbkhdMSlbY0hdYzFDKD1PKU9bQ0BIXShbQ0gyXVtDSF0yMylbQ0gyXVtDQEhdKFtOSF0zKVtDSDJdT1tDSDJdMg==

>  <s_epik_cmdline>  (329) 
J2VwaWtfcHl0aG9uJywgJy1waHQnLCAnMi4wJywgJy1waCcsICc3LjAnLCAnLXRuJywgJzgnLCAnLW1hJywgJzIwMCcsICctaW1hZScsICc8aW5maWxlLm1hZT4nLCAnLW9tYWUnLCAnPG91dGZpbGUubWFlPic=

>  <r_epik_Ionization_Penalty>  (329) 
1.39485

>  <r_epik_Ionization_Penalty_Charging>  (329) 
0

>  <r_epik_Ionization_Penalty_Neutral>  (329) 
1.39485

>  <r_epik_State_Penalty>  (329) 
1.53325

>  <r_epik_Charging_Adjusted_Penalty>  (329) 
1.53325

>  <i_epik_Tot_Q>  (329) 
0

>  <i_epik_Tot_abs_Q>  (329) 
0

>  <s_epik_Chemistry_Notes>  (329) 
This compound has an ester and may undergo hydrolysis at high or low pH.

>  <s_lp_Force_Field>  (329) 
OPLS3e

>  <r_lp_Energy>  (329) 
17.9642

>  <b_lp_Chiralities_Consistent>  (329) 
1

>  <s_lp_Variant>  (329) 
102:0-8

>  <s_i_glide_gridfile>  (329) 
pfpi4k_grid

>  <i_i_glide_lignum>  (329) 
23

>  <i_i_glide_rotatable_bonds>  (329) 
4

>  <r_i_docking_score>  (329) 
-3.28721

>  <r_i_glide_ligand_efficiency>  (329) 
-0.156534

>  <r_i_glide_ligand_efficiency_sa>  (329) 
-0.431865

>  <r_i_glide_ligand_efficiency_ln>  (329) 
-0.812756

>  <r_i_glide_gscore>  (329) 
-3.28721

>  <r_i_glide_lipo>  (329) 
-0.0393324

>  <r_i_glide_hbond>  (329) 
-0.241212

>  <r_i_glide_metal>  (329) 
-0

>  <r_i_glide_rewards>  (329) 
-1.66412

>  <r_i_glide_evdw>  (329) 
-23.6713

>  <r_i_glide_ecoul>  (329) 
-4.64868

>  <r_i_glide_erotb>  (329) 
0.594157

>  <r_i_glide_esite>  (329) 
-0.0558331

>  <r_i_glide_emodel>  (329) 
-34.3757

>  <r_i_glide_energy>  (329) 
-28.32

>  <r_i_glide_einternal>  (329) 
1.3355

>  <r_i_glide_intrahb_reward>  (329) 
-0

>  <i_i_glide_confnum>  (329) 
5

>  <i_i_glide_posenum>  (329) 
1

>  <r_i_glide_eff_state_penalty>  (329) 
0

>  <ligand_id>  (329) 
102

>  <original_smiles>  (329) 
O=C(OC1CC2COCC(C1)N2)c1cc(C(F)(F)F)n[nH]1

>  <smiles>  (329) 
[H]c1c(C(=O)OC2([H])C([H])([H])C3([H])N([H])C([H])(C([H])([H])OC3([H])[H])C2([H])[H])nn([H])c1C(F)(F)F

$$$$
102:7:1
     RDKit          3D

 35 37  0  0  1  0  0  0  0  0999 V2000
    1.8132   -5.4608    0.2009 O   0  0  0  0  0  0  0  0  0  0  0  0
    2.7080   -5.5881    1.0374 C   0  0  0  0  0  0  0  0  0  0  0  0
    2.5485   -6.2498    2.2168 O   0  0  0  0  0  0  0  0  0  0  0  0
    1.3122   -6.8652    2.5867 C   0  0  1  0  0  0  0  0  0  0  0  0
    1.2574   -8.3036    2.0296 C   0  0  0  0  0  0  0  0  0  0  0  0
    0.1877   -9.1971    2.7089 C   0  0  2  0  0  0  0  0  0  0  0  0
   -1.2615   -8.7798    2.4265 C   0  0  0  0  0  0  0  0  0  0  0  0
   -1.5387   -7.5018    3.0023 O   0  0  0  0  0  0  0  0  0  0  0  0
   -1.2698   -7.4680    4.4001 C   0  0  0  0  0  0  0  0  0  0  0  0
    0.1778   -7.8680    4.6900 C   0  0  2  0  0  0  0  0  0  0  0  0
    1.2384   -6.8859    4.1280 C   0  0  0  0  0  0  0  0  0  0  0  0
    0.4018   -9.2182    4.1589 N   0  0  0  0  0  0  0  0  0  0  0  0
    4.0893   -5.0325    0.9121 C   0  0  0  0  0  0  0  0  0  0  0  0
    4.4806   -4.2375   -0.2237 C   0  0  0  0  0  0  0  0  0  0  0  0
    5.7760   -3.8996    0.0307 C   0  0  0  0  0  0  0  0  0  0  0  0
    6.7737   -3.0769   -0.7281 C   0  0  0  0  0  0  0  0  0  0  0  0
    7.9771   -3.6462   -0.7029 F   0  0  0  0  0  0  0  0  0  0  0  0
    6.4199   -2.9252   -2.0023 F   0  0  0  0  0  0  0  0  0  0  0  0
    6.8962   -1.8630   -0.1981 F   0  0  0  0  0  0  0  0  0  0  0  0
    6.1009   -4.4747    1.2380 N   0  0  0  0  0  0  0  0  0  0  0  0
    5.0858   -5.1699    1.7790 N   0  0  0  0  0  0  0  0  0  0  0  0
    6.9994   -4.4120    1.6910 H   0  0  0  0  0  0  0  0  0  0  0  0
    0.4597   -6.2951    2.2102 H   0  0  0  0  0  0  0  0  0  0  0  0
    2.2303   -8.7787    2.1684 H   0  0  0  0  0  0  0  0  0  0  0  0
    1.0991   -8.2571    0.9494 H   0  0  0  0  0  0  0  0  0  0  0  0
    0.3250  -10.2079    2.3084 H   0  0  0  0  0  0  0  0  0  0  0  0
   -1.4309   -8.6672    1.3599 H   0  0  0  0  0  0  0  0  0  0  0  0
   -1.9541   -9.5367    2.7869 H   0  0  0  0  0  0  0  0  0  0  0  0
   -1.4761   -6.4573    4.7387 H   0  0  0  0  0  0  0  0  0  0  0  0
   -1.9400   -8.1455    4.9131 H   0  0  0  0  0  0  0  0  0  0  0  0
    0.3097   -7.8855    5.7766 H   0  0  0  0  0  0  0  0  0  0  0  0
    1.0702   -5.8691    4.4981 H   0  0  0  0  0  0  0  0  0  0  0  0
    2.2122   -7.1876    4.5209 H   0  0  0  0  0  0  0  0  0  0  0  0
   -0.3145   -9.8231    4.5523 H   0  0  0  0  0  0  0  0  0  0  0  0
    3.8862   -3.9557   -1.0797 H   0  0  0  0  0  0  0  0  0  0  0  0
  1  2  2  0
  2 13  1  0
  2  3  1  0
  3  4  1  0
  4 11  1  0
  4  5  1  0
  4 23  1  6
  5  6  1  0
  5 24  1  0
  5 25  1  0
  6 12  1  0
  6  7  1  0
  6 26  1  6
  7  8  1  0
  7 27  1  0
  7 28  1  0
  8  9  1  0
  9 10  1  0
  9 29  1  0
  9 30  1  0
 10 11  1  0
 10 12  1  0
 10 31  1  1
 11 32  1  0
 11 33  1  0
 12 34  1  0
 13 14  1  0
 13 21  2  0
 14 15  2  0
 14 35  1  0
 15 16  1  0
 15 20  1  0
 16 17  1  0
 16 18  1  0
 16 19  1  0
 20 21  1  0
 20 22  1  0
M  END
>  <i_m_ct_stereo_status>  (330) 
1

>  <s_m_source_file>  (330) 
/var/tmp/pbs.5076255.sched01/tmp1uy3qkd6/1269t22etaf.sdf

>  <i_m_source_file_index>  (330) 
23

>  <i_lp_mmshare_version>  (330) 
48012

>  <i_f3d_flags>  (330) 
0

>  <s_epik_input>  (330) 
RkMoRikoRiljKG5bbkhdMSlbY0hdYzFDKD1PKU9bQ0BIXShbQ0gyXVtDSF0yMylbQ0gyXVtDQEhdKFtOSF0zKVtDSDJdT1tDSDJdMg==

>  <s_epik_cmdline>  (330) 
J2VwaWtfcHl0aG9uJywgJy1waHQnLCAnMi4wJywgJy1waCcsICc3LjAnLCAnLXRuJywgJzgnLCAnLW1hJywgJzIwMCcsICctaW1hZScsICc8aW5maWxlLm1hZT4nLCAnLW9tYWUnLCAnPG91dGZpbGUubWFlPic=

>  <r_epik_Ionization_Penalty>  (330) 
1.39485

>  <r_epik_Ionization_Penalty_Charging>  (330) 
0

>  <r_epik_Ionization_Penalty_Neutral>  (330) 
1.39485

>  <r_epik_State_Penalty>  (330) 
1.53325

>  <r_epik_Charging_Adjusted_Penalty>  (330) 
1.53325

>  <i_epik_Tot_Q>  (330) 
0

>  <i_epik_Tot_abs_Q>  (330) 
0

>  <s_epik_Chemistry_Notes>  (330) 
This compound has an ester and may undergo hydrolysis at high or low pH.

>  <s_lp_Force_Field>  (330) 
OPLS3e

>  <r_lp_Energy>  (330) 
17.9642

>  <b_lp_Chiralities_Consistent>  (330) 
1

>  <s_lp_Variant>  (330) 
102:0-8

>  <s_i_glide_gridfile>  (330) 
pfpi4k_grid

>  <i_i_glide_lignum>  (330) 
23

>  <i_i_glide_rotatable_bonds>  (330) 
4

>  <r_i_docking_score>  (330) 
-3.25272

>  <r_i_glide_ligand_efficiency>  (330) 
-0.154891

>  <r_i_glide_ligand_efficiency_sa>  (330) 
-0.427333

>  <r_i_glide_ligand_efficiency_ln>  (330) 
-0.804228

>  <r_i_glide_gscore>  (330) 
-3.25272

>  <r_i_glide_lipo>  (330) 
-0.257658

>  <r_i_glide_hbond>  (330) 
-0.151891

>  <r_i_glide_metal>  (330) 
-0

>  <r_i_glide_rewards>  (330) 
-1.53842

>  <r_i_glide_evdw>  (330) 
-25.5412

>  <r_i_glide_ecoul>  (330) 
-3.67065

>  <r_i_glide_erotb>  (330) 
0.594157

>  <r_i_glide_esite>  (330) 
-0.0712444

>  <r_i_glide_emodel>  (330) 
-35.1873

>  <r_i_glide_energy>  (330) 
-29.2118

>  <r_i_glide_einternal>  (330) 
1.40945

>  <r_i_glide_intrahb_reward>  (330) 
-0

>  <i_i_glide_confnum>  (330) 
6

>  <i_i_glide_posenum>  (330) 
19

>  <r_i_glide_eff_state_penalty>  (330) 
0

>  <ligand_id>  (330) 
102

>  <original_smiles>  (330) 
O=C(OC1CC2COCC(C1)N2)c1cc(C(F)(F)F)n[nH]1

>  <smiles>  (330) 
[H]c1c(C(=O)OC2([H])C([H])([H])C3([H])N([H])C([H])(C([H])([H])OC3([H])[H])C2([H])[H])nn([H])c1C(F)(F)F

$$$$
102:7:2
     RDKit          3D

 35 37  0  0  1  0  0  0  0  0999 V2000
    3.8014   -6.6287    1.0710 O   0  0  0  0  0  0  0  0  0  0  0  0
    3.0295   -5.6742    1.0177 C   0  0  0  0  0  0  0  0  0  0  0  0
    1.8483   -5.5950    1.6958 O   0  0  0  0  0  0  0  0  0  0  0  0
    1.3300   -6.6910    2.4588 C   0  0  1  0  0  0  0  0  0  0  0  0
    0.7696   -6.1567    3.7976 C   0  0  0  0  0  0  0  0  0  0  0  0
   -0.2197   -7.1323    4.4861 C   0  0  2  0  0  0  0  0  0  0  0  0
    0.4300   -8.4358    5.0066 C   0  0  0  0  0  0  0  0  0  0  0  0
    0.8902   -9.2223    3.9235 O   0  0  0  0  0  0  0  0  0  0  0  0
   -0.1015   -9.5310    2.9606 C   0  0  0  0  0  0  0  0  0  0  0  0
   -0.7507   -8.2355    2.4309 C   0  0  2  0  0  0  0  0  0  0  0  0
    0.2044   -7.3292    1.6207 C   0  0  0  0  0  0  0  0  0  0  0  0
   -1.3073   -7.4870    3.5646 N   0  0  0  0  0  0  0  0  0  0  0  0
    3.2622   -4.4598    0.1857 C   0  0  0  0  0  0  0  0  0  0  0  0
    4.4673   -4.2608   -0.5654 C   0  0  0  0  0  0  0  0  0  0  0  0
    4.2585   -3.0775   -1.2211 C   0  0  0  0  0  0  0  0  0  0  0  0
    5.1111   -2.3060   -2.1717 C   0  0  0  0  0  0  0  0  0  0  0  0
    4.5586   -2.2436   -3.3843 F   0  0  0  0  0  0  0  0  0  0  0  0
    5.2842   -1.0566   -1.7402 F   0  0  0  0  0  0  0  0  0  0  0  0
    6.3209   -2.8482   -2.3028 F   0  0  0  0  0  0  0  0  0  0  0  0
    3.0143   -2.6363   -0.8418 N   0  0  0  0  0  0  0  0  0  0  0  0
    2.4091   -3.4675    0.0189 N   0  0  0  0  0  0  0  0  0  0  0  0
    2.5329   -1.7861   -1.1426 H   0  0  0  0  0  0  0  0  0  0  0  0
    2.0875   -7.4403    2.6874 H   0  0  0  0  0  0  0  0  0  0  0  0
    0.2338   -5.2209    3.6202 H   0  0  0  0  0  0  0  0  0  0  0  0
    1.5960   -5.9000    4.4657 H   0  0  0  0  0  0  0  0  0  0  0  0
   -0.6317   -6.6111    5.3516 H   0  0  0  0  0  0  0  0  0  0  0  0
    1.2956   -8.2096    5.6253 H   0  0  0  0  0  0  0  0  0  0  0  0
   -0.2715   -8.9862    5.6372 H   0  0  0  0  0  0  0  0  0  0  0  0
    0.3847  -10.0783    2.1562 H   0  0  0  0  0  0  0  0  0  0  0  0
   -0.8704  -10.1932    3.3609 H   0  0  0  0  0  0  0  0  0  0  0  0
   -1.5547   -8.5350    1.7589 H   0  0  0  0  0  0  0  0  0  0  0  0
    0.6526   -7.8560    0.7788 H   0  0  0  0  0  0  0  0  0  0  0  0
   -0.4039   -6.5444    1.1698 H   0  0  0  0  0  0  0  0  0  0  0  0
   -1.8932   -8.1464    4.0638 H   0  0  0  0  0  0  0  0  0  0  0  0
    5.3291   -4.9069   -0.6286 H   0  0  0  0  0  0  0  0  0  0  0  0
  1  2  2  0
  2 13  1  0
  2  3  1  0
  3  4  1  0
  4 11  1  0
  4  5  1  0
  4 23  1  1
  5  6  1  0
  5 24  1  0
  5 25  1  0
  6 12  1  0
  6  7  1  0
  6 26  1  1
  7  8  1  0
  7 27  1  0
  7 28  1  0
  8  9  1  0
  9 10  1  0
  9 29  1  0
  9 30  1  0
 10 11  1  0
 10 12  1  0
 10 31  1  6
 11 32  1  0
 11 33  1  0
 12 34  1  0
 13 14  1  0
 13 21  2  0
 14 15  2  0
 14 35  1  0
 15 16  1  0
 15 20  1  0
 16 17  1  0
 16 18  1  0
 16 19  1  0
 20 21  1  0
 20 22  1  0
M  END
>  <i_m_ct_stereo_status>  (331) 
1

>  <s_m_source_file>  (331) 
/var/tmp/pbs.5076255.sched01/tmp1uy3qkd6/1269t22etaf.sdf

>  <i_m_source_file_index>  (331) 
23

>  <i_lp_mmshare_version>  (331) 
48012

>  <i_f3d_flags>  (331) 
0

>  <s_epik_input>  (331) 
RkMoRikoRiljKG5bbkhdMSlbY0hdYzFDKD1PKU9bQ0BIXShbQ0gyXVtDSF0yMylbQ0gyXVtDQEhdKFtOSF0zKVtDSDJdT1tDSDJdMg==

>  <s_epik_cmdline>  (331) 
J2VwaWtfcHl0aG9uJywgJy1waHQnLCAnMi4wJywgJy1waCcsICc3LjAnLCAnLXRuJywgJzgnLCAnLW1hJywgJzIwMCcsICctaW1hZScsICc8aW5maWxlLm1hZT4nLCAnLW9tYWUnLCAnPG91dGZpbGUubWFlPic=

>  <r_epik_Ionization_Penalty>  (331) 
1.39485

>  <r_epik_Ionization_Penalty_Charging>  (331) 
0

>  <r_epik_Ionization_Penalty_Neutral>  (331) 
1.39485

>  <r_epik_State_Penalty>  (331) 
1.53325

>  <r_epik_Charging_Adjusted_Penalty>  (331) 
1.53325

>  <i_epik_Tot_Q>  (331) 
0

>  <i_epik_Tot_abs_Q>  (331) 
0

>  <s_epik_Chemistry_Notes>  (331) 
This compound has an ester and may undergo hydrolysis at high or low pH.

>  <s_lp_Force_Field>  (331) 
OPLS3e

>  <r_lp_Energy>  (331) 
17.9642

>  <b_lp_Chiralities_Consistent>  (331) 
1

>  <s_lp_Variant>  (331) 
102:0-8

>  <s_i_glide_gridfile>  (331) 
pfpi4k_grid

>  <i_i_glide_lignum>  (331) 
23

>  <i_i_glide_rotatable_bonds>  (331) 
4

>  <r_i_docking_score>  (331) 
-3.07307

>  <r_i_glide_ligand_efficiency>  (331) 
-0.146337

>  <r_i_glide_ligand_efficiency_sa>  (331) 
-0.403731

>  <r_i_glide_ligand_efficiency_ln>  (331) 
-0.75981

>  <r_i_glide_gscore>  (331) 
-3.07307

>  <r_i_glide_lipo>  (331) 
-0.0569201

>  <r_i_glide_hbond>  (331) 
-0.133715

>  <r_i_glide_metal>  (331) 
-0

>  <r_i_glide_rewards>  (331) 
-1.49205

>  <r_i_glide_evdw>  (331) 
-26.3869

>  <r_i_glide_ecoul>  (331) 
-3.67065

>  <r_i_glide_erotb>  (331) 
0.594157

>  <r_i_glide_esite>  (331) 
-0.114597

>  <r_i_glide_emodel>  (331) 
-35.4523

>  <r_i_glide_energy>  (331) 
-30.0576

>  <r_i_glide_einternal>  (331) 
1.78434

>  <r_i_glide_intrahb_reward>  (331) 
-0

>  <i_i_glide_confnum>  (331) 
5

>  <i_i_glide_posenum>  (331) 
20

>  <r_i_glide_eff_state_penalty>  (331) 
0

>  <ligand_id>  (331) 
102

>  <original_smiles>  (331) 
O=C(OC1CC2COCC(C1)N2)c1cc(C(F)(F)F)n[nH]1

>  <smiles>  (331) 
[H]c1c(C(=O)OC2([H])C([H])([H])C3([H])N([H])C([H])(C([H])([H])OC3([H])[H])C2([H])[H])nn([H])c1C(F)(F)F

$$$$
102:8:0
     RDKit          3D

 34 36  0  0  1  0  0  0  0  0999 V2000
    4.6228   -7.2767    1.1764 O   0  0  0  0  0  0  0  0  0  0  0  0
    3.7671   -6.4247    0.9122 C   0  0  0  0  0  0  0  0  0  0  0  0
    4.0187   -5.2439    0.3112 O   0  0  0  0  0  0  0  0  0  0  0  0
    5.3242   -4.8550   -0.0935 C   0  0  2  0  0  0  0  0  0  0  0  0
    6.1457   -4.2512    1.0731 C   0  0  0  0  0  0  0  0  0  0  0  0
    5.8528   -2.7527    1.3507 C   0  0  2  0  0  0  0  0  0  0  0  0
    4.4601   -2.4626    1.9420 C   0  0  0  0  0  0  0  0  0  0  0  0
    3.4364   -2.7315    1.0011 O   0  0  0  0  0  0  0  0  0  0  0  0
    3.6020   -2.0963   -0.2555 C   0  0  0  0  0  0  0  0  0  0  0  0
    4.9963   -2.3796   -0.8474 C   0  0  2  0  0  0  0  0  0  0  0  0
    5.2369   -3.8507   -1.2704 C   0  0  0  0  0  0  0  0  0  0  0  0
    6.0286   -1.9772    0.1178 N   0  0  0  0  0  0  0  0  0  0  0  0
    2.3181   -6.5682    1.2010 C   0  0  0  0  0  0  0  0  0  0  0  0
    1.8161   -7.5226    2.1680 C   0  0  0  0  0  0  0  0  0  0  0  0
    0.4172   -7.2398    2.0444 C   0  0  0  0  0  0  0  0  0  0  0  0
   -0.6074   -7.9737    2.9089 C   0  0  0  0  0  0  0  0  0  0  0  0
   -1.4248   -8.6504    2.1094 F   0  0  0  0  0  0  0  0  0  0  0  0
   -0.0528   -8.8125    3.7792 F   0  0  0  0  0  0  0  0  0  0  0  0
   -1.3224   -7.0725    3.5789 F   0  0  0  0  0  0  0  0  0  0  0  0
    0.2121   -6.2750    1.1134 N   0  0  0  0  0  0  0  0  0  0  0  0
    1.3524   -5.8726    0.5745 N   0  0  0  0  0  0  0  0  0  0  0  0
    5.8423   -5.7439   -0.4622 H   0  0  0  0  0  0  0  0  0  0  0  0
    7.2034   -4.3330    0.8130 H   0  0  0  0  0  0  0  0  0  0  0  0
    6.0274   -4.8473    1.9789 H   0  0  0  0  0  0  0  0  0  0  0  0
    6.5846   -2.4193    2.0866 H   0  0  0  0  0  0  0  0  0  0  0  0
    4.2723   -3.1060    2.7967 H   0  0  0  0  0  0  0  0  0  0  0  0
    4.3999   -1.4343    2.2955 H   0  0  0  0  0  0  0  0  0  0  0  0
    2.8261   -2.4843   -0.9100 H   0  0  0  0  0  0  0  0  0  0  0  0
    3.4362   -1.0234   -0.1685 H   0  0  0  0  0  0  0  0  0  0  0  0
    5.0874   -1.7707   -1.7484 H   0  0  0  0  0  0  0  0  0  0  0  0
    4.4966   -4.1844   -1.9997 H   0  0  0  0  0  0  0  0  0  0  0  0
    6.1907   -3.8578   -1.8014 H   0  0  0  0  0  0  0  0  0  0  0  0
    6.9471   -2.1831   -0.2605 H   0  0  0  0  0  0  0  0  0  0  0  0
    2.3485   -8.2275    2.8068 H   0  0  0  0  0  0  0  0  0  0  0  0
  1  2  2  0
  2 13  1  0
  2  3  1  0
  3  4  1  0
  4 11  1  0
  4  5  1  0
  4 22  1  6
  5  6  1  0
  5 23  1  0
  5 24  1  0
  6 12  1  0
  6  7  1  0
  6 25  1  1
  7  8  1  0
  7 26  1  0
  7 27  1  0
  8  9  1  0
  9 10  1  0
  9 28  1  0
  9 29  1  0
 10 11  1  0
 10 12  1  0
 10 30  1  6
 11 31  1  0
 11 32  1  0
 12 33  1  0
 13 14  1  0
 13 21  2  0
 14 15  2  0
 14 34  1  0
 15 16  1  0
 15 20  1  0
 16 17  1  0
 16 18  1  0
 16 19  1  0
 20 21  1  0
M  CHG  1  20  -1
M  END
>  <i_m_ct_stereo_status>  (332) 
1

>  <s_m_source_file>  (332) 
/var/tmp/pbs.5076255.sched01/tmp1uy3qkd6/1269t22etaf.sdf

>  <i_m_source_file_index>  (332) 
24

>  <i_lp_mmshare_version>  (332) 
48012

>  <i_f3d_flags>  (332) 
0

>  <s_epik_input>  (332) 
RkMoRikoRiljKG5bbkhdMSlbY0hdYzFDKD1PKU9bQ0BIXShbQ0gyXVtDSF0yMylbQ0gyXVtDQEhdKFtOSF0zKVtDSDJdT1tDSDJdMg==

>  <s_epik_cmdline>  (332) 
J2VwaWtfcHl0aG9uJywgJy1waHQnLCAnMi4wJywgJy1waCcsICc3LjAnLCAnLXRuJywgJzgnLCAnLW1hJywgJzIwMCcsICctaW1hZScsICc8aW5maWxlLm1hZT4nLCAnLW9tYWUnLCAnPG91dGZpbGUubWFlPic=

>  <r_epik_Ionization_Penalty>  (332) 
3.20989

>  <r_epik_Ionization_Penalty_Charging>  (332) 
0.689587

>  <r_epik_Ionization_Penalty_Neutral>  (332) 
2.52031

>  <r_epik_State_Penalty>  (332) 
2.1621

>  <r_epik_Charging_Adjusted_Penalty>  (332) 
2.85169

>  <i_epik_Tot_Q>  (332) 
-1

>  <i_epik_Tot_abs_Q>  (332) 
1

>  <s_epik_Chemistry_Notes>  (332) 
This compound has an ester and may undergo hydrolysis at high or low pH.

>  <s_lp_Force_Field>  (332) 
OPLS3e

>  <r_lp_Energy>  (332) 
23.1065

>  <b_lp_Chiralities_Consistent>  (332) 
1

>  <s_lp_Variant>  (332) 
102:0-9

>  <s_i_glide_gridfile>  (332) 
pfpi4k_grid

>  <i_i_glide_lignum>  (332) 
24

>  <i_i_glide_rotatable_bonds>  (332) 
4

>  <r_i_docking_score>  (332) 
-3.54193

>  <r_i_glide_ligand_efficiency>  (332) 
-0.168663

>  <r_i_glide_ligand_efficiency_sa>  (332) 
-0.46533

>  <r_i_glide_ligand_efficiency_ln>  (332) 
-0.875736

>  <r_i_glide_gscore>  (332) 
-3.54193

>  <r_i_glide_lipo>  (332) 
-0.257443

>  <r_i_glide_hbond>  (332) 
0

>  <r_i_glide_metal>  (332) 
-0

>  <r_i_glide_rewards>  (332) 
-1.51524

>  <r_i_glide_evdw>  (332) 
-21.8026

>  <r_i_glide_ecoul>  (332) 
-6.36134

>  <r_i_glide_erotb>  (332) 
0.597611

>  <r_i_glide_esite>  (332) 
-0.322531

>  <r_i_glide_emodel>  (332) 
-37.2416

>  <r_i_glide_energy>  (332) 
-28.1639

>  <r_i_glide_einternal>  (332) 
1.8463

>  <r_i_glide_intrahb_reward>  (332) 
-0

>  <i_i_glide_confnum>  (332) 
6

>  <i_i_glide_posenum>  (332) 
34

>  <r_i_glide_eff_state_penalty>  (332) 
0

>  <ligand_id>  (332) 
102

>  <original_smiles>  (332) 
O=C(OC1CC2COCC(C1)N2)c1cc(C(F)(F)F)n[nH]1

>  <smiles>  (332) 
[H]c1c(C(=O)OC2([H])C([H])([H])C3([H])N([H])C([H])(C([H])([H])OC3([H])[H])C2([H])[H])n[n-]c1C(F)(F)F

$$$$
102:8:1
     RDKit          3D

 34 36  0  0  1  0  0  0  0  0999 V2000
    4.1292   -7.5781    1.1118 O   0  0  0  0  0  0  0  0  0  0  0  0
    3.3515   -6.6504    1.3647 C   0  0  0  0  0  0  0  0  0  0  0  0
    3.6900   -5.3402    1.3559 O   0  0  0  0  0  0  0  0  0  0  0  0
    5.0001   -4.8859    1.0358 C   0  0  2  0  0  0  0  0  0  0  0  0
    5.3538   -3.6203    1.8530 C   0  0  0  0  0  0  0  0  0  0  0  0
    4.8422   -2.2842    1.2463 C   0  0  2  0  0  0  0  0  0  0  0  0
    3.3105   -2.1005    1.3028 C   0  0  0  0  0  0  0  0  0  0  0  0
    2.6579   -3.0422    0.4652 O   0  0  0  0  0  0  0  0  0  0  0  0
    3.1137   -3.0464   -0.8795 C   0  0  0  0  0  0  0  0  0  0  0  0
    4.6457   -3.2237   -0.9446 C   0  0  2  0  0  0  0  0  0  0  0  0
    5.1532   -4.6122   -0.4770 C   0  0  0  0  0  0  0  0  0  0  0  0
    5.2880   -2.1698   -0.1478 N   0  0  0  0  0  0  0  0  0  0  0  0
    1.9176   -6.8049    1.6974 C   0  0  0  0  0  0  0  0  0  0  0  0
    1.3558   -8.0234    2.2357 C   0  0  0  0  0  0  0  0  0  0  0  0
   -0.0085   -7.5950    2.3801 C   0  0  0  0  0  0  0  0  0  0  0  0
   -1.0592   -8.5311    2.9544 C   0  0  0  0  0  0  0  0  0  0  0  0
   -1.5365   -8.0144    4.0871 F   0  0  0  0  0  0  0  0  0  0  0  0
   -2.0660   -8.6579    2.0899 F   0  0  0  0  0  0  0  0  0  0  0  0
   -0.5417   -9.7277    3.1920 F   0  0  0  0  0  0  0  0  0  0  0  0
   -0.1488   -6.3281    1.9540 N   0  0  0  0  0  0  0  0  0  0  0  0
    1.0054   -5.8540    1.5353 N   0  0  0  0  0  0  0  0  0  0  0  0
    5.7176   -5.6558    1.3234 H   0  0  0  0  0  0  0  0  0  0  0  0
    6.4421   -3.5468    1.8982 H   0  0  0  0  0  0  0  0  0  0  0  0
    5.0293   -3.7317    2.8888 H   0  0  0  0  0  0  0  0  0  0  0  0
    5.2821   -1.4730    1.8316 H   0  0  0  0  0  0  0  0  0  0  0  0
    2.9487   -2.2749    2.3131 H   0  0  0  0  0  0  0  0  0  0  0  0
    3.0353   -1.0774    1.0397 H   0  0  0  0  0  0  0  0  0  0  0  0
    2.6127   -3.8699   -1.3804 H   0  0  0  0  0  0  0  0  0  0  0  0
    2.8160   -2.1342   -1.3997 H   0  0  0  0  0  0  0  0  0  0  0  0
    4.9349   -3.1108   -1.9920 H   0  0  0  0  0  0  0  0  0  0  0  0
    4.7100   -5.4145   -1.0692 H   0  0  0  0  0  0  0  0  0  0  0  0
    6.2177   -4.6401   -0.7049 H   0  0  0  0  0  0  0  0  0  0  0  0
    6.2952   -2.2863   -0.1838 H   0  0  0  0  0  0  0  0  0  0  0  0
    1.8280   -8.9700    2.4723 H   0  0  0  0  0  0  0  0  0  0  0  0
  1  2  2  0
  2 13  1  0
  2  3  1  0
  3  4  1  0
  4 11  1  0
  4  5  1  0
  4 22  1  1
  5  6  1  0
  5 23  1  0
  5 24  1  0
  6 12  1  0
  6  7  1  0
  6 25  1  1
  7  8  1  0
  7 26  1  0
  7 27  1  0
  8  9  1  0
  9 10  1  0
  9 28  1  0
  9 29  1  0
 10 11  1  0
 10 12  1  0
 10 30  1  6
 11 31  1  0
 11 32  1  0
 12 33  1  0
 13 14  1  0
 13 21  2  0
 14 15  2  0
 14 34  1  0
 15 16  1  0
 15 20  1  0
 16 17  1  0
 16 18  1  0
 16 19  1  0
 20 21  1  0
M  CHG  1  20  -1
M  END
>  <i_m_ct_stereo_status>  (333) 
1

>  <s_m_source_file>  (333) 
/var/tmp/pbs.5076255.sched01/tmp1uy3qkd6/1269t22etaf.sdf

>  <i_m_source_file_index>  (333) 
24

>  <i_lp_mmshare_version>  (333) 
48012

>  <i_f3d_flags>  (333) 
0

>  <s_epik_input>  (333) 
RkMoRikoRiljKG5bbkhdMSlbY0hdYzFDKD1PKU9bQ0BIXShbQ0gyXVtDSF0yMylbQ0gyXVtDQEhdKFtOSF0zKVtDSDJdT1tDSDJdMg==

>  <s_epik_cmdline>  (333) 
J2VwaWtfcHl0aG9uJywgJy1waHQnLCAnMi4wJywgJy1waCcsICc3LjAnLCAnLXRuJywgJzgnLCAnLW1hJywgJzIwMCcsICctaW1hZScsICc8aW5maWxlLm1hZT4nLCAnLW9tYWUnLCAnPG91dGZpbGUubWFlPic=

>  <r_epik_Ionization_Penalty>  (333) 
3.20989

>  <r_epik_Ionization_Penalty_Charging>  (333) 
0.689587

>  <r_epik_Ionization_Penalty_Neutral>  (333) 
2.52031

>  <r_epik_State_Penalty>  (333) 
2.1621

>  <r_epik_Charging_Adjusted_Penalty>  (333) 
2.85169

>  <i_epik_Tot_Q>  (333) 
-1

>  <i_epik_Tot_abs_Q>  (333) 
1

>  <s_epik_Chemistry_Notes>  (333) 
This compound has an ester and may undergo hydrolysis at high or low pH.

>  <s_lp_Force_Field>  (333) 
OPLS3e

>  <r_lp_Energy>  (333) 
23.1065

>  <b_lp_Chiralities_Consistent>  (333) 
1

>  <s_lp_Variant>  (333) 
102:0-9

>  <s_i_glide_gridfile>  (333) 
pfpi4k_grid

>  <i_i_glide_lignum>  (333) 
24

>  <i_i_glide_rotatable_bonds>  (333) 
4

>  <r_i_docking_score>  (333) 
-3.50558

>  <r_i_glide_ligand_efficiency>  (333) 
-0.166932

>  <r_i_glide_ligand_efficiency_sa>  (333) 
-0.460554

>  <r_i_glide_ligand_efficiency_ln>  (333) 
-0.866748

>  <r_i_glide_gscore>  (333) 
-3.50558

>  <r_i_glide_lipo>  (333) 
-0.182015

>  <r_i_glide_hbond>  (333) 
0

>  <r_i_glide_metal>  (333) 
-0

>  <r_i_glide_rewards>  (333) 
-1.62371

>  <r_i_glide_evdw>  (333) 
-20.2985

>  <r_i_glide_ecoul>  (333) 
-6.32031

>  <r_i_glide_erotb>  (333) 
0.597611

>  <r_i_glide_esite>  (333) 
-0.334499

>  <r_i_glide_emodel>  (333) 
-35.4726

>  <r_i_glide_energy>  (333) 
-26.6188

>  <r_i_glide_einternal>  (333) 
1.99821

>  <r_i_glide_intrahb_reward>  (333) 
-0

>  <i_i_glide_confnum>  (333) 
4

>  <i_i_glide_posenum>  (333) 
30

>  <r_i_glide_eff_state_penalty>  (333) 
0

>  <ligand_id>  (333) 
102

>  <original_smiles>  (333) 
O=C(OC1CC2COCC(C1)N2)c1cc(C(F)(F)F)n[nH]1

>  <smiles>  (333) 
[H]c1c(C(=O)OC2([H])C([H])([H])C3([H])N([H])C([H])(C([H])([H])OC3([H])[H])C2([H])[H])n[n-]c1C(F)(F)F

$$$$
102:8:2
     RDKit          3D

 34 36  0  0  1  0  0  0  0  0999 V2000
    1.9690   -0.9914    3.9064 O   0  0  0  0  0  0  0  0  0  0  0  0
    0.8137   -0.8091    4.3016 C   0  0  0  0  0  0  0  0  0  0  0  0
    0.0259    0.2169    3.9168 O   0  0  0  0  0  0  0  0  0  0  0  0
    0.4219    1.1577    2.9353 C   0  0  2  0  0  0  0  0  0  0  0  0
    1.2825    2.3187    3.4995 C   0  0  0  0  0  0  0  0  0  0  0  0
    0.4697    3.4562    4.1769 C   0  0  2  0  0  0  0  0  0  0  0  0
   -0.1943    3.0773    5.5093 C   0  0  0  0  0  0  0  0  0  0  0  0
   -1.2433    2.1482    5.3068 O   0  0  0  0  0  0  0  0  0  0  0  0
   -2.2011    2.5261    4.3403 C   0  0  0  0  0  0  0  0  0  0  0  0
   -1.5347    2.8931    3.0222 C   0  0  2  0  0  0  0  0  0  0  0  0
   -0.8507    1.7158    2.2714 C   0  0  0  0  0  0  0  0  0  0  0  0
   -0.5700    3.9530    3.3016 N   0  0  0  0  0  0  0  0  0  0  0  0
    0.0763   -1.6844    5.2535 C   0  0  0  0  0  0  0  0  0  0  0  0
    0.7348   -2.8427    5.8536 C   0  0  0  0  0  0  0  0  0  0  0  0
   -0.3651   -3.3273    6.6233 C   0  0  0  0  0  0  0  0  0  0  0  0
   -0.2418   -4.5600    7.4986 C   0  0  0  0  0  0  0  0  0  0  0  0
   -0.5116   -4.2142    8.7561 F   0  0  0  0  0  0  0  0  0  0  0  0
   -1.1455   -5.4459    7.0958 F   0  0  0  0  0  0  0  0  0  0  0  0
    0.9703   -5.1193    7.4429 F   0  0  0  0  0  0  0  0  0  0  0  0
   -1.4484   -2.5330    6.4446 N   0  0  0  0  0  0  0  0  0  0  0  0
   -1.2056   -1.5294    5.6256 N   0  0  0  0  0  0  0  0  0  0  0  0
    0.9919    0.6370    2.1583 H   0  0  0  0  0  0  0  0  0  0  0  0
    1.8183    2.7590    2.6540 H   0  0  0  0  0  0  0  0  0  0  0  0
    2.0515    1.9335    4.1634 H   0  0  0  0  0  0  0  0  0  0  0  0
    1.1771    4.2608    4.3803 H   0  0  0  0  0  0  0  0  0  0  0  0
    0.5195    2.6106    6.1742 H   0  0  0  0  0  0  0  0  0  0  0  0
   -0.5730    3.9618    6.0077 H   0  0  0  0  0  0  0  0  0  0  0  0
   -2.8477    1.6796    4.1469 H   0  0  0  0  0  0  0  0  0  0  0  0
   -2.8244    3.3345    4.6985 H   0  0  0  0  0  0  0  0  0  0  0  0
   -2.3124    3.2682    2.3600 H   0  0  0  0  0  0  0  0  0  0  0  0
   -1.5647    0.9139    2.0478 H   0  0  0  0  0  0  0  0  0  0  0  0
   -0.5382    2.0899    1.2994 H   0  0  0  0  0  0  0  0  0  0  0  0
   -0.1771    4.1839    2.3385 H   0  0  0  0  0  0  0  0  0  0  0  0
    1.7626   -3.2188    5.7415 H   0  0  0  0  0  0  0  0  0  0  0  0
  1  2  2  0
  2 13  1  0
  2  3  1  0
  3  4  1  0
  4 11  1  0
  4  5  1  0
  4 22  1  6
  5  6  1  0
  5 23  1  0
  5 24  1  0
  6 12  1  0
  6  7  1  0
  6 25  1  1
  7  8  1  0
  7 26  1  0
  7 27  1  0
  8  9  1  0
  9 10  1  0
  9 28  1  0
  9 29  1  0
 10 11  1  0
 10 12  1  0
 10 30  1  6
 11 31  1  0
 11 32  1  0
 12 33  1  0
 13 14  1  0
 13 21  2  0
 14 15  2  0
 14 34  1  0
 15 16  1  0
 15 20  1  0
 16 17  1  0
 16 18  1  0
 16 19  1  0
 20 21  1  0
M  CHG  1  20  -1
M  END
>  <i_m_ct_stereo_status>  (334) 
1

>  <s_m_source_file>  (334) 
/var/tmp/pbs.5076255.sched01/tmp1uy3qkd6/1269t22etaf.sdf

>  <i_m_source_file_index>  (334) 
24

>  <i_lp_mmshare_version>  (334) 
48012

>  <i_f3d_flags>  (334) 
0

>  <s_epik_input>  (334) 
RkMoRikoRiljKG5bbkhdMSlbY0hdYzFDKD1PKU9bQ0BIXShbQ0gyXVtDSF0yMylbQ0gyXVtDQEhdKFtOSF0zKVtDSDJdT1tDSDJdMg==

>  <s_epik_cmdline>  (334) 
J2VwaWtfcHl0aG9uJywgJy1waHQnLCAnMi4wJywgJy1waCcsICc3LjAnLCAnLXRuJywgJzgnLCAnLW1hJywgJzIwMCcsICctaW1hZScsICc8aW5maWxlLm1hZT4nLCAnLW9tYWUnLCAnPG91dGZpbGUubWFlPic=

>  <r_epik_Ionization_Penalty>  (334) 
3.20989

>  <r_epik_Ionization_Penalty_Charging>  (334) 
0.689587

>  <r_epik_Ionization_Penalty_Neutral>  (334) 
2.52031

>  <r_epik_State_Penalty>  (334) 
2.1621

>  <r_epik_Charging_Adjusted_Penalty>  (334) 
2.85169

>  <i_epik_Tot_Q>  (334) 
-1

>  <i_epik_Tot_abs_Q>  (334) 
1

>  <s_epik_Chemistry_Notes>  (334) 
This compound has an ester and may undergo hydrolysis at high or low pH.

>  <s_lp_Force_Field>  (334) 
OPLS3e

>  <r_lp_Energy>  (334) 
23.1065

>  <b_lp_Chiralities_Consistent>  (334) 
1

>  <s_lp_Variant>  (334) 
102:0-9

>  <s_i_glide_gridfile>  (334) 
pfpi4k_grid

>  <i_i_glide_lignum>  (334) 
24

>  <i_i_glide_rotatable_bonds>  (334) 
4

>  <r_i_docking_score>  (334) 
-3.48225

>  <r_i_glide_ligand_efficiency>  (334) 
-0.165821

>  <r_i_glide_ligand_efficiency_sa>  (334) 
-0.457489

>  <r_i_glide_ligand_efficiency_ln>  (334) 
-0.860979

>  <r_i_glide_gscore>  (334) 
-3.48225

>  <r_i_glide_lipo>  (334) 
0

>  <r_i_glide_hbond>  (334) 
-0.16

>  <r_i_glide_metal>  (334) 
-0

>  <r_i_glide_rewards>  (334) 
-1.44403

>  <r_i_glide_evdw>  (334) 
-15.6794

>  <r_i_glide_ecoul>  (334) 
-10.3521

>  <r_i_glide_erotb>  (334) 
0.597611

>  <r_i_glide_esite>  (334) 
-0.139054

>  <r_i_glide_emodel>  (334) 
-34.6068

>  <r_i_glide_energy>  (334) 
-26.0315

>  <r_i_glide_einternal>  (334) 
1.66165

>  <r_i_glide_intrahb_reward>  (334) 
-0

>  <i_i_glide_confnum>  (334) 
4

>  <i_i_glide_posenum>  (334) 
32

>  <r_i_glide_eff_state_penalty>  (334) 
0

>  <ligand_id>  (334) 
102

>  <original_smiles>  (334) 
O=C(OC1CC2COCC(C1)N2)c1cc(C(F)(F)F)n[nH]1

>  <smiles>  (334) 
[H]c1c(C(=O)OC2([H])C([H])([H])C3([H])N([H])C([H])(C([H])([H])OC3([H])[H])C2([H])[H])n[n-]c1C(F)(F)F

$$$$
102:9:0
     RDKit          3D

 34 36  0  0  1  0  0  0  0  0999 V2000
    3.9822   -6.9095    1.1192 O   0  0  0  0  0  0  0  0  0  0  0  0
    2.9748   -6.2050    1.2110 C   0  0  0  0  0  0  0  0  0  0  0  0
    2.9388   -4.8902    0.8296 O   0  0  0  0  0  0  0  0  0  0  0  0
    4.1009   -4.1828    0.3638 C   0  0  1  0  0  0  0  0  0  0  0  0
    3.6576   -3.0065   -0.5407 C   0  0  0  0  0  0  0  0  0  0  0  0
    4.7459   -1.9180   -0.7473 C   0  0  2  0  0  0  0  0  0  0  0  0
    5.9584   -2.3961   -1.5729 C   0  0  0  0  0  0  0  0  0  0  0  0
    6.6821   -3.3865   -0.8631 O   0  0  0  0  0  0  0  0  0  0  0  0
    7.1084   -2.9745    0.4248 C   0  0  0  0  0  0  0  0  0  0  0  0
    5.8951   -2.5178    1.2600 C   0  0  2  0  0  0  0  0  0  0  0  0
    4.8833   -3.6460    1.5854 C   0  0  0  0  0  0  0  0  0  0  0  0
    5.2323   -1.4190    0.5488 N   0  0  0  0  0  0  0  0  0  0  0  0
    1.6690   -6.6667    1.7338 C   0  0  0  0  0  0  0  0  0  0  0  0
    1.3824   -8.0542    2.0853 C   0  0  0  0  0  0  0  0  0  0  0  0
   -0.0002   -7.9015    2.4675 C   0  0  0  0  0  0  0  0  0  0  0  0
   -0.8103   -9.0586    2.9851 C   0  0  0  0  0  0  0  0  0  0  0  0
   -1.4260   -8.6580    4.1038 F   0  0  0  0  0  0  0  0  0  0  0  0
   -1.7419   -9.3845    2.0868 F   0  0  0  0  0  0  0  0  0  0  0  0
   -0.0337  -10.1066    3.2410 F   0  0  0  0  0  0  0  0  0  0  0  0
   -0.3899   -6.6231    2.3018 N   0  0  0  0  0  0  0  0  0  0  0  0
    0.6172   -5.8622    1.9552 N   0  0  0  0  0  0  0  0  0  0  0  0
    4.7615   -4.8153   -0.2362 H   0  0  0  0  0  0  0  0  0  0  0  0
    2.8048   -2.4988   -0.0934 H   0  0  0  0  0  0  0  0  0  0  0  0
    3.3052   -3.3859   -1.5028 H   0  0  0  0  0  0  0  0  0  0  0  0
    4.2911   -1.0979   -1.3069 H   0  0  0  0  0  0  0  0  0  0  0  0
    5.6540   -2.8682   -2.5031 H   0  0  0  0  0  0  0  0  0  0  0  0
    6.5966   -1.5517   -1.8414 H   0  0  0  0  0  0  0  0  0  0  0  0
    7.5804   -3.8488    0.8647 H   0  0  0  0  0  0  0  0  0  0  0  0
    7.8672   -2.1860    0.3713 H   0  0  0  0  0  0  0  0  0  0  0  0
    6.2874   -2.1527    2.2101 H   0  0  0  0  0  0  0  0  0  0  0  0
    5.3762   -4.4686    2.1079 H   0  0  0  0  0  0  0  0  0  0  0  0
    4.1764   -3.2204    2.2952 H   0  0  0  0  0  0  0  0  0  0  0  0
    5.9341   -0.7054    0.3713 H   0  0  0  0  0  0  0  0  0  0  0  0
    2.0107   -8.9312    2.0714 H   0  0  0  0  0  0  0  0  0  0  0  0
  1  2  2  0
  2 13  1  0
  2  3  1  0
  3  4  1  0
  4 11  1  0
  4  5  1  0
  4 22  1  6
  5  6  1  0
  5 23  1  0
  5 24  1  0
  6 12  1  0
  6  7  1  0
  6 25  1  6
  7  8  1  0
  7 26  1  0
  7 27  1  0
  8  9  1  0
  9 10  1  0
  9 28  1  0
  9 29  1  0
 10 11  1  0
 10 12  1  0
 10 30  1  1
 11 31  1  0
 11 32  1  0
 12 33  1  0
 13 14  1  0
 13 21  2  0
 14 15  2  0
 14 34  1  0
 15 16  1  0
 15 20  1  0
 16 17  1  0
 16 18  1  0
 16 19  1  0
 20 21  1  0
M  CHG  1  20  -1
M  END
>  <i_m_ct_stereo_status>  (335) 
1

>  <s_m_source_file>  (335) 
/var/tmp/pbs.5076255.sched01/tmp1uy3qkd6/1269t22etaf.sdf

>  <i_m_source_file_index>  (335) 
25

>  <i_lp_mmshare_version>  (335) 
48012

>  <i_f3d_flags>  (335) 
0

>  <s_epik_input>  (335) 
RkMoRikoRiljKG5bbkhdMSlbY0hdYzFDKD1PKU9bQ0BIXShbQ0gyXVtDSF0yMylbQ0gyXVtDQEhdKFtOSF0zKVtDSDJdT1tDSDJdMg==

>  <s_epik_cmdline>  (335) 
J2VwaWtfcHl0aG9uJywgJy1waHQnLCAnMi4wJywgJy1waCcsICc3LjAnLCAnLXRuJywgJzgnLCAnLW1hJywgJzIwMCcsICctaW1hZScsICc8aW5maWxlLm1hZT4nLCAnLW9tYWUnLCAnPG91dGZpbGUubWFlPic=

>  <r_epik_Ionization_Penalty>  (335) 
3.20989

>  <r_epik_Ionization_Penalty_Charging>  (335) 
0.689587

>  <r_epik_Ionization_Penalty_Neutral>  (335) 
2.52031

>  <r_epik_State_Penalty>  (335) 
2.1621

>  <r_epik_Charging_Adjusted_Penalty>  (335) 
2.85169

>  <i_epik_Tot_Q>  (335) 
-1

>  <i_epik_Tot_abs_Q>  (335) 
1

>  <s_epik_Chemistry_Notes>  (335) 
This compound has an ester and may undergo hydrolysis at high or low pH.

>  <s_lp_Force_Field>  (335) 
OPLS3e

>  <r_lp_Energy>  (335) 
21.0414

>  <b_lp_Chiralities_Consistent>  (335) 
1

>  <s_lp_Variant>  (335) 
102:0-10

>  <s_i_glide_gridfile>  (335) 
pfpi4k_grid

>  <i_i_glide_lignum>  (335) 
25

>  <i_i_glide_rotatable_bonds>  (335) 
4

>  <r_i_docking_score>  (335) 
-3.54732

>  <r_i_glide_ligand_efficiency>  (335) 
-0.16892

>  <r_i_glide_ligand_efficiency_sa>  (335) 
-0.466037

>  <r_i_glide_ligand_efficiency_ln>  (335) 
-0.877067

>  <r_i_glide_gscore>  (335) 
-3.54732

>  <r_i_glide_lipo>  (335) 
-0.279796

>  <r_i_glide_hbond>  (335) 
0

>  <r_i_glide_metal>  (335) 
-0

>  <r_i_glide_rewards>  (335) 
-1.64325

>  <r_i_glide_evdw>  (335) 
-21.8848

>  <r_i_glide_ecoul>  (335) 
-5.41195

>  <r_i_glide_erotb>  (335) 
0.597611

>  <r_i_glide_esite>  (335) 
-0.315852

>  <r_i_glide_emodel>  (335) 
-35.9417

>  <r_i_glide_energy>  (335) 
-27.2968

>  <r_i_glide_einternal>  (335) 
1.526

>  <r_i_glide_intrahb_reward>  (335) 
-0

>  <i_i_glide_confnum>  (335) 
5

>  <i_i_glide_posenum>  (335) 
10

>  <r_i_glide_eff_state_penalty>  (335) 
0

>  <ligand_id>  (335) 
102

>  <original_smiles>  (335) 
O=C(OC1CC2COCC(C1)N2)c1cc(C(F)(F)F)n[nH]1

>  <smiles>  (335) 
[H]c1c(C(=O)OC2([H])C([H])([H])C3([H])N([H])C([H])(C([H])([H])OC3([H])[H])C2([H])[H])n[n-]c1C(F)(F)F

$$$$
102:9:1
     RDKit          3D

 34 36  0  0  1  0  0  0  0  0999 V2000
    4.4381   -6.1022    1.7346 O   0  0  0  0  0  0  0  0  0  0  0  0
    3.4512   -5.7186    1.0860 C   0  0  0  0  0  0  0  0  0  0  0  0
    3.4846   -4.7441    0.1535 O   0  0  0  0  0  0  0  0  0  0  0  0
    4.6185   -3.9054   -0.0884 C   0  0  1  0  0  0  0  0  0  0  0  0
    4.9321   -3.8572   -1.5993 C   0  0  0  0  0  0  0  0  0  0  0  0
    5.8137   -2.6547   -2.0138 C   0  0  2  0  0  0  0  0  0  0  0  0
    7.2551   -2.7034   -1.4598 C   0  0  0  0  0  0  0  0  0  0  0  0
    7.2447   -2.5778   -0.0468 O   0  0  0  0  0  0  0  0  0  0  0  0
    6.5744   -1.4238    0.4332 C   0  0  0  0  0  0  0  0  0  0  0  0
    5.1332   -1.3743   -0.1083 C   0  0  2  0  0  0  0  0  0  0  0  0
    4.2296   -2.5064    0.4228 C   0  0  0  0  0  0  0  0  0  0  0  0
    5.1840   -1.4004   -1.5754 N   0  0  0  0  0  0  0  0  0  0  0  0
    2.0784   -6.2365    1.2769 C   0  0  0  0  0  0  0  0  0  0  0  0
    1.7130   -7.0670    2.4075 C   0  0  0  0  0  0  0  0  0  0  0  0
    0.3016   -7.1056    2.2029 C   0  0  0  0  0  0  0  0  0  0  0  0
   -0.5775   -7.9742    3.1235 C   0  0  0  0  0  0  0  0  0  0  0  0
   -1.5074   -7.2083    3.6808 F   0  0  0  0  0  0  0  0  0  0  0  0
   -1.1886   -8.9367    2.4357 F   0  0  0  0  0  0  0  0  0  0  0  0
    0.1180   -8.5483    4.1042 F   0  0  0  0  0  0  0  0  0  0  0  0
   -0.0404   -6.3192    1.1588 N   0  0  0  0  0  0  0  0  0  0  0  0
    1.0448   -5.8609    0.5310 N   0  0  0  0  0  0  0  0  0  0  0  0
    5.5328   -4.2284    0.4176 H   0  0  0  0  0  0  0  0  0  0  0  0
    4.0090   -3.7811   -2.1725 H   0  0  0  0  0  0  0  0  0  0  0  0
    5.3922   -4.7940   -1.9114 H   0  0  0  0  0  0  0  0  0  0  0  0
    5.9018   -2.6753   -3.1006 H   0  0  0  0  0  0  0  0  0  0  0  0
    7.7361   -3.6564   -1.6542 H   0  0  0  0  0  0  0  0  0  0  0  0
    7.8913   -1.9515   -1.9367 H   0  0  0  0  0  0  0  0  0  0  0  0
    6.6007   -1.4993    1.5163 H   0  0  0  0  0  0  0  0  0  0  0  0
    7.1103   -0.5109    0.1584 H   0  0  0  0  0  0  0  0  0  0  0  0
    4.7068   -0.4291    0.2249 H   0  0  0  0  0  0  0  0  0  0  0  0
    4.1941   -2.5079    1.5132 H   0  0  0  0  0  0  0  0  0  0  0  0
    3.2206   -2.2687    0.0881 H   0  0  0  0  0  0  0  0  0  0  0  0
    5.7443   -0.6112   -1.8767 H   0  0  0  0  0  0  0  0  0  0  0  0
    2.3128   -7.5062    3.2107 H   0  0  0  0  0  0  0  0  0  0  0  0
  1  2  2  0
  2 13  1  0
  2  3  1  0
  3  4  1  0
  4 11  1  0
  4  5  1  0
  4 22  1  1
  5  6  1  0
  5 23  1  0
  5 24  1  0
  6 12  1  0
  6  7  1  0
  6 25  1  6
  7  8  1  0
  7 26  1  0
  7 27  1  0
  8  9  1  0
  9 10  1  0
  9 28  1  0
  9 29  1  0
 10 11  1  0
 10 12  1  0
 10 30  1  6
 11 31  1  0
 11 32  1  0
 12 33  1  0
 13 14  1  0
 13 21  2  0
 14 15  2  0
 14 34  1  0
 15 16  1  0
 15 20  1  0
 16 17  1  0
 16 18  1  0
 16 19  1  0
 20 21  1  0
M  CHG  1  20  -1
M  END
>  <i_m_ct_stereo_status>  (336) 
1

>  <s_m_source_file>  (336) 
/var/tmp/pbs.5076255.sched01/tmp1uy3qkd6/1269t22etaf.sdf

>  <i_m_source_file_index>  (336) 
25

>  <i_lp_mmshare_version>  (336) 
48012

>  <i_f3d_flags>  (336) 
0

>  <s_epik_input>  (336) 
RkMoRikoRiljKG5bbkhdMSlbY0hdYzFDKD1PKU9bQ0BIXShbQ0gyXVtDSF0yMylbQ0gyXVtDQEhdKFtOSF0zKVtDSDJdT1tDSDJdMg==

>  <s_epik_cmdline>  (336) 
J2VwaWtfcHl0aG9uJywgJy1waHQnLCAnMi4wJywgJy1waCcsICc3LjAnLCAnLXRuJywgJzgnLCAnLW1hJywgJzIwMCcsICctaW1hZScsICc8aW5maWxlLm1hZT4nLCAnLW9tYWUnLCAnPG91dGZpbGUubWFlPic=

>  <r_epik_Ionization_Penalty>  (336) 
3.20989

>  <r_epik_Ionization_Penalty_Charging>  (336) 
0.689587

>  <r_epik_Ionization_Penalty_Neutral>  (336) 
2.52031

>  <r_epik_State_Penalty>  (336) 
2.1621

>  <r_epik_Charging_Adjusted_Penalty>  (336) 
2.85169

>  <i_epik_Tot_Q>  (336) 
-1

>  <i_epik_Tot_abs_Q>  (336) 
1

>  <s_epik_Chemistry_Notes>  (336) 
This compound has an ester and may undergo hydrolysis at high or low pH.

>  <s_lp_Force_Field>  (336) 
OPLS3e

>  <r_lp_Energy>  (336) 
21.0414

>  <b_lp_Chiralities_Consistent>  (336) 
1

>  <s_lp_Variant>  (336) 
102:0-10

>  <s_i_glide_gridfile>  (336) 
pfpi4k_grid

>  <i_i_glide_lignum>  (336) 
25

>  <i_i_glide_rotatable_bonds>  (336) 
4

>  <r_i_docking_score>  (336) 
-3.46115

>  <r_i_glide_ligand_efficiency>  (336) 
-0.164817

>  <r_i_glide_ligand_efficiency_sa>  (336) 
-0.454716

>  <r_i_glide_ligand_efficiency_ln>  (336) 
-0.855761

>  <r_i_glide_gscore>  (336) 
-3.46115

>  <r_i_glide_lipo>  (336) 
-0.0334238

>  <r_i_glide_hbond>  (336) 
0

>  <r_i_glide_metal>  (336) 
-0

>  <r_i_glide_rewards>  (336) 
-1.52728

>  <r_i_glide_evdw>  (336) 
-22.2456

>  <r_i_glide_ecoul>  (336) 
-7.17944

>  <r_i_glide_erotb>  (336) 
0.597611

>  <r_i_glide_esite>  (336) 
-0.308859

>  <r_i_glide_emodel>  (336) 
-37.4749

>  <r_i_glide_energy>  (336) 
-29.425

>  <r_i_glide_einternal>  (336) 
2.8576

>  <r_i_glide_intrahb_reward>  (336) 
-0

>  <i_i_glide_confnum>  (336) 
5

>  <i_i_glide_posenum>  (336) 
3

>  <r_i_glide_eff_state_penalty>  (336) 
0

>  <ligand_id>  (336) 
102

>  <original_smiles>  (336) 
O=C(OC1CC2COCC(C1)N2)c1cc(C(F)(F)F)n[nH]1

>  <smiles>  (336) 
[H]c1c(C(=O)OC2([H])C([H])([H])C3([H])N([H])C([H])(C([H])([H])OC3([H])[H])C2([H])[H])n[n-]c1C(F)(F)F

$$$$
102:9:2
     RDKit          3D

 34 36  0  0  1  0  0  0  0  0999 V2000
    1.7820   -5.5085    0.0756 O   0  0  0  0  0  0  0  0  0  0  0  0
    2.6355   -5.5349    0.9628 C   0  0  0  0  0  0  0  0  0  0  0  0
    2.4682   -6.1386    2.1703 O   0  0  0  0  0  0  0  0  0  0  0  0
    1.2654   -6.8193    2.5471 C   0  0  1  0  0  0  0  0  0  0  0  0
    1.2679   -8.2641    1.9978 C   0  0  0  0  0  0  0  0  0  0  0  0
    0.2542   -9.2041    2.6958 C   0  0  2  0  0  0  0  0  0  0  0  0
   -1.2194   -8.8221    2.4438 C   0  0  0  0  0  0  0  0  0  0  0  0
   -1.4956   -7.5468    2.9955 O   0  0  0  0  0  0  0  0  0  0  0  0
   -1.2488   -7.5323    4.3857 C   0  0  0  0  0  0  0  0  0  0  0  0
    0.2209   -7.8739    4.6751 C   0  0  2  0  0  0  0  0  0  0  0  0
    1.2176   -6.8433    4.0911 C   0  0  0  0  0  0  0  0  0  0  0  0
    0.4786   -9.2181    4.1445 N   0  0  0  0  0  0  0  0  0  0  0  0
    3.9716   -4.8875    0.8632 C   0  0  0  0  0  0  0  0  0  0  0  0
    4.3718   -4.1694   -0.3320 C   0  0  0  0  0  0  0  0  0  0  0  0
    5.6665   -3.7314    0.0837 C   0  0  0  0  0  0  0  0  0  0  0  0
    6.5322   -2.8980   -0.8484 C   0  0  0  0  0  0  0  0  0  0  0  0
    6.6471   -1.6703   -0.3501 F   0  0  0  0  0  0  0  0  0  0  0  0
    7.7470   -3.4372   -0.9277 F   0  0  0  0  0  0  0  0  0  0  0  0
    6.0322   -2.8057   -2.0758 F   0  0  0  0  0  0  0  0  0  0  0  0
    5.9107   -4.1404    1.3315 N   0  0  0  0  0  0  0  0  0  0  0  0
    4.9036   -4.8490    1.8175 N   0  0  0  0  0  0  0  0  0  0  0  0
    0.3697   -6.3014    2.1948 H   0  0  0  0  0  0  0  0  0  0  0  0
    2.2567   -8.7019    2.1295 H   0  0  0  0  0  0  0  0  0  0  0  0
    1.0913   -8.2423    0.9208 H   0  0  0  0  0  0  0  0  0  0  0  0
    0.4001  -10.2029    2.2816 H   0  0  0  0  0  0  0  0  0  0  0  0
   -1.4167   -8.6956    1.3840 H   0  0  0  0  0  0  0  0  0  0  0  0
   -1.8979   -9.5986    2.8222 H   0  0  0  0  0  0  0  0  0  0  0  0
   -1.5001   -6.5262    4.7118 H   0  0  0  0  0  0  0  0  0  0  0  0
   -1.8991   -8.2501    4.8956 H   0  0  0  0  0  0  0  0  0  0  0  0
    0.3427   -7.8717    5.7599 H   0  0  0  0  0  0  0  0  0  0  0  0
    1.0145   -5.8366    4.4670 H   0  0  0  0  0  0  0  0  0  0  0  0
    2.2026   -7.1094    4.4714 H   0  0  0  0  0  0  0  0  0  0  0  0
   -0.2288   -9.8395    4.5413 H   0  0  0  0  0  0  0  0  0  0  0  0
    3.8609   -3.9909   -1.2584 H   0  0  0  0  0  0  0  0  0  0  0  0
  1  2  2  0
  2 13  1  0
  2  3  1  0
  3  4  1  0
  4 11  1  0
  4  5  1  0
  4 22  1  6
  5  6  1  0
  5 23  1  0
  5 24  1  0
  6 12  1  0
  6  7  1  0
  6 25  1  6
  7  8  1  0
  7 26  1  0
  7 27  1  0
  8  9  1  0
  9 10  1  0
  9 28  1  0
  9 29  1  0
 10 11  1  0
 10 12  1  0
 10 30  1  1
 11 31  1  0
 11 32  1  0
 12 33  1  0
 13 14  1  0
 13 21  2  0
 14 15  2  0
 14 34  1  0
 15 16  1  0
 15 20  1  0
 16 17  1  0
 16 18  1  0
 16 19  1  0
 20 21  1  0
M  CHG  1  20  -1
M  END
>  <i_m_ct_stereo_status>  (337) 
1

>  <s_m_source_file>  (337) 
/var/tmp/pbs.5076255.sched01/tmp1uy3qkd6/1269t22etaf.sdf

>  <i_m_source_file_index>  (337) 
25

>  <i_lp_mmshare_version>  (337) 
48012

>  <i_f3d_flags>  (337) 
0

>  <s_epik_input>  (337) 
RkMoRikoRiljKG5bbkhdMSlbY0hdYzFDKD1PKU9bQ0BIXShbQ0gyXVtDSF0yMylbQ0gyXVtDQEhdKFtOSF0zKVtDSDJdT1tDSDJdMg==

>  <s_epik_cmdline>  (337) 
J2VwaWtfcHl0aG9uJywgJy1waHQnLCAnMi4wJywgJy1waCcsICc3LjAnLCAnLXRuJywgJzgnLCAnLW1hJywgJzIwMCcsICctaW1hZScsICc8aW5maWxlLm1hZT4nLCAnLW9tYWUnLCAnPG91dGZpbGUubWFlPic=

>  <r_epik_Ionization_Penalty>  (337) 
3.20989

>  <r_epik_Ionization_Penalty_Charging>  (337) 
0.689587

>  <r_epik_Ionization_Penalty_Neutral>  (337) 
2.52031

>  <r_epik_State_Penalty>  (337) 
2.1621

>  <r_epik_Charging_Adjusted_Penalty>  (337) 
2.85169

>  <i_epik_Tot_Q>  (337) 
-1

>  <i_epik_Tot_abs_Q>  (337) 
1

>  <s_epik_Chemistry_Notes>  (337) 
This compound has an ester and may undergo hydrolysis at high or low pH.

>  <s_lp_Force_Field>  (337) 
OPLS3e

>  <r_lp_Energy>  (337) 
21.0414

>  <b_lp_Chiralities_Consistent>  (337) 
1

>  <s_lp_Variant>  (337) 
102:0-10

>  <s_i_glide_gridfile>  (337) 
pfpi4k_grid

>  <i_i_glide_lignum>  (337) 
25

>  <i_i_glide_rotatable_bonds>  (337) 
4

>  <r_i_docking_score>  (337) 
-3.11121

>  <r_i_glide_ligand_efficiency>  (337) 
-0.148153

>  <r_i_glide_ligand_efficiency_sa>  (337) 
-0.408742

>  <r_i_glide_ligand_efficiency_ln>  (337) 
-0.769239

>  <r_i_glide_gscore>  (337) 
-3.11121

>  <r_i_glide_lipo>  (337) 
-0.187468

>  <r_i_glide_hbond>  (337) 
-0.104926

>  <r_i_glide_metal>  (337) 
-0

>  <r_i_glide_rewards>  (337) 
-1.55047

>  <r_i_glide_evdw>  (337) 
-24.6223

>  <r_i_glide_ecoul>  (337) 
-3.6173

>  <r_i_glide_erotb>  (337) 
0.597611

>  <r_i_glide_esite>  (337) 
-0.0922452

>  <r_i_glide_emodel>  (337) 
-36.2167

>  <r_i_glide_energy>  (337) 
-28.2396

>  <r_i_glide_einternal>  (337) 
1.45948

>  <r_i_glide_intrahb_reward>  (337) 
-0

>  <i_i_glide_confnum>  (337) 
4

>  <i_i_glide_posenum>  (337) 
5

>  <r_i_glide_eff_state_penalty>  (337) 
0

>  <ligand_id>  (337) 
102

>  <original_smiles>  (337) 
O=C(OC1CC2COCC(C1)N2)c1cc(C(F)(F)F)n[nH]1

>  <smiles>  (337) 
[H]c1c(C(=O)OC2([H])C([H])([H])C3([H])N([H])C([H])(C([H])([H])OC3([H])[H])C2([H])[H])n[n-]c1C(F)(F)F

$$$$
103:0:0
     RDKit          3D

 37 38  0  0  1  0  0  0  0  0999 V2000
   -1.5213   -9.4465    2.3361 C   0  0  0  0  0  0  0  0  0  0  0  0
   -0.9388   -8.1727    2.0827 O   0  0  0  0  0  0  0  0  0  0  0  0
    0.4657   -8.0886    2.3512 C   0  0  2  0  0  0  0  0  0  0  0  0
    0.6775   -8.1535    3.8890 C   0  0  0  0  0  0  0  0  0  0  0  0
    0.9992   -6.7847    1.7123 C   0  0  0  0  0  0  0  0  0  0  0  0
    0.4262   -6.2538    0.7575 O   0  0  0  0  0  0  0  0  0  0  0  0
    2.2967   -6.1534    2.2635 C   0  0  0  0  0  0  0  0  0  0  0  0
    2.3055   -4.7078    2.3907 N   0  0  0  0  0  0  0  0  0  0  0  0
    3.0577   -3.9552    1.5412 N   0  0  0  0  0  0  0  0  0  0  0  0
    2.9628   -2.7229    1.9190 N   0  0  0  0  0  0  0  0  0  0  0  0
    2.1364   -2.6672    3.0310 C   0  0  0  0  0  0  0  0  0  0  0  0
    1.7175   -3.9112    3.3492 C   0  0  0  0  0  0  0  0  0  0  0  0
    0.8140   -4.2470    4.4800 C   0  0  0  0  0  0  0  0  0  0  0  0
    0.7421   -3.0347    5.4476 C   0  0  0  0  0  0  0  0  0  0  0  0
    0.6622   -1.7089    4.7500 N   0  0  0  0  0  0  0  0  0  0  0  0
   -0.2497   -0.7926    5.1166 C   0  0  0  0  0  0  0  0  0  0  0  0
   -0.3265    0.5522    4.3765 C   0  0  0  0  0  0  0  0  0  0  0  0
   -1.0510   -0.9761    6.0535 O   0  0  0  0  0  0  0  0  0  0  0  0
    1.7320   -1.4268    3.7423 C   0  0  0  0  0  0  0  0  0  0  0  0
   -2.5937   -9.4261    2.1386 H   0  0  0  0  0  0  0  0  0  0  0  0
   -1.4269   -9.7532    3.3707 H   0  0  0  0  0  0  0  0  0  0  0  0
   -1.0708  -10.2223    1.7185 H   0  0  0  0  0  0  0  0  0  0  0  0
    0.9592   -8.9252    1.8485 H   0  0  0  0  0  0  0  0  0  0  0  0
    1.7240   -8.1414    4.1842 H   0  0  0  0  0  0  0  0  0  0  0  0
    0.3160   -9.0747    4.3409 H   0  0  0  0  0  0  0  0  0  0  0  0
    0.1541   -7.3234    4.3654 H   0  0  0  0  0  0  0  0  0  0  0  0
    2.5537   -6.5037    3.2535 H   0  0  0  0  0  0  0  0  0  0  0  0
    3.1261   -6.4513    1.6256 H   0  0  0  0  0  0  0  0  0  0  0  0
   -0.1868   -4.4549    4.0925 H   0  0  0  0  0  0  0  0  0  0  0  0
    1.1446   -5.1476    5.0041 H   0  0  0  0  0  0  0  0  0  0  0  0
   -0.0810   -3.1972    6.1467 H   0  0  0  0  0  0  0  0  0  0  0  0
    1.6409   -3.0172    6.0625 H   0  0  0  0  0  0  0  0  0  0  0  0
    0.5964    1.1180    4.5089 H   0  0  0  0  0  0  0  0  0  0  0  0
   -1.1506    1.1637    4.7384 H   0  0  0  0  0  0  0  0  0  0  0  0
   -0.4981    0.3932    3.3119 H   0  0  0  0  0  0  0  0  0  0  0  0
    2.5881   -0.9892    4.2506 H   0  0  0  0  0  0  0  0  0  0  0  0
    1.4316   -0.7134    2.9768 H   0  0  0  0  0  0  0  0  0  0  0  0
  1  2  1  0
  1 20  1  0
  1 21  1  0
  1 22  1  0
  2  3  1  0
  3  4  1  0
  3  5  1  0
  3 23  1  6
  4 24  1  0
  4 25  1  0
  4 26  1  0
  5  6  2  0
  5  7  1  0
  7  8  1  0
  7 27  1  0
  7 28  1  0
  8 12  1  0
  8  9  1  0
  9 10  2  0
 10 11  1  0
 11 19  1  0
 11 12  2  0
 12 13  1  0
 13 14  1  0
 13 29  1  0
 13 30  1  0
 14 15  1  0
 14 31  1  0
 14 32  1  0
 15 16  1  0
 15 19  1  0
 16 17  1  0
 16 18  2  0
 17 33  1  0
 17 34  1  0
 17 35  1  0
 19 36  1  0
 19 37  1  0
M  END
>  <i_m_ct_stereo_status>  (338) 
1

>  <s_m_source_file>  (338) 
/var/tmp/pbs.5076255.sched01/tmp1uy3qkd6/1269t22etaf.sdf

>  <i_m_source_file_index>  (338) 
26

>  <i_lp_mmshare_version>  (338) 
48012

>  <i_f3d_flags>  (338) 
0

>  <s_epik_input>  (338) 
W0NIM11PW0NASF0oW0NIM10pQyg9TylbQ0gyXW4obm4xKWMoYzEyKVtDSDJdW0NIMl1OKFtDSDJdMilDKD1PKVtDSDNd

>  <s_epik_cmdline>  (338) 
J2VwaWtfcHl0aG9uJywgJy1waHQnLCAnMi4wJywgJy1waCcsICc3LjAnLCAnLXRuJywgJzgnLCAnLW1hJywgJzIwMCcsICctaW1hZScsICc8aW5maWxlLm1hZT4nLCAnLW9tYWUnLCAnPG91dGZpbGUubWFlPic=

>  <r_lp_tautomer_probability>  (338) 
1

>  <r_epik_Ionization_Penalty>  (338) 
4.87521e-05

>  <r_epik_Ionization_Penalty_Charging>  (338) 
0

>  <r_epik_Ionization_Penalty_Neutral>  (338) 
4.87521e-05

>  <r_epik_State_Penalty>  (338) 
-0

>  <r_epik_Charging_Adjusted_Penalty>  (338) 
0

>  <i_epik_Tot_Q>  (338) 
0

>  <i_epik_Tot_abs_Q>  (338) 
0

>  <s_lp_Force_Field>  (338) 
OPLS3e

>  <r_lp_Energy>  (338) 
16.1149

>  <b_lp_Chiralities_Consistent>  (338) 
1

>  <s_lp_Variant>  (338) 
103:0-1

>  <s_i_glide_gridfile>  (338) 
pfpi4k_grid

>  <i_i_glide_lignum>  (338) 
26

>  <i_i_glide_rotatable_bonds>  (338) 
5

>  <r_i_docking_score>  (338) 
-3.39037

>  <r_i_glide_ligand_efficiency>  (338) 
-0.178441

>  <r_i_glide_ligand_efficiency_sa>  (338) 
-0.476151

>  <r_i_glide_ligand_efficiency_ln>  (338) 
-0.859532

>  <r_i_glide_gscore>  (338) 
-3.39037

>  <r_i_glide_lipo>  (338) 
-0.286342

>  <r_i_glide_hbond>  (338) 
-0.17488

>  <r_i_glide_metal>  (338) 
-0

>  <r_i_glide_rewards>  (338) 
-1.59343

>  <r_i_glide_evdw>  (338) 
-18.8349

>  <r_i_glide_ecoul>  (338) 
-6.94513

>  <r_i_glide_erotb>  (338) 
0.753511

>  <r_i_glide_esite>  (338) 
-0.105714

>  <r_i_glide_emodel>  (338) 
-31.1155

>  <r_i_glide_energy>  (338) 
-25.78

>  <r_i_glide_einternal>  (338) 
2.56846

>  <r_i_glide_intrahb_reward>  (338) 
-0

>  <i_i_glide_confnum>  (338) 
4

>  <i_i_glide_posenum>  (338) 
4

>  <r_i_glide_eff_state_penalty>  (338) 
0

>  <ligand_id>  (338) 
103

>  <original_smiles>  (338) 
COC(C)C(=O)Cn1nnc2c1CCN(C(C)=O)C2

>  <smiles>  (338) 
[H]C([H])([H])OC([H])(C(=O)C([H])([H])n1nnc2c1C([H])([H])C([H])([H])N(C(=O)C([H])([H])[H])C2([H])[H])C([H])([H])[H]

$$$$
103:0:1
     RDKit          3D

 37 38  0  0  1  0  0  0  0  0999 V2000
    0.2123   -9.6506    7.5827 C   0  0  0  0  0  0  0  0  0  0  0  0
   -0.1697   -8.8296    6.4821 O   0  0  0  0  0  0  0  0  0  0  0  0
    0.1731   -9.3792    5.2110 C   0  0  2  0  0  0  0  0  0  0  0  0
    1.6874   -9.4263    5.0432 C   0  0  0  0  0  0  0  0  0  0  0  0
   -0.4782   -8.5318    4.0699 C   0  0  0  0  0  0  0  0  0  0  0  0
   -1.3565   -7.6821    4.2686 O   0  0  0  0  0  0  0  0  0  0  0  0
   -0.0243   -8.8138    2.6135 C   0  0  0  0  0  0  0  0  0  0  0  0
    0.9470   -7.8741    2.0364 N   0  0  0  0  0  0  0  0  0  0  0  0
    0.5064   -6.6767    1.5411 N   0  0  0  0  0  0  0  0  0  0  0  0
    1.5325   -6.0396    1.0831 N   0  0  0  0  0  0  0  0  0  0  0  0
    2.6706   -6.8143    1.2907 C   0  0  0  0  0  0  0  0  0  0  0  0
    2.3016   -7.9855    1.8570 C   0  0  0  0  0  0  0  0  0  0  0  0
    3.2607   -9.0639    2.1950 C   0  0  0  0  0  0  0  0  0  0  0  0
    4.5611   -8.9182    1.3900 C   0  0  0  0  0  0  0  0  0  0  0  0
    5.0538   -7.5085    1.3649 N   0  0  0  0  0  0  0  0  0  0  0  0
    6.3298   -7.1575    1.6434 C   0  0  0  0  0  0  0  0  0  0  0  0
    7.3626   -8.2526    1.9585 C   0  0  0  0  0  0  0  0  0  0  0  0
    6.7211   -5.9912    1.5838 O   0  0  0  0  0  0  0  0  0  0  0  0
    4.0784   -6.4664    0.9058 C   0  0  0  0  0  0  0  0  0  0  0  0
   -0.1135   -9.1751    8.5155 H   0  0  0  0  0  0  0  0  0  0  0  0
    1.2956   -9.7715    7.6720 H   0  0  0  0  0  0  0  0  0  0  0  0
   -0.2378  -10.6441    7.4937 H   0  0  0  0  0  0  0  0  0  0  0  0
   -0.1827  -10.4032    5.1246 H   0  0  0  0  0  0  0  0  0  0  0  0
    1.8773   -9.9104    4.1015 H   0  0  0  0  0  0  0  0  0  0  0  0
    2.2282  -10.0174    5.7828 H   0  0  0  0  0  0  0  0  0  0  0  0
    2.0854   -8.4126    5.0449 H   0  0  0  0  0  0  0  0  0  0  0  0
    0.3622   -9.8377    2.5307 H   0  0  0  0  0  0  0  0  0  0  0  0
   -0.9103   -8.7907    1.9753 H   0  0  0  0  0  0  0  0  0  0  0  0
    3.5571   -8.9544    3.2359 H   0  0  0  0  0  0  0  0  0  0  0  0
    2.8380  -10.0615    2.0679 H   0  0  0  0  0  0  0  0  0  0  0  0
    5.2359   -9.6173    1.8875 H   0  0  0  0  0  0  0  0  0  0  0  0
    4.4290   -9.2668    0.3576 H   0  0  0  0  0  0  0  0  0  0  0  0
    7.1550   -8.7125    2.9179 H   0  0  0  0  0  0  0  0  0  0  0  0
    8.3629   -7.8351    2.0058 H   0  0  0  0  0  0  0  0  0  0  0  0
    7.3752   -9.0214    1.1888 H   0  0  0  0  0  0  0  0  0  0  0  0
    4.1597   -6.4150   -0.1801 H   0  0  0  0  0  0  0  0  0  0  0  0
    4.3145   -5.4605    1.2803 H   0  0  0  0  0  0  0  0  0  0  0  0
  1  2  1  0
  1 20  1  0
  1 21  1  0
  1 22  1  0
  2  3  1  0
  3  4  1  0
  3  5  1  0
  3 23  1  1
  4 24  1  0
  4 25  1  0
  4 26  1  0
  5  6  2  0
  5  7  1  0
  7  8  1  0
  7 27  1  0
  7 28  1  0
  8 12  1  0
  8  9  1  0
  9 10  2  0
 10 11  1  0
 11 19  1  0
 11 12  2  0
 12 13  1  0
 13 14  1  0
 13 29  1  0
 13 30  1  0
 14 15  1  0
 14 31  1  0
 14 32  1  0
 15 16  1  0
 15 19  1  0
 16 17  1  0
 16 18  2  0
 17 33  1  0
 17 34  1  0
 17 35  1  0
 19 36  1  0
 19 37  1  0
M  END
>  <i_m_ct_stereo_status>  (339) 
1

>  <s_m_source_file>  (339) 
/var/tmp/pbs.5076255.sched01/tmp1uy3qkd6/1269t22etaf.sdf

>  <i_m_source_file_index>  (339) 
26

>  <i_lp_mmshare_version>  (339) 
48012

>  <i_f3d_flags>  (339) 
0

>  <s_epik_input>  (339) 
W0NIM11PW0NASF0oW0NIM10pQyg9TylbQ0gyXW4obm4xKWMoYzEyKVtDSDJdW0NIMl1OKFtDSDJdMilDKD1PKVtDSDNd

>  <s_epik_cmdline>  (339) 
J2VwaWtfcHl0aG9uJywgJy1waHQnLCAnMi4wJywgJy1waCcsICc3LjAnLCAnLXRuJywgJzgnLCAnLW1hJywgJzIwMCcsICctaW1hZScsICc8aW5maWxlLm1hZT4nLCAnLW9tYWUnLCAnPG91dGZpbGUubWFlPic=

>  <r_lp_tautomer_probability>  (339) 
1

>  <r_epik_Ionization_Penalty>  (339) 
4.87521e-05

>  <r_epik_Ionization_Penalty_Charging>  (339) 
0

>  <r_epik_Ionization_Penalty_Neutral>  (339) 
4.87521e-05

>  <r_epik_State_Penalty>  (339) 
-0

>  <r_epik_Charging_Adjusted_Penalty>  (339) 
0

>  <i_epik_Tot_Q>  (339) 
0

>  <i_epik_Tot_abs_Q>  (339) 
0

>  <s_lp_Force_Field>  (339) 
OPLS3e

>  <r_lp_Energy>  (339) 
16.1149

>  <b_lp_Chiralities_Consistent>  (339) 
1

>  <s_lp_Variant>  (339) 
103:0-1

>  <s_i_glide_gridfile>  (339) 
pfpi4k_grid

>  <i_i_glide_lignum>  (339) 
26

>  <i_i_glide_rotatable_bonds>  (339) 
5

>  <r_i_docking_score>  (339) 
-3.34205

>  <r_i_glide_ligand_efficiency>  (339) 
-0.175898

>  <r_i_glide_ligand_efficiency_sa>  (339) 
-0.469365

>  <r_i_glide_ligand_efficiency_ln>  (339) 
-0.847282

>  <r_i_glide_gscore>  (339) 
-3.34205

>  <r_i_glide_lipo>  (339) 
-0.153325

>  <r_i_glide_hbond>  (339) 
0

>  <r_i_glide_metal>  (339) 
-0

>  <r_i_glide_rewards>  (339) 
-1.82725

>  <r_i_glide_evdw>  (339) 
-23.3974

>  <r_i_glide_ecoul>  (339) 
-4.41096

>  <r_i_glide_erotb>  (339) 
0.753511

>  <r_i_glide_esite>  (339) 
-0.283478

>  <r_i_glide_emodel>  (339) 
-32.6392

>  <r_i_glide_energy>  (339) 
-27.8084

>  <r_i_glide_einternal>  (339) 
2.02529

>  <r_i_glide_intrahb_reward>  (339) 
-0

>  <i_i_glide_confnum>  (339) 
5

>  <i_i_glide_posenum>  (339) 
25

>  <r_i_glide_eff_state_penalty>  (339) 
0

>  <ligand_id>  (339) 
103

>  <original_smiles>  (339) 
COC(C)C(=O)Cn1nnc2c1CCN(C(C)=O)C2

>  <smiles>  (339) 
[H]C([H])([H])OC([H])(C(=O)C([H])([H])n1nnc2c1C([H])([H])C([H])([H])N(C(=O)C([H])([H])[H])C2([H])[H])C([H])([H])[H]

$$$$
103:0:2
     RDKit          3D

 37 38  0  0  1  0  0  0  0  0999 V2000
    4.6448   -4.2639   -4.1659 C   0  0  0  0  0  0  0  0  0  0  0  0
    5.3274   -3.4627   -3.2067 O   0  0  0  0  0  0  0  0  0  0  0  0
    4.7374   -3.4770   -1.9074 C   0  0  2  0  0  0  0  0  0  0  0  0
    3.3881   -2.7436   -1.9509 C   0  0  0  0  0  0  0  0  0  0  0  0
    5.6842   -2.7919   -0.8944 C   0  0  0  0  0  0  0  0  0  0  0  0
    6.6052   -2.0507   -1.2524 O   0  0  0  0  0  0  0  0  0  0  0  0
    5.4519   -3.0841    0.5979 C   0  0  0  0  0  0  0  0  0  0  0  0
    5.1382   -1.9462    1.4487 N   0  0  0  0  0  0  0  0  0  0  0  0
    6.1372   -1.1984    1.9931 N   0  0  0  0  0  0  0  0  0  0  0  0
    5.5969   -0.2937    2.7514 N   0  0  0  0  0  0  0  0  0  0  0  0
    4.2178   -0.4355    2.6865 C   0  0  0  0  0  0  0  0  0  0  0  0
    3.9167   -1.4743    1.8834 C   0  0  0  0  0  0  0  0  0  0  0  0
    2.5465   -1.9276    1.5817 C   0  0  0  0  0  0  0  0  0  0  0  0
    1.5607   -1.3321    2.6104 C   0  0  0  0  0  0  0  0  0  0  0  0
    1.8326    0.1016    2.9172 N   0  0  0  0  0  0  0  0  0  0  0  0
    0.8292    1.0127    2.9294 C   0  0  0  0  0  0  0  0  0  0  0  0
    1.1702    2.5007    3.0768 C   0  0  0  0  0  0  0  0  0  0  0  0
   -0.3558    0.6957    2.8070 O   0  0  0  0  0  0  0  0  0  0  0  0
    3.2102    0.4310    3.3674 C   0  0  0  0  0  0  0  0  0  0  0  0
    5.1660   -4.2179   -5.1204 H   0  0  0  0  0  0  0  0  0  0  0  0
    3.6201   -3.9423   -4.3398 H   0  0  0  0  0  0  0  0  0  0  0  0
    4.6208   -5.3124   -3.8795 H   0  0  0  0  0  0  0  0  0  0  0  0
    4.6047   -4.5124   -1.5845 H   0  0  0  0  0  0  0  0  0  0  0  0
    2.9412   -2.7129   -0.9690 H   0  0  0  0  0  0  0  0  0  0  0  0
    2.6502   -3.2398   -2.5733 H   0  0  0  0  0  0  0  0  0  0  0  0
    3.5083   -1.7238   -2.3148 H   0  0  0  0  0  0  0  0  0  0  0  0
    4.6551   -3.8223    0.6990 H   0  0  0  0  0  0  0  0  0  0  0  0
    6.3553   -3.5551    0.9934 H   0  0  0  0  0  0  0  0  0  0  0  0
    2.2651   -1.5359    0.6124 H   0  0  0  0  0  0  0  0  0  0  0  0
    2.4837   -3.0133    1.5444 H   0  0  0  0  0  0  0  0  0  0  0  0
    0.5598   -1.4842    2.2147 H   0  0  0  0  0  0  0  0  0  0  0  0
    1.6154   -1.8984    3.5420 H   0  0  0  0  0  0  0  0  0  0  0  0
    1.6015    2.7014    4.0550 H   0  0  0  0  0  0  0  0  0  0  0  0
    0.2844    3.1237    2.9603 H   0  0  0  0  0  0  0  0  0  0  0  0
    1.8761    2.8042    2.3045 H   0  0  0  0  0  0  0  0  0  0  0  0
    3.2639    0.2826    4.4453 H   0  0  0  0  0  0  0  0  0  0  0  0
    3.4846    1.4696    3.1840 H   0  0  0  0  0  0  0  0  0  0  0  0
  1  2  1  0
  1 20  1  0
  1 21  1  0
  1 22  1  0
  2  3  1  0
  3  4  1  0
  3  5  1  0
  3 23  1  1
  4 24  1  0
  4 25  1  0
  4 26  1  0
  5  6  2  0
  5  7  1  0
  7  8  1  0
  7 27  1  0
  7 28  1  0
  8 12  1  0
  8  9  1  0
  9 10  2  0
 10 11  1  0
 11 19  1  0
 11 12  2  0
 12 13  1  0
 13 14  1  0
 13 29  1  0
 13 30  1  0
 14 15  1  0
 14 31  1  0
 14 32  1  0
 15 16  1  0
 15 19  1  0
 16 17  1  0
 16 18  2  0
 17 33  1  0
 17 34  1  0
 17 35  1  0
 19 36  1  0
 19 37  1  0
M  END
>  <i_m_ct_stereo_status>  (340) 
1

>  <s_m_source_file>  (340) 
/var/tmp/pbs.5076255.sched01/tmp1uy3qkd6/1269t22etaf.sdf

>  <i_m_source_file_index>  (340) 
26

>  <i_lp_mmshare_version>  (340) 
48012

>  <i_f3d_flags>  (340) 
0

>  <s_epik_input>  (340) 
W0NIM11PW0NASF0oW0NIM10pQyg9TylbQ0gyXW4obm4xKWMoYzEyKVtDSDJdW0NIMl1OKFtDSDJdMilDKD1PKVtDSDNd

>  <s_epik_cmdline>  (340) 
J2VwaWtfcHl0aG9uJywgJy1waHQnLCAnMi4wJywgJy1waCcsICc3LjAnLCAnLXRuJywgJzgnLCAnLW1hJywgJzIwMCcsICctaW1hZScsICc8aW5maWxlLm1hZT4nLCAnLW9tYWUnLCAnPG91dGZpbGUubWFlPic=

>  <r_lp_tautomer_probability>  (340) 
1

>  <r_epik_Ionization_Penalty>  (340) 
4.87521e-05

>  <r_epik_Ionization_Penalty_Charging>  (340) 
0

>  <r_epik_Ionization_Penalty_Neutral>  (340) 
4.87521e-05

>  <r_epik_State_Penalty>  (340) 
-0

>  <r_epik_Charging_Adjusted_Penalty>  (340) 
0

>  <i_epik_Tot_Q>  (340) 
0

>  <i_epik_Tot_abs_Q>  (340) 
0

>  <s_lp_Force_Field>  (340) 
OPLS3e

>  <r_lp_Energy>  (340) 
16.1149

>  <b_lp_Chiralities_Consistent>  (340) 
1

>  <s_lp_Variant>  (340) 
103:0-1

>  <s_i_glide_gridfile>  (340) 
pfpi4k_grid

>  <i_i_glide_lignum>  (340) 
26

>  <i_i_glide_rotatable_bonds>  (340) 
5

>  <r_i_docking_score>  (340) 
-3.07662

>  <r_i_glide_ligand_efficiency>  (340) 
-0.161927

>  <r_i_glide_ligand_efficiency_sa>  (340) 
-0.432087

>  <r_i_glide_ligand_efficiency_ln>  (340) 
-0.779989

>  <r_i_glide_gscore>  (340) 
-3.07662

>  <r_i_glide_lipo>  (340) 
-0.123451

>  <r_i_glide_hbond>  (340) 
-0.16

>  <r_i_glide_metal>  (340) 
-0

>  <r_i_glide_rewards>  (340) 
-1.68007

>  <r_i_glide_evdw>  (340) 
-22.7412

>  <r_i_glide_ecoul>  (340) 
-4.54646

>  <r_i_glide_erotb>  (340) 
0.753511

>  <r_i_glide_esite>  (340) 
-0.0475827

>  <r_i_glide_emodel>  (340) 
-31.9916

>  <r_i_glide_energy>  (340) 
-27.2877

>  <r_i_glide_einternal>  (340) 
2.39684

>  <r_i_glide_intrahb_reward>  (340) 
-0

>  <i_i_glide_confnum>  (340) 
4

>  <i_i_glide_posenum>  (340) 
7

>  <r_i_glide_eff_state_penalty>  (340) 
0

>  <ligand_id>  (340) 
103

>  <original_smiles>  (340) 
COC(C)C(=O)Cn1nnc2c1CCN(C(C)=O)C2

>  <smiles>  (340) 
[H]C([H])([H])OC([H])(C(=O)C([H])([H])n1nnc2c1C([H])([H])C([H])([H])N(C(=O)C([H])([H])[H])C2([H])[H])C([H])([H])[H]

$$$$
106:0:0
     RDKit          3D

 47 51  0  0  1  0  0  0  0  0999 V2000
    5.3329   -8.8173    7.0143 C   0  0  0  0  0  0  0  0  0  0  0  0
    3.8389   -9.0751    6.7657 C   0  0  0  0  0  0  0  0  0  0  0  0
    3.0842   -9.1360    8.1015 C   0  0  0  0  0  0  0  0  0  0  0  0
    3.2620   -7.9843    5.8714 C   0  0  0  0  0  0  0  0  0  0  0  0
    2.7936   -8.4527    4.7139 C   0  0  0  0  0  0  0  0  0  0  0  0
    2.9899   -9.8745    4.6598 C   0  0  0  0  0  0  0  0  0  0  0  0
    2.6087  -10.5504    3.5567 C   0  0  0  0  0  0  0  0  0  0  0  0
    2.0042   -9.7607    2.3939 C   0  0  2  0  0  0  0  0  0  0  0  0
    2.6714   -8.4810    2.3543 O   0  0  0  0  0  0  0  0  0  0  0  0
    2.1873   -7.7460    3.5065 C   0  0  2  0  0  0  0  0  0  0  0  0
    2.4855   -6.2267    3.3608 C   0  0  0  0  0  0  0  0  0  0  0  0
    3.6912   -5.9188    2.4730 C   0  0  0  0  0  0  0  0  0  0  0  0
    4.9607   -5.7264    3.0611 C   0  0  0  0  0  0  0  0  0  0  0  0
    6.0856   -5.4550    2.2562 C   0  0  0  0  0  0  0  0  0  0  0  0
    5.9502   -5.3761    0.8552 C   0  0  0  0  0  0  0  0  0  0  0  0
    4.6886   -5.5778    0.2608 C   0  0  0  0  0  0  0  0  0  0  0  0
    3.5621   -5.8491    1.0656 C   0  0  0  0  0  0  0  0  0  0  0  0
    0.7248   -8.1749    3.4811 C   0  0  0  0  0  0  0  0  0  0  0  0
    0.6373   -9.3195    2.8276 C   0  0  0  0  0  0  0  0  0  0  0  0
   -0.5070   -9.9767    2.4465 O   0  0  0  0  0  0  0  0  0  0  0  0
   -1.6921   -9.1718    2.5085 C   0  0  0  0  0  0  0  0  0  0  0  0
   -1.7746   -8.2647    3.7650 C   0  0  0  0  0  0  0  0  0  0  0  0
   -0.4673   -7.5024    3.9987 C   0  0  0  0  0  0  0  0  0  0  0  0
   -0.4634   -6.4461    4.6227 O   0  0  0  0  0  0  0  0  0  0  0  0
    3.6223  -10.3802    5.9300 C   0  0  0  0  0  0  0  0  0  0  0  0
    5.7775   -9.6127    7.6112 H   0  0  0  0  0  0  0  0  0  0  0  0
    5.4914   -7.8803    7.5518 H   0  0  0  0  0  0  0  0  0  0  0  0
    5.8922   -8.7584    6.0801 H   0  0  0  0  0  0  0  0  0  0  0  0
    3.4535   -9.9518    8.7254 H   0  0  0  0  0  0  0  0  0  0  0  0
    2.0189   -9.3054    7.9479 H   0  0  0  0  0  0  0  0  0  0  0  0
    3.1966   -8.2098    8.6650 H   0  0  0  0  0  0  0  0  0  0  0  0
    3.2616   -6.9449    6.1594 H   0  0  0  0  0  0  0  0  0  0  0  0
    2.7004  -11.6246    3.4669 H   0  0  0  0  0  0  0  0  0  0  0  0
    2.0499  -10.2582    1.4306 H   0  0  0  0  0  0  0  0  0  0  0  0
    1.6370   -5.7214    2.8926 H   0  0  0  0  0  0  0  0  0  0  0  0
    2.5921   -5.7445    4.3330 H   0  0  0  0  0  0  0  0  0  0  0  0
    5.0720   -5.7934    4.1292 H   0  0  0  0  0  0  0  0  0  0  0  0
    7.0511   -5.3025    2.7134 H   0  0  0  0  0  0  0  0  0  0  0  0
    6.8107   -5.1664    0.2407 H   0  0  0  0  0  0  0  0  0  0  0  0
    4.5885   -5.5249   -0.8133 H   0  0  0  0  0  0  0  0  0  0  0  0
    2.6057   -6.0175    0.5985 H   0  0  0  0  0  0  0  0  0  0  0  0
   -1.7569   -8.5636    1.6036 H   0  0  0  0  0  0  0  0  0  0  0  0
   -2.5570   -9.8345    2.4885 H   0  0  0  0  0  0  0  0  0  0  0  0
   -2.5918   -7.5498    3.6560 H   0  0  0  0  0  0  0  0  0  0  0  0
   -1.9873   -8.8620    4.6523 H   0  0  0  0  0  0  0  0  0  0  0  0
    4.5520  -10.8939    5.6996 H   0  0  0  0  0  0  0  0  0  0  0  0
    2.9492  -11.0804    6.4221 H   0  0  0  0  0  0  0  0  0  0  0  0
  1  2  1  0
  1 26  1  0
  1 27  1  0
  1 28  1  0
  2 25  1  0
  2  3  1  0
  2  4  1  0
  3 29  1  0
  3 30  1  0
  3 31  1  0
  4  5  2  0
  4 32  1  0
  5 10  1  0
  5  6  1  0
  6  7  2  0
  6 25  1  0
  7  8  1  0
  7 33  1  0
  8 19  1  0
  8  9  1  0
  8 34  1  6
  9 10  1  0
 10 11  1  6
 10 18  1  0
 11 12  1  0
 11 35  1  0
 11 36  1  0
 12 17  1  0
 12 13  2  0
 13 14  1  0
 13 37  1  0
 14 15  2  0
 14 38  1  0
 15 16  1  0
 15 39  1  0
 16 17  2  0
 16 40  1  0
 17 41  1  0
 18 23  1  0
 18 19  2  0
 19 20  1  0
 20 21  1  0
 21 22  1  0
 21 42  1  0
 21 43  1  0
 22 23  1  0
 22 44  1  0
 22 45  1  0
 23 24  2  0
 25 46  1  0
 25 47  1  0
M  END
>  <i_m_ct_stereo_status>  (341) 
1

>  <s_m_source_file>  (341) 
/var/tmp/pbs.5076255.sched01/tmp1uy3qkd6/1269t22etaf.sdf

>  <i_m_source_file_index>  (341) 
29

>  <i_lp_mmshare_version>  (341) 
48012

>  <i_f3d_flags>  (341) 
0

>  <s_epik_input>  (341) 
TzFbQ0gyXVtDSDJdQyg9TylDMj1DMVtDQEBIXShPMylbQ0hdPUMoW0NIMl1DKFtDSDNdKShbQ0gzXSlbQ0hdPTQpQzRbQ0BdMjNbQ0gyXWM1W2NIXVtjSF1bY0hdW2NIXVtjSF01

>  <s_epik_cmdline>  (341) 
J2VwaWtfcHl0aG9uJywgJy1waHQnLCAnMi4wJywgJy1waCcsICc3LjAnLCAnLXRuJywgJzgnLCAnLW1hJywgJzIwMCcsICctaW1hZScsICc8aW5maWxlLm1hZT4nLCAnLW9tYWUnLCAnPG91dGZpbGUubWFlPic=

>  <r_lp_tautomer_probability>  (341) 
1

>  <r_epik_Ionization_Penalty>  (341) 
0

>  <r_epik_Ionization_Penalty_Charging>  (341) 
0

>  <r_epik_Ionization_Penalty_Neutral>  (341) 
0

>  <r_epik_State_Penalty>  (341) 
-0

>  <r_epik_Charging_Adjusted_Penalty>  (341) 
0

>  <i_epik_Tot_Q>  (341) 
0

>  <i_epik_Tot_abs_Q>  (341) 
0

>  <s_lp_Force_Field>  (341) 
OPLS3e

>  <r_lp_Energy>  (341) 
15.6217

>  <b_lp_Chiralities_Consistent>  (341) 
1

>  <s_lp_Variant>  (341) 
106:0-1

>  <s_i_glide_gridfile>  (341) 
pfpi4k_grid

>  <i_i_glide_lignum>  (341) 
29

>  <i_i_glide_rotatable_bonds>  (341) 
2

>  <r_i_docking_score>  (341) 
-2.57393

>  <r_i_glide_ligand_efficiency>  (341) 
-0.102957

>  <r_i_glide_ligand_efficiency_sa>  (341) 
-0.301049

>  <r_i_glide_ligand_efficiency_ln>  (341) 
-0.610099

>  <r_i_glide_gscore>  (341) 
-2.57393

>  <r_i_glide_lipo>  (341) 
-0.534659

>  <r_i_glide_hbond>  (341) 
0

>  <r_i_glide_metal>  (341) 
-0

>  <r_i_glide_rewards>  (341) 
-1.12903

>  <r_i_glide_evdw>  (341) 
-22.5456

>  <r_i_glide_ecoul>  (341) 
-0.485394

>  <r_i_glide_erotb>  (341) 
0.337304

>  <r_i_glide_esite>  (341) 
-0.0474508

>  <r_i_glide_emodel>  (341) 
-26.6728

>  <r_i_glide_energy>  (341) 
-23.031

>  <r_i_glide_einternal>  (341) 
0.00344543

>  <r_i_glide_intrahb_reward>  (341) 
-0

>  <i_i_glide_confnum>  (341) 
5

>  <i_i_glide_posenum>  (341) 
2

>  <r_i_glide_eff_state_penalty>  (341) 
0

>  <ligand_id>  (341) 
106

>  <original_smiles>  (341) 
CC1(C)C=C2C(=CC3OC2(Cc2ccccc2)C2=C3OCCC2=O)C1

>  <smiles>  (341) 
[H]C1=C2C(=C([H])C(C([H])([H])[H])(C([H])([H])[H])C2([H])[H])C2(C([H])([H])c3c([H])c([H])c([H])c([H])c3[H])OC1([H])C1=C2C(=O)C([H])([H])C([H])([H])O1

$$$$
106:0:1
     RDKit          3D

 47 51  0  0  1  0  0  0  0  0999 V2000
    5.2016   -8.7376    7.1893 C   0  0  0  0  0  0  0  0  0  0  0  0
    3.7211   -9.0422    6.9137 C   0  0  0  0  0  0  0  0  0  0  0  0
    2.9307   -9.1589    8.2190 C   0  0  0  0  0  0  0  0  0  0  0  0
    3.0866   -7.9416    6.0547 C   0  0  0  0  0  0  0  0  0  0  0  0
    2.6430   -8.4131    4.8847 C   0  0  0  0  0  0  0  0  0  0  0  0
    2.8666   -9.8224    4.8005 C   0  0  0  0  0  0  0  0  0  0  0  0
    2.5413  -10.4916    3.6752 C   0  0  0  0  0  0  0  0  0  0  0  0
    1.9411   -9.6827    2.5243 C   0  0  2  0  0  0  0  0  0  0  0  0
    2.5953   -8.4406    2.6012 O   0  0  0  0  0  0  0  0  0  0  0  0
    2.0568   -7.6842    3.6760 C   0  0  2  0  0  0  0  0  0  0  0  0
    2.3610   -6.1530    3.4893 C   0  0  0  0  0  0  0  0  0  0  0  0
    3.2521   -5.7268    2.3037 C   0  0  0  0  0  0  0  0  0  0  0  0
    3.7628   -4.4072    2.2888 C   0  0  0  0  0  0  0  0  0  0  0  0
    4.5913   -3.9927    1.2201 C   0  0  0  0  0  0  0  0  0  0  0  0
    4.9531   -4.8759    0.1733 C   0  0  0  0  0  0  0  0  0  0  0  0
    4.4388   -6.1805    0.1988 C   0  0  0  0  0  0  0  0  0  0  0  0
    3.5831   -6.5631    1.1958 C   0  0  0  0  0  0  0  0  0  0  0  0
    0.6037   -8.1281    3.5720 C   0  0  0  0  0  0  0  0  0  0  0  0
    0.5513   -9.2661    2.8830 C   0  0  0  0  0  0  0  0  0  0  0  0
   -0.5596   -9.9348    2.4644 O   0  0  0  0  0  0  0  0  0  0  0  0
   -1.7629   -9.1464    2.5016 C   0  0  0  0  0  0  0  0  0  0  0  0
   -1.9044   -8.2781    3.7784 C   0  0  0  0  0  0  0  0  0  0  0  0
   -0.6135   -7.4987    4.0771 C   0  0  0  0  0  0  0  0  0  0  0  0
   -0.6355   -6.4899    4.8089 O   0  0  0  0  0  0  0  0  0  0  0  0
    3.5703  -10.3304    6.0492 C   0  0  0  0  0  0  0  0  0  0  0  0
    5.6557   -9.5419    7.7659 H   0  0  0  0  0  0  0  0  0  0  0  0
    5.3159   -7.8130    7.7532 H   0  0  0  0  0  0  0  0  0  0  0  0
    5.7691   -8.6331    6.2614 H   0  0  0  0  0  0  0  0  0  0  0  0
    3.3041   -9.9833    8.8202 H   0  0  0  0  0  0  0  0  0  0  0  0
    1.8725   -9.3510    8.0249 H   0  0  0  0  0  0  0  0  0  0  0  0
    2.9988   -8.2488    8.8062 H   0  0  0  0  0  0  0  0  0  0  0  0
    3.0792   -6.9019    6.3811 H   0  0  0  0  0  0  0  0  0  0  0  0
    2.7092  -11.5584    3.5262 H   0  0  0  0  0  0  0  0  0  0  0  0
    2.0759  -10.0901    1.5457 H   0  0  0  0  0  0  0  0  0  0  0  0
    1.4188   -5.5858    3.4109 H   0  0  0  0  0  0  0  0  0  0  0  0
    2.7948   -5.7561    4.4288 H   0  0  0  0  0  0  0  0  0  0  0  0
    3.5126   -3.6893    3.0735 H   0  0  0  0  0  0  0  0  0  0  0  0
    4.9784   -2.9642    1.1768 H   0  0  0  0  0  0  0  0  0  0  0  0
    5.5821   -4.5911   -0.6634 H   0  0  0  0  0  0  0  0  0  0  0  0
    4.6469   -6.9034   -0.5656 H   0  0  0  0  0  0  0  0  0  0  0  0
    3.2494   -7.5425    0.9628 H   0  0  0  0  0  0  0  0  0  0  0  0
   -1.7916   -8.5299    1.6014 H   0  0  0  0  0  0  0  0  0  0  0  0
   -2.5958   -9.8411    2.4435 H   0  0  0  0  0  0  0  0  0  0  0  0
   -2.7365   -7.5806    3.6766 H   0  0  0  0  0  0  0  0  0  0  0  0
   -2.0861   -8.9202    4.6365 H   0  0  0  0  0  0  0  0  0  0  0  0
    4.5147  -10.8050    5.7992 H   0  0  0  0  0  0  0  0  0  0  0  0
    2.8998  -11.0587    6.4786 H   0  0  0  0  0  0  0  0  0  0  0  0
  1  2  1  0
  1 26  1  0
  1 27  1  0
  1 28  1  0
  2 25  1  0
  2  3  1  0
  2  4  1  0
  3 29  1  0
  3 30  1  0
  3 31  1  0
  4  5  2  0
  4 32  1  0
  5 10  1  0
  5  6  1  0
  6  7  2  0
  6 25  1  0
  7  8  1  0
  7 33  1  0
  8 19  1  0
  8  9  1  0
  8 34  1  6
  9 10  1  0
 10 11  1  6
 10 18  1  0
 11 12  1  0
 11 35  1  0
 11 36  1  0
 12 17  1  0
 12 13  2  0
 13 14  1  0
 13 37  1  0
 14 15  2  0
 14 38  1  0
 15 16  1  0
 15 39  1  0
 16 17  2  0
 16 40  1  0
 17 41  1  0
 18 23  1  0
 18 19  2  0
 19 20  1  0
 20 21  1  0
 21 22  1  0
 21 42  1  0
 21 43  1  0
 22 23  1  0
 22 44  1  0
 22 45  1  0
 23 24  2  0
 25 46  1  0
 25 47  1  0
M  END
>  <i_m_ct_stereo_status>  (342) 
1

>  <s_m_source_file>  (342) 
/var/tmp/pbs.5076255.sched01/tmp1uy3qkd6/1269t22etaf.sdf

>  <i_m_source_file_index>  (342) 
29

>  <i_lp_mmshare_version>  (342) 
48012

>  <i_f3d_flags>  (342) 
0

>  <s_epik_input>  (342) 
TzFbQ0gyXVtDSDJdQyg9TylDMj1DMVtDQEBIXShPMylbQ0hdPUMoW0NIMl1DKFtDSDNdKShbQ0gzXSlbQ0hdPTQpQzRbQ0BdMjNbQ0gyXWM1W2NIXVtjSF1bY0hdW2NIXVtjSF01

>  <s_epik_cmdline>  (342) 
J2VwaWtfcHl0aG9uJywgJy1waHQnLCAnMi4wJywgJy1waCcsICc3LjAnLCAnLXRuJywgJzgnLCAnLW1hJywgJzIwMCcsICctaW1hZScsICc8aW5maWxlLm1hZT4nLCAnLW9tYWUnLCAnPG91dGZpbGUubWFlPic=

>  <r_lp_tautomer_probability>  (342) 
1

>  <r_epik_Ionization_Penalty>  (342) 
0

>  <r_epik_Ionization_Penalty_Charging>  (342) 
0

>  <r_epik_Ionization_Penalty_Neutral>  (342) 
0

>  <r_epik_State_Penalty>  (342) 
-0

>  <r_epik_Charging_Adjusted_Penalty>  (342) 
0

>  <i_epik_Tot_Q>  (342) 
0

>  <i_epik_Tot_abs_Q>  (342) 
0

>  <s_lp_Force_Field>  (342) 
OPLS3e

>  <r_lp_Energy>  (342) 
15.6217

>  <b_lp_Chiralities_Consistent>  (342) 
1

>  <s_lp_Variant>  (342) 
106:0-1

>  <s_i_glide_gridfile>  (342) 
pfpi4k_grid

>  <i_i_glide_lignum>  (342) 
29

>  <i_i_glide_rotatable_bonds>  (342) 
2

>  <r_i_docking_score>  (342) 
-2.52506

>  <r_i_glide_ligand_efficiency>  (342) 
-0.101002

>  <r_i_glide_ligand_efficiency_sa>  (342) 
-0.295332

>  <r_i_glide_ligand_efficiency_ln>  (342) 
-0.598514

>  <r_i_glide_gscore>  (342) 
-2.52506

>  <r_i_glide_lipo>  (342) 
-0.527319

>  <r_i_glide_hbond>  (342) 
0

>  <r_i_glide_metal>  (342) 
-0

>  <r_i_glide_rewards>  (342) 
-1.12903

>  <r_i_glide_evdw>  (342) 
-22.8647

>  <r_i_glide_ecoul>  (342) 
-0.0841484

>  <r_i_glide_erotb>  (342) 
0.337304

>  <r_i_glide_esite>  (342) 
-0.0501459

>  <r_i_glide_emodel>  (342) 
-22.4078

>  <r_i_glide_energy>  (342) 
-22.9489

>  <r_i_glide_einternal>  (342) 
2.97584

>  <r_i_glide_intrahb_reward>  (342) 
-0

>  <i_i_glide_confnum>  (342) 
5

>  <i_i_glide_posenum>  (342) 
40

>  <r_i_glide_eff_state_penalty>  (342) 
0

>  <ligand_id>  (342) 
106

>  <original_smiles>  (342) 
CC1(C)C=C2C(=CC3OC2(Cc2ccccc2)C2=C3OCCC2=O)C1

>  <smiles>  (342) 
[H]C1=C2C(=C([H])C(C([H])([H])[H])(C([H])([H])[H])C2([H])[H])C2(C([H])([H])c3c([H])c([H])c([H])c([H])c3[H])OC1([H])C1=C2C(=O)C([H])([H])C([H])([H])O1

$$$$
106:0:2
     RDKit          3D

 47 51  0  0  1  0  0  0  0  0999 V2000
    3.1343   -1.1432    7.4006 C   0  0  0  0  0  0  0  0  0  0  0  0
    3.7490   -1.9914    6.2710 C   0  0  0  0  0  0  0  0  0  0  0  0
    4.0884   -3.3955    6.7924 C   0  0  0  0  0  0  0  0  0  0  0  0
    2.7836   -2.0854    5.0949 C   0  0  0  0  0  0  0  0  0  0  0  0
    3.2669   -1.5447    3.9729 C   0  0  0  0  0  0  0  0  0  0  0  0
    4.5791   -1.0260    4.2294 C   0  0  0  0  0  0  0  0  0  0  0  0
    5.2463   -0.4169    3.2231 C   0  0  0  0  0  0  0  0  0  0  0  0
    4.5474   -0.2607    1.8685 C   0  0  2  0  0  0  0  0  0  0  0  0
    3.1429   -0.0609    2.1391 O   0  0  0  0  0  0  0  0  0  0  0  0
    2.6507   -1.3445    2.5928 C   0  0  2  0  0  0  0  0  0  0  0  0
    1.1059   -1.3904    2.5116 C   0  0  0  0  0  0  0  0  0  0  0  0
    0.4230   -0.1633    3.1143 C   0  0  0  0  0  0  0  0  0  0  0  0
    0.0643   -0.1548    4.4791 C   0  0  0  0  0  0  0  0  0  0  0  0
   -0.5626    0.9663    5.0543 C   0  0  0  0  0  0  0  0  0  0  0  0
   -0.8569    2.0890    4.2569 C   0  0  0  0  0  0  0  0  0  0  0  0
   -0.5188    2.0843    2.8889 C   0  0  0  0  0  0  0  0  0  0  0  0
    0.1233    0.9663    2.3188 C   0  0  0  0  0  0  0  0  0  0  0  0
    3.4215   -2.2562    1.6502 C   0  0  0  0  0  0  0  0  0  0  0  0
    4.4913   -1.6120    1.2240 C   0  0  0  0  0  0  0  0  0  0  0  0
    5.3864   -2.0099    0.2603 O   0  0  0  0  0  0  0  0  0  0  0  0
    4.9271   -3.1224   -0.5268 C   0  0  0  0  0  0  0  0  0  0  0  0
    4.1647   -4.2207    0.2596 C   0  0  0  0  0  0  0  0  0  0  0  0
    3.1299   -3.6182    1.2087 C   0  0  0  0  0  0  0  0  0  0  0  0
    2.2122   -4.3138    1.6358 O   0  0  0  0  0  0  0  0  0  0  0  0
    4.9999   -1.2907    5.6517 C   0  0  0  0  0  0  0  0  0  0  0  0
    3.8306   -1.0280    8.2313 H   0  0  0  0  0  0  0  0  0  0  0  0
    2.2286   -1.6017    7.7992 H   0  0  0  0  0  0  0  0  0  0  0  0
    2.8709   -0.1429    7.0559 H   0  0  0  0  0  0  0  0  0  0  0  0
    4.8221   -3.3513    7.5973 H   0  0  0  0  0  0  0  0  0  0  0  0
    4.5014   -4.0204    6.0020 H   0  0  0  0  0  0  0  0  0  0  0  0
    3.2023   -3.8995    7.1802 H   0  0  0  0  0  0  0  0  0  0  0  0
    1.8115   -2.5404    5.1913 H   0  0  0  0  0  0  0  0  0  0  0  0
    6.2511   -0.0406    3.3427 H   0  0  0  0  0  0  0  0  0  0  0  0
    4.9708    0.5158    1.2326 H   0  0  0  0  0  0  0  0  0  0  0  0
    0.8135   -1.4287    1.4627 H   0  0  0  0  0  0  0  0  0  0  0  0
    0.7079   -2.3002    2.9622 H   0  0  0  0  0  0  0  0  0  0  0  0
    0.2684   -1.0098    5.0975 H   0  0  0  0  0  0  0  0  0  0  0  0
   -0.8184    0.9608    6.1031 H   0  0  0  0  0  0  0  0  0  0  0  0
   -1.3383    2.9503    4.6954 H   0  0  0  0  0  0  0  0  0  0  0  0
   -0.7518    2.9434    2.2742 H   0  0  0  0  0  0  0  0  0  0  0  0
    0.3758    0.9818    1.2657 H   0  0  0  0  0  0  0  0  0  0  0  0
    4.2977   -2.7302   -1.3284 H   0  0  0  0  0  0  0  0  0  0  0  0
    5.7858   -3.5812   -1.0192 H   0  0  0  0  0  0  0  0  0  0  0  0
    3.6748   -4.9074   -0.4344 H   0  0  0  0  0  0  0  0  0  0  0  0
    4.8547   -4.8195    0.8571 H   0  0  0  0  0  0  0  0  0  0  0  0
    5.2454   -0.3524    6.1500 H   0  0  0  0  0  0  0  0  0  0  0  0
    5.8793   -1.9326    5.6653 H   0  0  0  0  0  0  0  0  0  0  0  0
  1  2  1  0
  1 26  1  0
  1 27  1  0
  1 28  1  0
  2 25  1  0
  2  3  1  0
  2  4  1  0
  3 29  1  0
  3 30  1  0
  3 31  1  0
  4  5  2  0
  4 32  1  0
  5 10  1  0
  5  6  1  0
  6  7  2  0
  6 25  1  0
  7  8  1  0
  7 33  1  0
  8 19  1  0
  8  9  1  0
  8 34  1  6
  9 10  1  0
 10 11  1  1
 10 18  1  0
 11 12  1  0
 11 35  1  0
 11 36  1  0
 12 17  1  0
 12 13  2  0
 13 14  1  0
 13 37  1  0
 14 15  2  0
 14 38  1  0
 15 16  1  0
 15 39  1  0
 16 17  2  0
 16 40  1  0
 17 41  1  0
 18 23  1  0
 18 19  2  0
 19 20  1  0
 20 21  1  0
 21 22  1  0
 21 42  1  0
 21 43  1  0
 22 23  1  0
 22 44  1  0
 22 45  1  0
 23 24  2  0
 25 46  1  0
 25 47  1  0
M  END
>  <i_m_ct_stereo_status>  (343) 
1

>  <s_m_source_file>  (343) 
/var/tmp/pbs.5076255.sched01/tmp1uy3qkd6/1269t22etaf.sdf

>  <i_m_source_file_index>  (343) 
29

>  <i_lp_mmshare_version>  (343) 
48012

>  <i_f3d_flags>  (343) 
0

>  <s_epik_input>  (343) 
TzFbQ0gyXVtDSDJdQyg9TylDMj1DMVtDQEBIXShPMylbQ0hdPUMoW0NIMl1DKFtDSDNdKShbQ0gzXSlbQ0hdPTQpQzRbQ0BdMjNbQ0gyXWM1W2NIXVtjSF1bY0hdW2NIXVtjSF01

>  <s_epik_cmdline>  (343) 
J2VwaWtfcHl0aG9uJywgJy1waHQnLCAnMi4wJywgJy1waCcsICc3LjAnLCAnLXRuJywgJzgnLCAnLW1hJywgJzIwMCcsICctaW1hZScsICc8aW5maWxlLm1hZT4nLCAnLW9tYWUnLCAnPG91dGZpbGUubWFlPic=

>  <r_lp_tautomer_probability>  (343) 
1

>  <r_epik_Ionization_Penalty>  (343) 
0

>  <r_epik_Ionization_Penalty_Charging>  (343) 
0

>  <r_epik_Ionization_Penalty_Neutral>  (343) 
0

>  <r_epik_State_Penalty>  (343) 
-0

>  <r_epik_Charging_Adjusted_Penalty>  (343) 
0

>  <i_epik_Tot_Q>  (343) 
0

>  <i_epik_Tot_abs_Q>  (343) 
0

>  <s_lp_Force_Field>  (343) 
OPLS3e

>  <r_lp_Energy>  (343) 
15.6217

>  <b_lp_Chiralities_Consistent>  (343) 
1

>  <s_lp_Variant>  (343) 
106:0-1

>  <s_i_glide_gridfile>  (343) 
pfpi4k_grid

>  <i_i_glide_lignum>  (343) 
29

>  <i_i_glide_rotatable_bonds>  (343) 
2

>  <r_i_docking_score>  (343) 
-2.23601

>  <r_i_glide_ligand_efficiency>  (343) 
-0.0894405

>  <r_i_glide_ligand_efficiency_sa>  (343) 
-0.261526

>  <r_i_glide_ligand_efficiency_ln>  (343) 
-0.530002

>  <r_i_glide_gscore>  (343) 
-2.23601

>  <r_i_glide_lipo>  (343) 
-0.36147

>  <r_i_glide_hbond>  (343) 
0

>  <r_i_glide_metal>  (343) 
-0

>  <r_i_glide_rewards>  (343) 
-1.12903

>  <r_i_glide_evdw>  (343) 
-18.8828

>  <r_i_glide_ecoul>  (343) 
-0.914193

>  <r_i_glide_erotb>  (343) 
0.337304

>  <r_i_glide_esite>  (343) 
-0.00154249

>  <r_i_glide_emodel>  (343) 
-22.5

>  <r_i_glide_energy>  (343) 
-19.797

>  <r_i_glide_einternal>  (343) 
0.352098

>  <r_i_glide_intrahb_reward>  (343) 
-0

>  <i_i_glide_confnum>  (343) 
5

>  <i_i_glide_posenum>  (343) 
21

>  <r_i_glide_eff_state_penalty>  (343) 
0

>  <ligand_id>  (343) 
106

>  <original_smiles>  (343) 
CC1(C)C=C2C(=CC3OC2(Cc2ccccc2)C2=C3OCCC2=O)C1

>  <smiles>  (343) 
[H]C1=C2C(=C([H])C(C([H])([H])[H])(C([H])([H])[H])C2([H])[H])C2(C([H])([H])c3c([H])c([H])c([H])c([H])c3[H])OC1([H])C1=C2C(=O)C([H])([H])C([H])([H])O1

$$$$
107:0:0
     RDKit          3D

 85 90  0  0  1  0  0  0  0  0999 V2000
    2.9661    1.3634    8.7095 C   0  0  0  0  0  0  0  0  0  0  0  0
    2.9795    2.1874    7.3976 C   0  0  0  0  0  0  0  0  0  0  0  0
    2.5637    3.6356    7.7180 C   0  0  0  0  0  0  0  0  0  0  0  0
    4.3889    2.2023    6.7703 C   0  0  0  0  0  0  0  0  0  0  0  0
    4.8345    0.8135    6.2867 C   0  0  0  0  0  0  0  0  0  0  0  0
    3.8180    0.1046    5.3469 C   0  0  1  0  0  0  0  0  0  0  0  0
    3.8249    0.7968    3.9655 C   0  0  0  0  0  0  0  0  0  0  0  0
    4.2887   -1.3546    5.1569 C   0  0  0  0  0  0  0  0  0  0  0  0
    3.1645   -2.2791    4.6828 C   0  0  0  0  0  0  0  0  0  0  0  0
    2.0066   -2.3604    5.7080 C   0  0  2  0  0  0  0  0  0  0  0  0
    2.4035   -3.1053    7.0177 C   0  0  0  0  0  0  0  0  0  0  0  0
    3.0319   -4.5124    6.9036 C   0  0  0  0  0  0  0  0  0  0  0  0
    2.1446   -5.7134    6.4481 C   0  0  2  0  0  0  0  0  0  0  0  0
    0.9606   -5.8868    7.4404 C   0  0  0  0  0  0  0  0  0  0  0  0
    3.0781   -6.9356    6.5456 C   0  0  0  0  0  0  0  0  0  0  0  0
    2.5286   -8.1943    5.8863 C   0  0  0  0  0  0  0  0  0  0  0  0
    2.3150   -8.0044    4.3626 C   0  0  1  0  0  0  0  0  0  0  0  0
    1.9739   -9.3706    3.6454 C   0  0  0  0  0  0  0  0  0  0  0  0
    2.1664   -9.2973    2.1052 C   0  0  0  0  0  0  0  0  0  0  0  0
    2.9113  -10.5158    4.1141 C   0  0  0  0  0  0  0  0  0  0  0  0
    0.5271   -9.7845    3.9894 C   0  0  0  0  0  0  0  0  0  0  0  0
   -0.5023   -8.6815    3.7088 C   0  0  0  0  0  0  0  0  0  0  0  0
   -0.1460   -7.3547    4.4060 C   0  0  0  0  0  0  0  0  0  0  0  0
    1.2965   -6.8239    4.1103 C   0  0  2  0  0  0  0  0  0  0  0  0
    1.3560   -6.3528    2.6248 C   0  0  0  0  0  0  0  0  0  0  0  0
    1.7043   -5.5350    4.9589 C   0  0  1  0  0  0  0  0  0  0  0  0
    0.6884   -4.4025    4.8120 C   0  0  0  0  0  0  0  0  0  0  0  0
    0.8011   -3.0840    5.0711 C   0  0  0  0  0  0  0  0  0  0  0  0
   -0.3265   -2.3409    4.8021 O   0  0  0  0  0  0  0  0  0  0  0  0
   -0.7924   -1.4079    5.6555 C   0  0  0  0  0  0  0  0  0  0  0  0
   -1.9529   -0.9954    5.6408 O   0  0  0  0  0  0  0  0  0  0  0  0
    0.1929   -0.8816    6.6840 C   0  0  0  0  0  0  0  0  0  0  0  0
    1.5984   -0.9313    6.1123 C   0  0  0  0  0  0  0  0  0  0  0  0
    2.3937    0.1681    5.9402 C   0  0  0  0  0  0  0  0  0  0  0  0
    1.9972    1.5845    6.3703 C   0  0  0  0  0  0  0  0  0  0  0  0
    3.6953    1.7432    9.4284 H   0  0  0  0  0  0  0  0  0  0  0  0
    3.2039    0.3121    8.5364 H   0  0  0  0  0  0  0  0  0  0  0  0
    1.9839    1.3900    9.1846 H   0  0  0  0  0  0  0  0  0  0  0  0
    2.5513    4.2491    6.8165 H   0  0  0  0  0  0  0  0  0  0  0  0
    3.2523    4.1039    8.4221 H   0  0  0  0  0  0  0  0  0  0  0  0
    1.5658    3.6779    8.1555 H   0  0  0  0  0  0  0  0  0  0  0  0
    4.4052    2.8966    5.9306 H   0  0  0  0  0  0  0  0  0  0  0  0
    5.1139    2.5926    7.4849 H   0  0  0  0  0  0  0  0  0  0  0  0
    5.8001    0.8998    5.7896 H   0  0  0  0  0  0  0  0  0  0  0  0
    5.0191    0.1948    7.1644 H   0  0  0  0  0  0  0  0  0  0  0  0
    4.7993    0.7010    3.4888 H   0  0  0  0  0  0  0  0  0  0  0  0
    3.6182    1.8633    4.0259 H   0  0  0  0  0  0  0  0  0  0  0  0
    3.0857    0.3656    3.2903 H   0  0  0  0  0  0  0  0  0  0  0  0
    5.1132   -1.3912    4.4467 H   0  0  0  0  0  0  0  0  0  0  0  0
    4.7001   -1.7518    6.0844 H   0  0  0  0  0  0  0  0  0  0  0  0
    2.7728   -1.9091    3.7342 H   0  0  0  0  0  0  0  0  0  0  0  0
    3.5784   -3.2578    4.4594 H   0  0  0  0  0  0  0  0  0  0  0  0
    3.1285   -2.4869    7.5449 H   0  0  0  0  0  0  0  0  0  0  0  0
    1.5563   -3.1568    7.7022 H   0  0  0  0  0  0  0  0  0  0  0  0
    3.9217   -4.4516    6.2780 H   0  0  0  0  0  0  0  0  0  0  0  0
    3.4220   -4.7524    7.8942 H   0  0  0  0  0  0  0  0  0  0  0  0
    0.4585   -6.8457    7.3341 H   0  0  0  0  0  0  0  0  0  0  0  0
    0.1990   -5.1144    7.3276 H   0  0  0  0  0  0  0  0  0  0  0  0
    1.3053   -5.8458    8.4743 H   0  0  0  0  0  0  0  0  0  0  0  0
    4.0323   -6.7095    6.0663 H   0  0  0  0  0  0  0  0  0  0  0  0
    3.3074   -7.1482    7.5907 H   0  0  0  0  0  0  0  0  0  0  0  0
    3.2671   -8.9669    6.0908 H   0  0  0  0  0  0  0  0  0  0  0  0
    1.6136   -8.5202    6.3792 H   0  0  0  0  0  0  0  0  0  0  0  0
    3.2825   -7.6884    3.9720 H   0  0  0  0  0  0  0  0  0  0  0  0
    2.3764  -10.2722    1.6681 H   0  0  0  0  0  0  0  0  0  0  0  0
    2.9930   -8.6448    1.8213 H   0  0  0  0  0  0  0  0  0  0  0  0
    1.2716   -8.9613    1.5878 H   0  0  0  0  0  0  0  0  0  0  0  0
    2.7795  -11.4191    3.5152 H   0  0  0  0  0  0  0  0  0  0  0  0
    2.7030  -10.8213    5.1412 H   0  0  0  0  0  0  0  0  0  0  0  0
    3.9610  -10.2259    4.0493 H   0  0  0  0  0  0  0  0  0  0  0  0
    0.2528  -10.6920    3.4496 H   0  0  0  0  0  0  0  0  0  0  0  0
    0.4605  -10.0469    5.0460 H   0  0  0  0  0  0  0  0  0  0  0  0
   -0.6282   -8.5417    2.6362 H   0  0  0  0  0  0  0  0  0  0  0  0
   -1.4748   -9.0236    4.0657 H   0  0  0  0  0  0  0  0  0  0  0  0
   -0.9112   -6.6359    4.1213 H   0  0  0  0  0  0  0  0  0  0  0  0
   -0.2765   -7.5151    5.4703 H   0  0  0  0  0  0  0  0  0  0  0  0
    0.9617   -5.3489    2.4776 H   0  0  0  0  0  0  0  0  0  0  0  0
    0.7753   -6.9689    1.9469 H   0  0  0  0  0  0  0  0  0  0  0  0
    2.3810   -6.3311    2.2539 H   0  0  0  0  0  0  0  0  0  0  0  0
    2.6010   -5.1774    4.4541 H   0  0  0  0  0  0  0  0  0  0  0  0
   -0.2633   -4.7148    4.4290 H   0  0  0  0  0  0  0  0  0  0  0  0
   -0.1496    0.1143    6.9319 H   0  0  0  0  0  0  0  0  0  0  0  0
    0.1242   -1.4751    7.5891 H   0  0  0  0  0  0  0  0  0  0  0  0
    0.9924    1.6612    6.7701 H   0  0  0  0  0  0  0  0  0  0  0  0
    1.9784    2.2136    5.4814 H   0  0  0  0  0  0  0  0  0  0  0  0
  1  2  1  0
  1 36  1  0
  1 37  1  0
  1 38  1  0
  2 35  1  0
  2  3  1  0
  2  4  1  0
  3 39  1  0
  3 40  1  0
  3 41  1  0
  4  5  1  0
  4 42  1  0
  4 43  1  0
  5  6  1  0
  5 44  1  0
  5 45  1  0
  6 34  1  0
  6  7  1  6
  6  8  1  0
  7 46  1  0
  7 47  1  0
  7 48  1  0
  8  9  1  0
  8 49  1  0
  8 50  1  0
 10  9  1  6
  9 51  1  0
  9 52  1  0
 10 28  1  0
 10 33  1  0
 10 11  1  0
 11 12  1  0
 11 53  1  0
 11 54  1  0
 12 13  1  0
 12 55  1  0
 12 56  1  0
 13 26  1  0
 13 14  1  1
 13 15  1  0
 14 57  1  0
 14 58  1  0
 14 59  1  0
 15 16  1  0
 15 60  1  0
 15 61  1  0
 16 17  1  0
 16 62  1  0
 16 63  1  0
 17 24  1  0
 17 18  1  0
 17 64  1  6
 18 19  1  0
 18 20  1  0
 18 21  1  0
 19 65  1  0
 19 66  1  0
 19 67  1  0
 20 68  1  0
 20 69  1  0
 20 70  1  0
 21 22  1  0
 21 71  1  0
 21 72  1  0
 22 23  1  0
 22 73  1  0
 22 74  1  0
 23 24  1  0
 23 75  1  0
 23 76  1  0
 24 25  1  6
 24 26  1  0
 25 77  1  0
 25 78  1  0
 25 79  1  0
 26 27  1  0
 26 80  1  6
 27 28  2  0
 27 81  1  0
 28 29  1  0
 29 30  1  0
 30 31  2  0
 30 32  1  0
 32 33  1  0
 32 82  1  0
 32 83  1  0
 33 34  2  0
 34 35  1  0
 35 84  1  0
 35 85  1  0
M  END
>  <i_m_ct_stereo_status>  (344) 
1

>  <s_m_source_file>  (344) 
/var/tmp/pbs.5076255.sched01/tmp1uy3qkd6/1269t22etaf.sdf

>  <i_m_source_file_index>  (344) 
30

>  <i_lp_mmshare_version>  (344) 
48012

>  <i_f3d_flags>  (344) 
0

>  <s_epik_input>  (344) 
W0NIM11DKFtDSDNdKShbQ0gyXTEpW0NIMl1bQ0gyXVtDQEBdKFtDSDNdKShbQ0gyXVtDSDJdMilDMT1DM1tDSDJdQyg9TylPQyhbQ0BAXTIzNCk9W0NIXVtDQEhdNVtDQF0oW0NIM10pKFtDSDJdW0NIMl00KVtDSDJdW0NIMl1bQ0BASF02W0NAQF01KFtDSDNdKVtDSDJdW0NIMl1bQ0gyXUM2KFtDSDNdKVtDSDNd

>  <s_epik_cmdline>  (344) 
J2VwaWtfcHl0aG9uJywgJy1waHQnLCAnMi4wJywgJy1waCcsICc3LjAnLCAnLXRuJywgJzgnLCAnLW1hJywgJzIwMCcsICctaW1hZScsICc8aW5maWxlLm1hZT4nLCAnLW9tYWUnLCAnPG91dGZpbGUubWFlPic=

>  <r_lp_tautomer_probability>  (344) 
1

>  <r_epik_Ionization_Penalty>  (344) 
4.16804e-10

>  <r_epik_Ionization_Penalty_Charging>  (344) 
0

>  <r_epik_Ionization_Penalty_Neutral>  (344) 
4.16804e-10

>  <r_epik_State_Penalty>  (344) 
-0

>  <r_epik_Charging_Adjusted_Penalty>  (344) 
0

>  <i_epik_Tot_Q>  (344) 
0

>  <i_epik_Tot_abs_Q>  (344) 
0

>  <s_lp_Force_Field>  (344) 
OPLS3e

>  <r_lp_Energy>  (344) 
98.7168

>  <b_lp_Chiralities_Consistent>  (344) 
1

>  <s_lp_Variant>  (344) 
107:0-1

>  <s_i_glide_gridfile>  (344) 
pfpi4k_grid

>  <i_i_glide_lignum>  (344) 
30

>  <i_i_glide_rotatable_bonds>  (344) 
0

>  <r_i_docking_score>  (344) 
-1.76679

>  <r_i_glide_ligand_efficiency>  (344) 
-0.0504797

>  <r_i_glide_ligand_efficiency_sa>  (344) 
-0.165122

>  <r_i_glide_ligand_efficiency_ln>  (344) 
-0.387849

>  <r_i_glide_gscore>  (344) 
-1.76679

>  <r_i_glide_lipo>  (344) 
-0.0845178

>  <r_i_glide_hbond>  (344) 
-0.0316974

>  <r_i_glide_metal>  (344) 
-0

>  <r_i_glide_rewards>  (344) 
-0.144894

>  <r_i_glide_evdw>  (344) 
-25.8702

>  <r_i_glide_ecoul>  (344) 
-1.13173

>  <r_i_glide_erotb>  (344) 
0

>  <r_i_glide_esite>  (344) 
-0.0424121

>  <r_i_glide_emodel>  (344) 
-29.4186

>  <r_i_glide_energy>  (344) 
-27.0019

>  <r_i_glide_einternal>  (344) 
0

>  <r_i_glide_intrahb_reward>  (344) 
-0

>  <i_i_glide_confnum>  (344) 
1

>  <i_i_glide_posenum>  (344) 
1

>  <r_i_glide_eff_state_penalty>  (344) 
0

>  <ligand_id>  (344) 
107

>  <original_smiles>  (344) 
CC1(C)CCC2(C)CCC34CCC5(C)CCC6C(C)(C)CCCC6(C)C5C=C3OC(=O)CC4=C2C1

>  <smiles>  (344) 
[H]C1=C2OC(=O)C([H])([H])C3=C4C([H])([H])C(C([H])([H])[H])(C([H])([H])[H])C([H])([H])C([H])([H])C4(C([H])([H])[H])C([H])([H])C([H])([H])C23C([H])([H])C([H])([H])C2(C([H])([H])[H])C([H])([H])C([H])([H])C3([H])C(C([H])([H])[H])(C([H])([H])[H])C([H])([H])C([H])([H])C([H])([H])C3(C([H])([H])[H])C12[H]

$$$$
107:0:1
     RDKit          3D

 85 90  0  0  1  0  0  0  0  0999 V2000
    7.3810    0.0795    8.2592 C   0  0  0  0  0  0  0  0  0  0  0  0
    6.4231    1.2205    7.8379 C   0  0  0  0  0  0  0  0  0  0  0  0
    6.6607    2.4306    8.7598 C   0  0  0  0  0  0  0  0  0  0  0  0
    6.6845    1.6475    6.3809 C   0  0  0  0  0  0  0  0  0  0  0  0
    6.3340    0.5427    5.3732 C   0  0  0  0  0  0  0  0  0  0  0  0
    4.9012   -0.0373    5.5229 C   0  0  1  0  0  0  0  0  0  0  0  0
    3.8702    1.0045    5.0277 C   0  0  0  0  0  0  0  0  0  0  0  0
    4.7980   -1.2842    4.6183 C   0  0  0  0  0  0  0  0  0  0  0  0
    3.6607   -2.2223    5.0291 C   0  0  0  0  0  0  0  0  0  0  0  0
    3.8570   -2.7826    6.4590 C   0  0  2  0  0  0  0  0  0  0  0  0
    5.0492   -3.7800    6.5669 C   0  0  0  0  0  0  0  0  0  0  0  0
    5.1050   -4.9690    5.5832 C   0  0  0  0  0  0  0  0  0  0  0  0
    4.0732   -6.1308    5.7302 C   0  0  2  0  0  0  0  0  0  0  0  0
    4.2161   -6.7718    7.1388 C   0  0  0  0  0  0  0  0  0  0  0  0
    4.4968   -7.1536    4.6574 C   0  0  0  0  0  0  0  0  0  0  0  0
    3.4765   -8.2555    4.4093 C   0  0  0  0  0  0  0  0  0  0  0  0
    2.1305   -7.6938    3.8853 C   0  0  1  0  0  0  0  0  0  0  0  0
    1.1615   -8.8454    3.4105 C   0  0  0  0  0  0  0  0  0  0  0  0
    0.0014   -8.3264    2.5138 C   0  0  0  0  0  0  0  0  0  0  0  0
    1.9029   -9.8899    2.5383 C   0  0  0  0  0  0  0  0  0  0  0  0
    0.6021   -9.5853    4.6424 C   0  0  0  0  0  0  0  0  0  0  0  0
   -0.0445   -8.6480    5.6657 C   0  0  0  0  0  0  0  0  0  0  0  0
    0.9054   -7.5182    6.1084 C   0  0  0  0  0  0  0  0  0  0  0  0
    1.5297   -6.6860    4.9393 C   0  0  2  0  0  0  0  0  0  0  0  0
    0.4054   -5.8240    4.2927 C   0  0  0  0  0  0  0  0  0  0  0  0
    2.6277   -5.6288    5.4049 C   0  0  1  0  0  0  0  0  0  0  0  0
    2.1007   -4.6915    6.4926 C   0  0  0  0  0  0  0  0  0  0  0  0
    2.5662   -3.4977    6.9140 C   0  0  0  0  0  0  0  0  0  0  0  0
    1.8262   -2.9114    7.9174 O   0  0  0  0  0  0  0  0  0  0  0  0
    2.4031   -2.3417    8.9962 C   0  0  0  0  0  0  0  0  0  0  0  0
    1.7948   -2.1142   10.0426 O   0  0  0  0  0  0  0  0  0  0  0  0
    3.8687   -1.9685    8.8611 C   0  0  0  0  0  0  0  0  0  0  0  0
    4.1659   -1.6134    7.4130 C   0  0  0  0  0  0  0  0  0  0  0  0
    4.6142   -0.3878    7.0001 C   0  0  0  0  0  0  0  0  0  0  0  0
    4.9514    0.7637    7.9545 C   0  0  0  0  0  0  0  0  0  0  0  0
    8.4276    0.3674    8.1338 H   0  0  0  0  0  0  0  0  0  0  0  0
    7.2212   -0.8258    7.6705 H   0  0  0  0  0  0  0  0  0  0  0  0
    7.2320   -0.1949    9.3051 H   0  0  0  0  0  0  0  0  0  0  0  0
    5.9970    3.2566    8.5021 H   0  0  0  0  0  0  0  0  0  0  0  0
    7.6857    2.7975    8.6822 H   0  0  0  0  0  0  0  0  0  0  0  0
    6.4764    2.1796    9.8038 H   0  0  0  0  0  0  0  0  0  0  0  0
    6.1002    2.5388    6.1535 H   0  0  0  0  0  0  0  0  0  0  0  0
    7.7275    1.9408    6.2551 H   0  0  0  0  0  0  0  0  0  0  0  0
    6.4768    0.9197    4.3598 H   0  0  0  0  0  0  0  0  0  0  0  0
    7.0638   -0.2535    5.4943 H   0  0  0  0  0  0  0  0  0  0  0  0
    4.0000    1.2194    3.9657 H   0  0  0  0  0  0  0  0  0  0  0  0
    3.9569    1.9580    5.5457 H   0  0  0  0  0  0  0  0  0  0  0  0
    2.8472    0.6556    5.1709 H   0  0  0  0  0  0  0  0  0  0  0  0
    4.6647   -0.9828    3.5805 H   0  0  0  0  0  0  0  0  0  0  0  0
    5.7306   -1.8457    4.6307 H   0  0  0  0  0  0  0  0  0  0  0  0
    2.7168   -1.6781    4.9871 H   0  0  0  0  0  0  0  0  0  0  0  0
    3.5692   -3.0144    4.2917 H   0  0  0  0  0  0  0  0  0  0  0  0
    5.9680   -3.2150    6.4186 H   0  0  0  0  0  0  0  0  0  0  0  0
    5.1380   -4.1630    7.5849 H   0  0  0  0  0  0  0  0  0  0  0  0
    5.0893   -4.5853    4.5646 H   0  0  0  0  0  0  0  0  0  0  0  0
    6.1005   -5.4031    5.6878 H   0  0  0  0  0  0  0  0  0  0  0  0
    3.7187   -7.7350    7.2150 H   0  0  0  0  0  0  0  0  0  0  0  0
    3.8109   -6.1398    7.9306 H   0  0  0  0  0  0  0  0  0  0  0  0
    5.2621   -6.9598    7.3834 H   0  0  0  0  0  0  0  0  0  0  0  0
    4.6607   -6.6444    3.7059 H   0  0  0  0  0  0  0  0  0  0  0  0
    5.4508   -7.6046    4.9297 H   0  0  0  0  0  0  0  0  0  0  0  0
    3.9430   -8.9177    3.6813 H   0  0  0  0  0  0  0  0  0  0  0  0
    3.3335   -8.8556    5.3077 H   0  0  0  0  0  0  0  0  0  0  0  0
    2.3846   -7.1215    2.9931 H   0  0  0  0  0  0  0  0  0  0  0  0
   -0.3821   -9.0999    1.8484 H   0  0  0  0  0  0  0  0  0  0  0  0
    0.3173   -7.4952    1.8830 H   0  0  0  0  0  0  0  0  0  0  0  0
   -0.8703   -8.0151    3.0830 H   0  0  0  0  0  0  0  0  0  0  0  0
    1.2051  -10.5975    2.0893 H   0  0  0  0  0  0  0  0  0  0  0  0
    2.5892  -10.5018    3.1262 H   0  0  0  0  0  0  0  0  0  0  0  0
    2.4699   -9.4211    1.7312 H   0  0  0  0  0  0  0  0  0  0  0  0
   -0.1238  -10.3351    4.3279 H   0  0  0  0  0  0  0  0  0  0  0  0
    1.3984  -10.1359    5.1436 H   0  0  0  0  0  0  0  0  0  0  0  0
   -0.9736   -8.2418    5.2730 H   0  0  0  0  0  0  0  0  0  0  0  0
   -0.3409   -9.2339    6.5362 H   0  0  0  0  0  0  0  0  0  0  0  0
    0.3437   -6.8893    6.7987 H   0  0  0  0  0  0  0  0  0  0  0  0
    1.6869   -7.9805    6.7032 H   0  0  0  0  0  0  0  0  0  0  0  0
    0.1988   -4.9033    4.8392 H   0  0  0  0  0  0  0  0  0  0  0  0
   -0.5582   -6.3207    4.2539 H   0  0  0  0  0  0  0  0  0  0  0  0
    0.6683   -5.5200    3.2791 H   0  0  0  0  0  0  0  0  0  0  0  0
    2.7566   -4.9985    4.5267 H   0  0  0  0  0  0  0  0  0  0  0  0
    1.2113   -5.0380    6.9867 H   0  0  0  0  0  0  0  0  0  0  0  0
    4.0215   -1.1551    9.5562 H   0  0  0  0  0  0  0  0  0  0  0  0
    4.4903   -2.7918    9.1995 H   0  0  0  0  0  0  0  0  0  0  0  0
    4.7390    0.5509    8.9964 H   0  0  0  0  0  0  0  0  0  0  0  0
    4.2971    1.6000    7.7141 H   0  0  0  0  0  0  0  0  0  0  0  0
  1  2  1  0
  1 36  1  0
  1 37  1  0
  1 38  1  0
  2 35  1  0
  2  3  1  0
  2  4  1  0
  3 39  1  0
  3 40  1  0
  3 41  1  0
  4  5  1  0
  4 42  1  0
  4 43  1  0
  5  6  1  0
  5 44  1  0
  5 45  1  0
  6 34  1  0
  6  7  1  6
  6  8  1  0
  7 46  1  0
  7 47  1  0
  7 48  1  0
  8  9  1  0
  8 49  1  0
  8 50  1  0
 10  9  1  6
  9 51  1  0
  9 52  1  0
 10 28  1  0
 10 33  1  0
 10 11  1  0
 11 12  1  0
 11 53  1  0
 11 54  1  0
 12 13  1  0
 12 55  1  0
 12 56  1  0
 13 26  1  0
 13 14  1  1
 13 15  1  0
 14 57  1  0
 14 58  1  0
 14 59  1  0
 15 16  1  0
 15 60  1  0
 15 61  1  0
 16 17  1  0
 16 62  1  0
 16 63  1  0
 17 24  1  0
 17 18  1  0
 17 64  1  6
 18 19  1  0
 18 20  1  0
 18 21  1  0
 19 65  1  0
 19 66  1  0
 19 67  1  0
 20 68  1  0
 20 69  1  0
 20 70  1  0
 21 22  1  0
 21 71  1  0
 21 72  1  0
 22 23  1  0
 22 73  1  0
 22 74  1  0
 23 24  1  0
 23 75  1  0
 23 76  1  0
 24 25  1  6
 24 26  1  0
 25 77  1  0
 25 78  1  0
 25 79  1  0
 26 27  1  0
 26 80  1  6
 27 28  2  0
 27 81  1  0
 28 29  1  0
 29 30  1  0
 30 31  2  0
 30 32  1  0
 32 33  1  0
 32 82  1  0
 32 83  1  0
 33 34  2  0
 34 35  1  0
 35 84  1  0
 35 85  1  0
M  END
>  <i_m_ct_stereo_status>  (345) 
1

>  <s_m_source_file>  (345) 
/var/tmp/pbs.5076255.sched01/tmp1uy3qkd6/1269t22etaf.sdf

>  <i_m_source_file_index>  (345) 
30

>  <i_lp_mmshare_version>  (345) 
48012

>  <i_f3d_flags>  (345) 
0

>  <s_epik_input>  (345) 
W0NIM11DKFtDSDNdKShbQ0gyXTEpW0NIMl1bQ0gyXVtDQEBdKFtDSDNdKShbQ0gyXVtDSDJdMilDMT1DM1tDSDJdQyg9TylPQyhbQ0BAXTIzNCk9W0NIXVtDQEhdNVtDQF0oW0NIM10pKFtDSDJdW0NIMl00KVtDSDJdW0NIMl1bQ0BASF02W0NAQF01KFtDSDNdKVtDSDJdW0NIMl1bQ0gyXUM2KFtDSDNdKVtDSDNd

>  <s_epik_cmdline>  (345) 
J2VwaWtfcHl0aG9uJywgJy1waHQnLCAnMi4wJywgJy1waCcsICc3LjAnLCAnLXRuJywgJzgnLCAnLW1hJywgJzIwMCcsICctaW1hZScsICc8aW5maWxlLm1hZT4nLCAnLW9tYWUnLCAnPG91dGZpbGUubWFlPic=

>  <r_lp_tautomer_probability>  (345) 
1

>  <r_epik_Ionization_Penalty>  (345) 
4.16804e-10

>  <r_epik_Ionization_Penalty_Charging>  (345) 
0

>  <r_epik_Ionization_Penalty_Neutral>  (345) 
4.16804e-10

>  <r_epik_State_Penalty>  (345) 
-0

>  <r_epik_Charging_Adjusted_Penalty>  (345) 
0

>  <i_epik_Tot_Q>  (345) 
0

>  <i_epik_Tot_abs_Q>  (345) 
0

>  <s_lp_Force_Field>  (345) 
OPLS3e

>  <r_lp_Energy>  (345) 
98.7168

>  <b_lp_Chiralities_Consistent>  (345) 
1

>  <s_lp_Variant>  (345) 
107:0-1

>  <s_i_glide_gridfile>  (345) 
pfpi4k_grid

>  <i_i_glide_lignum>  (345) 
30

>  <i_i_glide_rotatable_bonds>  (345) 
0

>  <r_i_docking_score>  (345) 
-1.71314

>  <r_i_glide_ligand_efficiency>  (345) 
-0.0489468

>  <r_i_glide_ligand_efficiency_sa>  (345) 
-0.160108

>  <r_i_glide_ligand_efficiency_ln>  (345) 
-0.376072

>  <r_i_glide_gscore>  (345) 
-1.71314

>  <r_i_glide_lipo>  (345) 
-0.445796

>  <r_i_glide_hbond>  (345) 
0

>  <r_i_glide_metal>  (345) 
-0

>  <r_i_glide_rewards>  (345) 
-0.144894

>  <r_i_glide_evdw>  (345) 
-21.6414

>  <r_i_glide_ecoul>  (345) 
-0.2692

>  <r_i_glide_erotb>  (345) 
0

>  <r_i_glide_esite>  (345) 
0

>  <r_i_glide_emodel>  (345) 
-24.2571

>  <r_i_glide_energy>  (345) 
-21.9106

>  <r_i_glide_einternal>  (345) 
0

>  <r_i_glide_intrahb_reward>  (345) 
-0

>  <i_i_glide_confnum>  (345) 
2

>  <i_i_glide_posenum>  (345) 
7

>  <r_i_glide_eff_state_penalty>  (345) 
0

>  <ligand_id>  (345) 
107

>  <original_smiles>  (345) 
CC1(C)CCC2(C)CCC34CCC5(C)CCC6C(C)(C)CCCC6(C)C5C=C3OC(=O)CC4=C2C1

>  <smiles>  (345) 
[H]C1=C2OC(=O)C([H])([H])C3=C4C([H])([H])C(C([H])([H])[H])(C([H])([H])[H])C([H])([H])C([H])([H])C4(C([H])([H])[H])C([H])([H])C([H])([H])C23C([H])([H])C([H])([H])C2(C([H])([H])[H])C([H])([H])C([H])([H])C3([H])C(C([H])([H])[H])(C([H])([H])[H])C([H])([H])C([H])([H])C([H])([H])C3(C([H])([H])[H])C12[H]

$$$$
107:0:2
     RDKit          3D

 85 90  0  0  1  0  0  0  0  0999 V2000
    7.8735   -0.2564    7.7908 C   0  0  0  0  0  0  0  0  0  0  0  0
    6.7545    0.8037    7.9305 C   0  0  0  0  0  0  0  0  0  0  0  0
    7.2191    1.8815    8.9273 C   0  0  0  0  0  0  0  0  0  0  0  0
    6.4585    1.4737    6.5741 C   0  0  0  0  0  0  0  0  0  0  0  0
    5.8508    0.4977    5.5553 C   0  0  0  0  0  0  0  0  0  0  0  0
    4.6081   -0.2794    6.0683 C   0  0  1  0  0  0  0  0  0  0  0  0
    3.3997    0.6833    6.1490 C   0  0  0  0  0  0  0  0  0  0  0  0
    4.2816   -1.3806    5.0363 C   0  0  0  0  0  0  0  0  0  0  0  0
    3.4262   -2.5062    5.6239 C   0  0  0  0  0  0  0  0  0  0  0  0
    4.1488   -3.2438    6.7774 C   0  0  2  0  0  0  0  0  0  0  0  0
    5.3674   -4.0860    6.2949 C   0  0  0  0  0  0  0  0  0  0  0  0
    5.1542   -5.0979    5.1479 C   0  0  0  0  0  0  0  0  0  0  0  0
    4.3203   -6.3905    5.4143 C   0  0  2  0  0  0  0  0  0  0  0  0
    4.9921   -7.2115    6.5503 C   0  0  0  0  0  0  0  0  0  0  0  0
    4.4084   -7.1792    4.0925 C   0  0  0  0  0  0  0  0  0  0  0  0
    3.4427   -8.3522    4.0015 C   0  0  0  0  0  0  0  0  0  0  0  0
    1.9627   -7.8956    4.0704 C   0  0  1  0  0  0  0  0  0  0  0  0
    0.9699   -9.0798    3.7434 C   0  0  0  0  0  0  0  0  0  0  0  0
   -0.4634   -8.5880    3.3923 C   0  0  0  0  0  0  0  0  0  0  0  0
    1.4296   -9.8787    2.4970 C   0  0  0  0  0  0  0  0  0  0  0  0
    0.9304  -10.0577    4.9368 C   0  0  0  0  0  0  0  0  0  0  0  0
    0.6173   -9.3706    6.2699 C   0  0  0  0  0  0  0  0  0  0  0  0
    1.5858   -8.2090    6.5669 C   0  0  0  0  0  0  0  0  0  0  0  0
    1.7021   -7.1390    5.4304 C   0  0  2  0  0  0  0  0  0  0  0  0
    0.3660   -6.3376    5.3665 C   0  0  0  0  0  0  0  0  0  0  0  0
    2.8216   -6.0334    5.6892 C   0  0  1  0  0  0  0  0  0  0  0  0
    2.6491   -5.3437    7.0440 C   0  0  0  0  0  0  0  0  0  0  0  0
    3.1519   -4.1772    7.4983 C   0  0  0  0  0  0  0  0  0  0  0  0
    2.7759   -3.8474    8.7822 O   0  0  0  0  0  0  0  0  0  0  0  0
    3.6559   -3.3761    9.6908 C   0  0  0  0  0  0  0  0  0  0  0  0
    3.4446   -3.3872   10.9041 O   0  0  0  0  0  0  0  0  0  0  0  0
    4.9498   -2.8024    9.1430 C   0  0  0  0  0  0  0  0  0  0  0  0
    4.6934   -2.2004    7.7709 C   0  0  0  0  0  0  0  0  0  0  0  0
    4.8830   -0.8798    7.4653 C   0  0  0  0  0  0  0  0  0  0  0  0
    5.4535    0.1500    8.4470 C   0  0  0  0  0  0  0  0  0  0  0  0
    8.7864    0.1815    7.3810 H   0  0  0  0  0  0  0  0  0  0  0  0
    7.5812   -1.0762    7.1316 H   0  0  0  0  0  0  0  0  0  0  0  0
    8.1211   -0.7007    8.7569 H   0  0  0  0  0  0  0  0  0  0  0  0
    6.4534    2.6460    9.0643 H   0  0  0  0  0  0  0  0  0  0  0  0
    8.1247    2.3831    8.5812 H   0  0  0  0  0  0  0  0  0  0  0  0
    7.4319    1.4534    9.9060 H   0  0  0  0  0  0  0  0  0  0  0  0
    5.7738    2.3080    6.7243 H   0  0  0  0  0  0  0  0  0  0  0  0
    7.3693    1.9127    6.1652 H   0  0  0  0  0  0  0  0  0  0  0  0
    5.5938    1.0354    4.6424 H   0  0  0  0  0  0  0  0  0  0  0  0
    6.6257   -0.2072    5.2633 H   0  0  0  0  0  0  0  0  0  0  0  0
    3.1334    1.0685    5.1634 H   0  0  0  0  0  0  0  0  0  0  0  0
    3.5982    1.5522    6.7742 H   0  0  0  0  0  0  0  0  0  0  0  0
    2.5190    0.1893    6.5597 H   0  0  0  0  0  0  0  0  0  0  0  0
    3.7702   -0.9468    4.1785 H   0  0  0  0  0  0  0  0  0  0  0  0
    5.1958   -1.8115    4.6291 H   0  0  0  0  0  0  0  0  0  0  0  0
    2.4936   -2.0859    6.0012 H   0  0  0  0  0  0  0  0  0  0  0  0
    3.1341   -3.1844    4.8276 H   0  0  0  0  0  0  0  0  0  0  0  0
    6.1350   -3.3928    5.9549 H   0  0  0  0  0  0  0  0  0  0  0  0
    5.8333   -4.6022    7.1357 H   0  0  0  0  0  0  0  0  0  0  0  0
    4.7555   -4.5713    4.2826 H   0  0  0  0  0  0  0  0  0  0  0  0
    6.1501   -5.4120    4.8318 H   0  0  0  0  0  0  0  0  0  0  0  0
    4.6194   -8.2306    6.6099 H   0  0  0  0  0  0  0  0  0  0  0  0
    4.8489   -6.7618    7.5342 H   0  0  0  0  0  0  0  0  0  0  0  0
    6.0677   -7.2986    6.3924 H   0  0  0  0  0  0  0  0  0  0  0  0
    4.1932   -6.5166    3.2522 H   0  0  0  0  0  0  0  0  0  0  0  0
    5.4256   -7.5402    3.9423 H   0  0  0  0  0  0  0  0  0  0  0  0
    3.6683   -8.8337    3.0510 H   0  0  0  0  0  0  0  0  0  0  0  0
    3.6658   -9.0930    4.7690 H   0  0  0  0  0  0  0  0  0  0  0  0
    1.8482   -7.1691    3.2661 H   0  0  0  0  0  0  0  0  0  0  0  0
   -0.9987   -9.2956    2.7568 H   0  0  0  0  0  0  0  0  0  0  0  0
   -0.4460   -7.6343    2.8646 H   0  0  0  0  0  0  0  0  0  0  0  0
   -1.0995   -8.4812    4.2679 H   0  0  0  0  0  0  0  0  0  0  0  0
    0.6710  -10.5948    2.1763 H   0  0  0  0  0  0  0  0  0  0  0  0
    2.3189  -10.4780    2.6993 H   0  0  0  0  0  0  0  0  0  0  0  0
    1.6455   -9.2223    1.6519 H   0  0  0  0  0  0  0  0  0  0  0  0
    0.2085  -10.8505    4.7516 H   0  0  0  0  0  0  0  0  0  0  0  0
    1.8886  -10.5664    5.0350 H   0  0  0  0  0  0  0  0  0  0  0  0
   -0.4171   -9.0348    6.2930 H   0  0  0  0  0  0  0  0  0  0  0  0
    0.6908  -10.1114    7.0666 H   0  0  0  0  0  0  0  0  0  0  0  0
    1.2651   -7.7674    7.5098 H   0  0  0  0  0  0  0  0  0  0  0  0
    2.5554   -8.6537    6.7692 H   0  0  0  0  0  0  0  0  0  0  0  0
    0.3031   -5.5449    6.1126 H   0  0  0  0  0  0  0  0  0  0  0  0
   -0.5137   -6.9425    5.5581 H   0  0  0  0  0  0  0  0  0  0  0  0
    0.2337   -5.8546    4.3981 H   0  0  0  0  0  0  0  0  0  0  0  0
    2.5917   -5.2674    4.9508 H   0  0  0  0  0  0  0  0  0  0  0  0
    2.0162   -5.8710    7.7347 H   0  0  0  0  0  0  0  0  0  0  0  0
    5.2801   -2.0890    9.8846 H   0  0  0  0  0  0  0  0  0  0  0  0
    5.7041   -3.5815    9.0966 H   0  0  0  0  0  0  0  0  0  0  0  0
    5.6365   -0.2415    9.4418 H   0  0  0  0  0  0  0  0  0  0  0  0
    4.7009    0.9221    8.5984 H   0  0  0  0  0  0  0  0  0  0  0  0
  1  2  1  0
  1 36  1  0
  1 37  1  0
  1 38  1  0
  2 35  1  0
  2  3  1  0
  2  4  1  0
  3 39  1  0
  3 40  1  0
  3 41  1  0
  4  5  1  0
  4 42  1  0
  4 43  1  0
  5  6  1  0
  5 44  1  0
  5 45  1  0
  6 34  1  0
  6  7  1  1
  6  8  1  0
  7 46  1  0
  7 47  1  0
  7 48  1  0
  8  9  1  0
  8 49  1  0
  8 50  1  0
 10  9  1  6
  9 51  1  0
  9 52  1  0
 10 28  1  0
 10 33  1  0
 10 11  1  0
 11 12  1  0
 11 53  1  0
 11 54  1  0
 12 13  1  0
 12 55  1  0
 12 56  1  0
 13 26  1  0
 13 14  1  1
 13 15  1  0
 14 57  1  0
 14 58  1  0
 14 59  1  0
 15 16  1  0
 15 60  1  0
 15 61  1  0
 16 17  1  0
 16 62  1  0
 16 63  1  0
 17 24  1  0
 17 18  1  0
 17 64  1  6
 18 19  1  0
 18 20  1  0
 18 21  1  0
 19 65  1  0
 19 66  1  0
 19 67  1  0
 20 68  1  0
 20 69  1  0
 20 70  1  0
 21 22  1  0
 21 71  1  0
 21 72  1  0
 22 23  1  0
 22 73  1  0
 22 74  1  0
 23 24  1  0
 23 75  1  0
 23 76  1  0
 24 25  1  6
 24 26  1  0
 25 77  1  0
 25 78  1  0
 25 79  1  0
 26 27  1  0
 26 80  1  6
 27 28  2  0
 27 81  1  0
 28 29  1  0
 29 30  1  0
 30 31  2  0
 30 32  1  0
 32 33  1  0
 32 82  1  0
 32 83  1  0
 33 34  2  0
 34 35  1  0
 35 84  1  0
 35 85  1  0
M  END
>  <i_m_ct_stereo_status>  (346) 
1

>  <s_m_source_file>  (346) 
/var/tmp/pbs.5076255.sched01/tmp1uy3qkd6/1269t22etaf.sdf

>  <i_m_source_file_index>  (346) 
30

>  <i_lp_mmshare_version>  (346) 
48012

>  <i_f3d_flags>  (346) 
0

>  <s_epik_input>  (346) 
W0NIM11DKFtDSDNdKShbQ0gyXTEpW0NIMl1bQ0gyXVtDQEBdKFtDSDNdKShbQ0gyXVtDSDJdMilDMT1DM1tDSDJdQyg9TylPQyhbQ0BAXTIzNCk9W0NIXVtDQEhdNVtDQF0oW0NIM10pKFtDSDJdW0NIMl00KVtDSDJdW0NIMl1bQ0BASF02W0NAQF01KFtDSDNdKVtDSDJdW0NIMl1bQ0gyXUM2KFtDSDNdKVtDSDNd

>  <s_epik_cmdline>  (346) 
J2VwaWtfcHl0aG9uJywgJy1waHQnLCAnMi4wJywgJy1waCcsICc3LjAnLCAnLXRuJywgJzgnLCAnLW1hJywgJzIwMCcsICctaW1hZScsICc8aW5maWxlLm1hZT4nLCAnLW9tYWUnLCAnPG91dGZpbGUubWFlPic=

>  <r_lp_tautomer_probability>  (346) 
1

>  <r_epik_Ionization_Penalty>  (346) 
4.16804e-10

>  <r_epik_Ionization_Penalty_Charging>  (346) 
0

>  <r_epik_Ionization_Penalty_Neutral>  (346) 
4.16804e-10

>  <r_epik_State_Penalty>  (346) 
-0

>  <r_epik_Charging_Adjusted_Penalty>  (346) 
0

>  <i_epik_Tot_Q>  (346) 
0

>  <i_epik_Tot_abs_Q>  (346) 
0

>  <s_lp_Force_Field>  (346) 
OPLS3e

>  <r_lp_Energy>  (346) 
98.7168

>  <b_lp_Chiralities_Consistent>  (346) 
1

>  <s_lp_Variant>  (346) 
107:0-1

>  <s_i_glide_gridfile>  (346) 
pfpi4k_grid

>  <i_i_glide_lignum>  (346) 
30

>  <i_i_glide_rotatable_bonds>  (346) 
0

>  <r_i_docking_score>  (346) 
-1.65711

>  <r_i_glide_ligand_efficiency>  (346) 
-0.047346

>  <r_i_glide_ligand_efficiency_sa>  (346) 
-0.154872

>  <r_i_glide_ligand_efficiency_ln>  (346) 
-0.363773

>  <r_i_glide_gscore>  (346) 
-1.65711

>  <r_i_glide_lipo>  (346) 
-0.409733

>  <r_i_glide_hbond>  (346) 
0

>  <r_i_glide_metal>  (346) 
-0

>  <r_i_glide_rewards>  (346) 
-0.144894

>  <r_i_glide_evdw>  (346) 
-22.1534

>  <r_i_glide_ecoul>  (346) 
0.034561

>  <r_i_glide_erotb>  (346) 
0

>  <r_i_glide_esite>  (346) 
0

>  <r_i_glide_emodel>  (346) 
-24.3716

>  <r_i_glide_energy>  (346) 
-22.1188

>  <r_i_glide_einternal>  (346) 
0

>  <r_i_glide_intrahb_reward>  (346) 
-0

>  <i_i_glide_confnum>  (346) 
2

>  <i_i_glide_posenum>  (346) 
16

>  <r_i_glide_eff_state_penalty>  (346) 
0

>  <ligand_id>  (346) 
107

>  <original_smiles>  (346) 
CC1(C)CCC2(C)CCC34CCC5(C)CCC6C(C)(C)CCCC6(C)C5C=C3OC(=O)CC4=C2C1

>  <smiles>  (346) 
[H]C1=C2OC(=O)C([H])([H])C3=C4C([H])([H])C(C([H])([H])[H])(C([H])([H])[H])C([H])([H])C([H])([H])C4(C([H])([H])[H])C([H])([H])C([H])([H])C23C([H])([H])C([H])([H])C2(C([H])([H])[H])C([H])([H])C([H])([H])C3([H])C(C([H])([H])[H])(C([H])([H])[H])C([H])([H])C([H])([H])C([H])([H])C3(C([H])([H])[H])C12[H]

$$$$
109:0:0
     RDKit          3D

 42 46  0  0  1  0  0  0  0  0999 V2000
    3.8986   -1.6826   -2.5124 C   0  0  0  0  0  0  0  0  0  0  0  0
    4.8830   -1.1820   -1.4466 C   0  0  2  0  0  0  0  0  0  0  0  0
    5.8137   -2.2363   -1.1311 O   0  0  0  0  0  0  0  0  0  0  0  0
    6.2288   -2.3431    0.2519 C   0  0  1  0  0  0  0  0  0  0  0  0
    6.0828   -3.3978    1.3778 C   0  0  2  0  0  0  0  0  0  0  0  0
    5.8032   -4.8481    0.9264 C   0  0  0  0  0  0  0  0  0  0  0  0
    4.3655   -5.1247    1.4052 C   0  0  2  0  0  0  0  0  0  0  0  0
    4.2165   -6.5314    1.4844 O   0  0  0  0  0  0  0  0  0  0  0  0
    3.3362   -4.4418    0.4383 C   0  0  1  0  0  0  0  0  0  0  0  0
    2.0930   -5.2945    0.1582 C   0  0  0  0  0  0  0  0  0  0  0  0
    2.8671   -3.0299    0.8834 C   0  0  0  0  0  0  0  0  0  0  0  0
    3.8303   -2.1660    1.7587 C   0  0  1  0  0  0  0  0  0  0  0  0
    2.9793   -1.4404    2.8250 C   0  0  0  0  0  0  0  0  0  0  0  0
    4.9371   -3.0673    2.4075 C   0  0  1  0  0  0  0  0  0  0  0  0
    4.4320   -4.4632    2.7911 C   0  0  1  0  0  0  0  0  0  0  0  0
    3.2210   -4.4791    3.5160 O   0  0  0  0  0  0  0  0  0  0  0  0
    4.5564   -1.0521    0.9694 C   0  0  1  0  0  0  0  0  0  0  0  0
    4.1500   -0.6640   -0.3417 O   0  0  0  0  0  0  0  0  0  0  0  0
    5.3342   -0.2194    1.7591 O   0  0  0  0  0  0  0  0  0  0  0  0
    6.1147   -0.9369    0.7840 C   0  0  1  0  0  0  0  0  0  0  0  0
    3.3441   -2.5515   -2.1523 H   0  0  0  0  0  0  0  0  0  0  0  0
    4.4449   -1.9591   -3.4138 H   0  0  0  0  0  0  0  0  0  0  0  0
    3.1833   -0.8908   -2.7567 H   0  0  0  0  0  0  0  0  0  0  0  0
    5.4498   -0.3423   -1.8541 H   0  0  0  0  0  0  0  0  0  0  0  0
    5.3011   -2.8333    0.0075 H   0  0  0  0  0  0  0  0  0  0  0  0
    7.0213   -3.4016    1.9282 H   0  0  0  0  0  0  0  0  0  0  0  0
    5.9619   -5.0148   -0.1465 H   0  0  0  0  0  0  0  0  0  0  0  0
    6.5024   -5.5024    1.4510 H   0  0  0  0  0  0  0  0  0  0  0  0
    4.8606   -6.8726    2.0844 H   0  0  0  0  0  0  0  0  0  0  0  0
    3.8147   -4.3556   -0.5431 H   0  0  0  0  0  0  0  0  0  0  0  0
    1.5035   -5.4879    1.0602 H   0  0  0  0  0  0  0  0  0  0  0  0
    2.3471   -6.2515   -0.2966 H   0  0  0  0  0  0  0  0  0  0  0  0
    1.4611   -4.7891   -0.5711 H   0  0  0  0  0  0  0  0  0  0  0  0
    2.5658   -2.4638    0.0111 H   0  0  0  0  0  0  0  0  0  0  0  0
    1.9314   -3.1508    1.4306 H   0  0  0  0  0  0  0  0  0  0  0  0
    3.5903   -0.8505    3.5111 H   0  0  0  0  0  0  0  0  0  0  0  0
    2.3869   -2.1129    3.4345 H   0  0  0  0  0  0  0  0  0  0  0  0
    2.2806   -0.7516    2.3457 H   0  0  0  0  0  0  0  0  0  0  0  0
    5.3597   -2.5509    3.2712 H   0  0  0  0  0  0  0  0  0  0  0  0
    5.1775   -4.9574    3.4189 H   0  0  0  0  0  0  0  0  0  0  0  0
    2.5697   -4.0471    2.9933 H   0  0  0  0  0  0  0  0  0  0  0  0
    6.5927   -0.2045    0.1493 H   0  0  0  0  0  0  0  0  0  0  0  0
  1  2  1  0
  1 21  1  0
  1 22  1  0
  1 23  1  0
  2 18  1  0
  2  3  1  0
  2 24  1  6
  3  4  1  0
  4 20  1  0
  4  5  1  0
  4 25  1  6
  5 14  1  0
  5  6  1  0
  5 26  1  1
  6  7  1  0
  6 27  1  0
  6 28  1  0
  7 15  1  0
  7  8  1  1
  7  9  1  0
  8 29  1  0
  9 10  1  0
  9 11  1  0
  9 30  1  6
 10 31  1  0
 10 32  1  0
 10 33  1  0
 11 12  1  0
 11 34  1  0
 11 35  1  0
 12 13  1  1
 12 14  1  0
 12 17  1  0
 13 36  1  0
 13 37  1  0
 13 38  1  0
 14 15  1  0
 14 39  1  1
 15 16  1  0
 15 40  1  1
 16 41  1  0
 17 20  1  0
 17 18  1  6
 17 19  1  0
 19 20  1  0
 20 42  1  6
M  END
>  <i_m_ct_stereo_status>  (347) 
1

>  <s_m_source_file>  (347) 
/var/tmp/pbs.5076255.sched01/tmp1uy3qkd6/1269t22etaf.sdf

>  <i_m_source_file_index>  (347) 
32

>  <i_lp_mmshare_version>  (347) 
48012

>  <i_f3d_flags>  (347) 
0

>  <s_epik_input>  (347) 
W0NIM11bQ0BASF0oTzEpT1tDQEBIXShbQ0hdMk8zKVtDQEBIXShbQ0BIXTRbQ0BdNShDMTIzKVtDSDNdKVtDSDJdW0NAXShbT0hdKShbQ0BASF0oW0NIM10pW0NIMl01KVtDQEBIXTRbT0hd

>  <s_epik_cmdline>  (347) 
J2VwaWtfcHl0aG9uJywgJy1waHQnLCAnMi4wJywgJy1waCcsICc3LjAnLCAnLXRuJywgJzgnLCAnLW1hJywgJzIwMCcsICctaW1hZScsICc8aW5maWxlLm1hZT4nLCAnLW9tYWUnLCAnPG91dGZpbGUubWFlPic=

>  <r_lp_tautomer_probability>  (347) 
1

>  <r_epik_Ionization_Penalty>  (347) 
5.11508e-07

>  <r_epik_Ionization_Penalty_Charging>  (347) 
0

>  <r_epik_Ionization_Penalty_Neutral>  (347) 
5.11508e-07

>  <r_epik_State_Penalty>  (347) 
-0

>  <r_epik_Charging_Adjusted_Penalty>  (347) 
0

>  <i_epik_Tot_Q>  (347) 
0

>  <i_epik_Tot_abs_Q>  (347) 
0

>  <s_epik_Chemistry_Notes>  (347) 
This compound contains an acetal/aminal-like group ( X-CH(R)-Y where X, Y are N, S, or O) that may be acid/base labile, releasing an aldehyde.

>  <s_lp_Force_Field>  (347) 
OPLS3e

>  <r_lp_Energy>  (347) 
142.478

>  <b_lp_Chiralities_Consistent>  (347) 
1

>  <s_lp_Variant>  (347) 
109:0-1

>  <s_i_glide_gridfile>  (347) 
pfpi4k_grid

>  <i_i_glide_lignum>  (347) 
32

>  <i_i_glide_rotatable_bonds>  (347) 
2

>  <r_i_docking_score>  (347) 
-3.40604

>  <r_i_glide_ligand_efficiency>  (347) 
-0.170302

>  <r_i_glide_ligand_efficiency_sa>  (347) 
-0.462271

>  <r_i_glide_ligand_efficiency_ln>  (347) 
-0.852419

>  <r_i_glide_gscore>  (347) 
-3.40604

>  <r_i_glide_lipo>  (347) 
-0.421026

>  <r_i_glide_hbond>  (347) 
-0.212596

>  <r_i_glide_metal>  (347) 
-0

>  <r_i_glide_rewards>  (347) 
-1.55436

>  <r_i_glide_evdw>  (347) 
-20.7406

>  <r_i_glide_ecoul>  (347) 
-0.894724

>  <r_i_glide_erotb>  (347) 
0

>  <r_i_glide_esite>  (347) 
-0.0468216

>  <r_i_glide_emodel>  (347) 
-25.7182

>  <r_i_glide_energy>  (347) 
-21.6353

>  <r_i_glide_einternal>  (347) 
0.0468006

>  <r_i_glide_intrahb_reward>  (347) 
-0

>  <i_i_glide_confnum>  (347) 
2

>  <i_i_glide_posenum>  (347) 
32

>  <r_i_glide_eff_state_penalty>  (347) 
0

>  <ligand_id>  (347) 
109

>  <original_smiles>  (347) 
CC1OC2C3CC4(O)C(C)CC(C)(C3C4O)C3(O1)OC23

>  <smiles>  (347) 
[H]OC1([H])C2([H])C3([H])C([H])([H])C1(O[H])C([H])(C([H])([H])[H])C([H])([H])C2(C([H])([H])[H])C12OC([H])(C([H])([H])[H])OC3([H])C1([H])O2

$$$$
109:0:1
     RDKit          3D

 42 46  0  0  1  0  0  0  0  0999 V2000
    2.6380   -3.0341   -3.0479 C   0  0  0  0  0  0  0  0  0  0  0  0
    3.9035   -2.3433   -2.5206 C   0  0  2  0  0  0  0  0  0  0  0  0
    4.9055   -3.3474   -2.2531 O   0  0  0  0  0  0  0  0  0  0  0  0
    5.7667   -3.1219   -1.1141 C   0  0  1  0  0  0  0  0  0  0  0  0
    6.0512   -3.8592    0.2221 C   0  0  2  0  0  0  0  0  0  0  0  0
    5.6801   -5.3624    0.2593 C   0  0  0  0  0  0  0  0  0  0  0  0
    4.4885   -5.4510    1.2257 C   0  0  2  0  0  0  0  0  0  0  0  0
    4.4453   -6.7744    1.7249 O   0  0  0  0  0  0  0  0  0  0  0  0
    3.1682   -4.9924    0.5088 C   0  0  1  0  0  0  0  0  0  0  0  0
    1.9321   -5.8429    0.8626 C   0  0  0  0  0  0  0  0  0  0  0  0
    2.8246   -3.4849    0.7144 C   0  0  0  0  0  0  0  0  0  0  0  0
    3.9891   -2.4732    0.9872 C   0  0  1  0  0  0  0  0  0  0  0  0
    3.5051   -1.4837    2.0674 C   0  0  0  0  0  0  0  0  0  0  0  0
    5.2803   -3.2382    1.4472 C   0  0  1  0  0  0  0  0  0  0  0  0
    4.9766   -4.4780    2.2995 C   0  0  1  0  0  0  0  0  0  0  0  0
    4.0699   -4.3004    3.3634 O   0  0  0  0  0  0  0  0  0  0  0  0
    4.3749   -1.6063   -0.2386 C   0  0  1  0  0  0  0  0  0  0  0  0
    3.5625   -1.5152   -1.4108 O   0  0  0  0  0  0  0  0  0  0  0  0
    5.3538   -0.6529    0.0218 O   0  0  0  0  0  0  0  0  0  0  0  0
    5.7782   -1.6266   -0.9495 C   0  0  1  0  0  0  0  0  0  0  0  0
    2.2656   -3.7704   -2.3288 H   0  0  0  0  0  0  0  0  0  0  0  0
    2.8657   -3.5573   -3.9778 H   0  0  0  0  0  0  0  0  0  0  0  0
    1.8488   -2.3038   -3.2357 H   0  0  0  0  0  0  0  0  0  0  0  0
    4.2994   -1.6788   -3.2928 H   0  0  0  0  0  0  0  0  0  0  0  0
    4.8272   -3.6059   -0.9096 H   0  0  0  0  0  0  0  0  0  0  0  0
    7.1232   -3.7706    0.4191 H   0  0  0  0  0  0  0  0  0  0  0  0
    5.4674   -5.7916   -0.7200 H   0  0  0  0  0  0  0  0  0  0  0  0
    6.5326   -5.9134    0.6663 H   0  0  0  0  0  0  0  0  0  0  0  0
    4.2147   -7.3553    1.0171 H   0  0  0  0  0  0  0  0  0  0  0  0
    3.3082   -5.1496   -0.5619 H   0  0  0  0  0  0  0  0  0  0  0  0
    1.6692   -5.7673    1.9208 H   0  0  0  0  0  0  0  0  0  0  0  0
    2.0489   -6.8978    0.6192 H   0  0  0  0  0  0  0  0  0  0  0  0
    1.0821   -5.4974    0.2795 H   0  0  0  0  0  0  0  0  0  0  0  0
    2.2260   -3.1333   -0.1173 H   0  0  0  0  0  0  0  0  0  0  0  0
    2.1395   -3.4376    1.5609 H   0  0  0  0  0  0  0  0  0  0  0  0
    4.2820   -0.7747    2.3577 H   0  0  0  0  0  0  0  0  0  0  0  0
    3.1752   -1.9776    2.9753 H   0  0  0  0  0  0  0  0  0  0  0  0
    2.6589   -0.9027    1.6967 H   0  0  0  0  0  0  0  0  0  0  0  0
    5.9388   -2.5524    1.9825 H   0  0  0  0  0  0  0  0  0  0  0  0
    5.9041   -4.8471    2.7460 H   0  0  0  0  0  0  0  0  0  0  0  0
    3.9560   -5.1412    3.7757 H   0  0  0  0  0  0  0  0  0  0  0  0
    5.9754   -1.1003   -1.8732 H   0  0  0  0  0  0  0  0  0  0  0  0
  1  2  1  0
  1 21  1  0
  1 22  1  0
  1 23  1  0
  2 18  1  0
  2  3  1  0
  2 24  1  6
  3  4  1  0
  4 20  1  0
  4  5  1  0
  4 25  1  6
  5 14  1  0
  5  6  1  0
  5 26  1  1
  6  7  1  0
  6 27  1  0
  6 28  1  0
  7 15  1  0
  7  8  1  1
  7  9  1  0
  8 29  1  0
  9 10  1  0
  9 11  1  0
  9 30  1  6
 10 31  1  0
 10 32  1  0
 10 33  1  0
 11 12  1  0
 11 34  1  0
 11 35  1  0
 12 13  1  1
 12 14  1  0
 12 17  1  0
 13 36  1  0
 13 37  1  0
 13 38  1  0
 14 15  1  0
 14 39  1  1
 15 16  1  0
 15 40  1  1
 16 41  1  0
 17 20  1  0
 17 18  1  6
 17 19  1  0
 19 20  1  0
 20 42  1  6
M  END
>  <i_m_ct_stereo_status>  (348) 
1

>  <s_m_source_file>  (348) 
/var/tmp/pbs.5076255.sched01/tmp1uy3qkd6/1269t22etaf.sdf

>  <i_m_source_file_index>  (348) 
32

>  <i_lp_mmshare_version>  (348) 
48012

>  <i_f3d_flags>  (348) 
0

>  <s_epik_input>  (348) 
W0NIM11bQ0BASF0oTzEpT1tDQEBIXShbQ0hdMk8zKVtDQEBIXShbQ0BIXTRbQ0BdNShDMTIzKVtDSDNdKVtDSDJdW0NAXShbT0hdKShbQ0BASF0oW0NIM10pW0NIMl01KVtDQEBIXTRbT0hd

>  <s_epik_cmdline>  (348) 
J2VwaWtfcHl0aG9uJywgJy1waHQnLCAnMi4wJywgJy1waCcsICc3LjAnLCAnLXRuJywgJzgnLCAnLW1hJywgJzIwMCcsICctaW1hZScsICc8aW5maWxlLm1hZT4nLCAnLW9tYWUnLCAnPG91dGZpbGUubWFlPic=

>  <r_lp_tautomer_probability>  (348) 
1

>  <r_epik_Ionization_Penalty>  (348) 
5.11508e-07

>  <r_epik_Ionization_Penalty_Charging>  (348) 
0

>  <r_epik_Ionization_Penalty_Neutral>  (348) 
5.11508e-07

>  <r_epik_State_Penalty>  (348) 
-0

>  <r_epik_Charging_Adjusted_Penalty>  (348) 
0

>  <i_epik_Tot_Q>  (348) 
0

>  <i_epik_Tot_abs_Q>  (348) 
0

>  <s_epik_Chemistry_Notes>  (348) 
This compound contains an acetal/aminal-like group ( X-CH(R)-Y where X, Y are N, S, or O) that may be acid/base labile, releasing an aldehyde.

>  <s_lp_Force_Field>  (348) 
OPLS3e

>  <r_lp_Energy>  (348) 
142.478

>  <b_lp_Chiralities_Consistent>  (348) 
1

>  <s_lp_Variant>  (348) 
109:0-1

>  <s_i_glide_gridfile>  (348) 
pfpi4k_grid

>  <i_i_glide_lignum>  (348) 
32

>  <i_i_glide_rotatable_bonds>  (348) 
2

>  <r_i_docking_score>  (348) 
-2.87497

>  <r_i_glide_ligand_efficiency>  (348) 
-0.143749

>  <r_i_glide_ligand_efficiency_sa>  (348) 
-0.390194

>  <r_i_glide_ligand_efficiency_ln>  (348) 
-0.719511

>  <r_i_glide_gscore>  (348) 
-2.87497

>  <r_i_glide_lipo>  (348) 
-0.453616

>  <r_i_glide_hbond>  (348) 
0

>  <r_i_glide_metal>  (348) 
-0

>  <r_i_glide_rewards>  (348) 
-1.54341

>  <r_i_glide_evdw>  (348) 
-23.9188

>  <r_i_glide_ecoul>  (348) 
2.29972

>  <r_i_glide_erotb>  (348) 
0

>  <r_i_glide_esite>  (348) 
-0.0269656

>  <r_i_glide_emodel>  (348) 
-24.8984

>  <r_i_glide_energy>  (348) 
-21.6191

>  <r_i_glide_einternal>  (348) 
0.317119

>  <r_i_glide_intrahb_reward>  (348) 
-0

>  <i_i_glide_confnum>  (348) 
2

>  <i_i_glide_posenum>  (348) 
15

>  <r_i_glide_eff_state_penalty>  (348) 
0

>  <ligand_id>  (348) 
109

>  <original_smiles>  (348) 
CC1OC2C3CC4(O)C(C)CC(C)(C3C4O)C3(O1)OC23

>  <smiles>  (348) 
[H]OC1([H])C2([H])C3([H])C([H])([H])C1(O[H])C([H])(C([H])([H])[H])C([H])([H])C2(C([H])([H])[H])C12OC([H])(C([H])([H])[H])OC3([H])C1([H])O2

$$$$
109:0:2
     RDKit          3D

 42 46  0  0  1  0  0  0  0  0999 V2000
    3.3486   -3.0424   -2.9839 C   0  0  0  0  0  0  0  0  0  0  0  0
    4.3927   -2.2085   -2.2346 C   0  0  2  0  0  0  0  0  0  0  0  0
    5.4286   -3.0817   -1.7382 O   0  0  0  0  0  0  0  0  0  0  0  0
    5.9951   -2.7445   -0.4533 C   0  0  1  0  0  0  0  0  0  0  0  0
    6.0955   -3.4457    0.9329 C   0  0  2  0  0  0  0  0  0  0  0  0
    5.8977   -4.9802    0.9329 C   0  0  0  0  0  0  0  0  0  0  0  0
    4.5442   -5.1908    1.6451 C   0  0  2  0  0  0  0  0  0  0  0  0
    4.5283   -6.5092    2.1573 O   0  0  0  0  0  0  0  0  0  0  0  0
    3.3427   -4.8880    0.6719 C   0  0  1  0  0  0  0  0  0  0  0  0
    2.1476   -5.8537    0.7929 C   0  0  0  0  0  0  0  0  0  0  0  0
    2.8100   -3.4201    0.7438 C   0  0  0  0  0  0  0  0  0  0  0  0
    3.7771   -2.2814    1.2181 C   0  0  1  0  0  0  0  0  0  0  0  0
    2.9758   -1.3427    2.1510 C   0  0  0  0  0  0  0  0  0  0  0  0
    5.0261   -2.9028    1.9537 C   0  0  1  0  0  0  0  0  0  0  0  0
    4.6865   -4.1588    2.7724 C   0  0  1  0  0  0  0  0  0  0  0  0
    3.5669   -4.0360    3.6240 O   0  0  0  0  0  0  0  0  0  0  0  0
    4.3100   -1.3823    0.0715 C   0  0  1  0  0  0  0  0  0  0  0  0
    3.7342   -1.4182   -1.2458 O   0  0  0  0  0  0  0  0  0  0  0  0
    5.1034   -0.3289    0.5234 O   0  0  0  0  0  0  0  0  0  0  0  0
    5.8112   -1.2475   -0.3172 C   0  0  1  0  0  0  0  0  0  0  0  0
    2.9185   -3.8010   -2.3272 H   0  0  0  0  0  0  0  0  0  0  0  0
    3.8192   -3.5410   -3.8310 H   0  0  0  0  0  0  0  0  0  0  0  0
    2.5444   -2.4000   -3.3486 H   0  0  0  0  0  0  0  0  0  0  0  0
    4.8665   -1.5088   -2.9264 H   0  0  0  0  0  0  0  0  0  0  0  0
    5.1009   -3.3454   -0.4289 H   0  0  0  0  0  0  0  0  0  0  0  0
    7.0873   -3.2338    1.3347 H   0  0  0  0  0  0  0  0  0  0  0  0
    5.9520   -5.4363   -0.0583 H   0  0  0  0  0  0  0  0  0  0  0  0
    6.6953   -5.4281    1.5300 H   0  0  0  0  0  0  0  0  0  0  0  0
    4.4905   -7.1194    1.4364 H   0  0  0  0  0  0  0  0  0  0  0  0
    3.7085   -5.0505   -0.3436 H   0  0  0  0  0  0  0  0  0  0  0  0
    1.6805   -5.8004    1.7765 H   0  0  0  0  0  0  0  0  0  0  0  0
    2.4369   -6.8876    0.6121 H   0  0  0  0  0  0  0  0  0  0  0  0
    1.3966   -5.6002    0.0451 H   0  0  0  0  0  0  0  0  0  0  0  0
    2.3481   -3.1482   -0.2008 H   0  0  0  0  0  0  0  0  0  0  0  0
    1.9662   -3.4404    1.4335 H   0  0  0  0  0  0  0  0  0  0  0  0
    3.5996   -0.5510    2.5669 H   0  0  0  0  0  0  0  0  0  0  0  0
    2.5161   -1.8537    2.9933 H   0  0  0  0  0  0  0  0  0  0  0  0
    2.1698   -0.8626    1.5947 H   0  0  0  0  0  0  0  0  0  0  0  0
    5.4845   -2.1439    2.5894 H   0  0  0  0  0  0  0  0  0  0  0  0
    5.5345   -4.4196    3.4097 H   0  0  0  0  0  0  0  0  0  0  0  0
    2.8224   -3.8004    3.0941 H   0  0  0  0  0  0  0  0  0  0  0  0
    6.1417   -0.7149   -1.2017 H   0  0  0  0  0  0  0  0  0  0  0  0
  1  2  1  0
  1 21  1  0
  1 22  1  0
  1 23  1  0
  2 18  1  0
  2  3  1  0
  2 24  1  6
  3  4  1  0
  4 20  1  0
  4  5  1  0
  4 25  1  6
  5 14  1  0
  5  6  1  0
  5 26  1  1
  6  7  1  0
  6 27  1  0
  6 28  1  0
  7 15  1  0
  7  8  1  1
  7  9  1  0
  8 29  1  0
  9 10  1  0
  9 11  1  0
  9 30  1  6
 10 31  1  0
 10 32  1  0
 10 33  1  0
 11 12  1  0
 11 34  1  0
 11 35  1  0
 12 13  1  1
 12 14  1  0
 12 17  1  0
 13 36  1  0
 13 37  1  0
 13 38  1  0
 14 15  1  0
 14 39  1  1
 15 16  1  0
 15 40  1  1
 16 41  1  0
 17 20  1  0
 17 18  1  6
 17 19  1  0
 19 20  1  0
 20 42  1  6
M  END
>  <i_m_ct_stereo_status>  (349) 
1

>  <s_m_source_file>  (349) 
/var/tmp/pbs.5076255.sched01/tmp1uy3qkd6/1269t22etaf.sdf

>  <i_m_source_file_index>  (349) 
32

>  <i_lp_mmshare_version>  (349) 
48012

>  <i_f3d_flags>  (349) 
0

>  <s_epik_input>  (349) 
W0NIM11bQ0BASF0oTzEpT1tDQEBIXShbQ0hdMk8zKVtDQEBIXShbQ0BIXTRbQ0BdNShDMTIzKVtDSDNdKVtDSDJdW0NAXShbT0hdKShbQ0BASF0oW0NIM10pW0NIMl01KVtDQEBIXTRbT0hd

>  <s_epik_cmdline>  (349) 
J2VwaWtfcHl0aG9uJywgJy1waHQnLCAnMi4wJywgJy1waCcsICc3LjAnLCAnLXRuJywgJzgnLCAnLW1hJywgJzIwMCcsICctaW1hZScsICc8aW5maWxlLm1hZT4nLCAnLW9tYWUnLCAnPG91dGZpbGUubWFlPic=

>  <r_lp_tautomer_probability>  (349) 
1

>  <r_epik_Ionization_Penalty>  (349) 
5.11508e-07

>  <r_epik_Ionization_Penalty_Charging>  (349) 
0

>  <r_epik_Ionization_Penalty_Neutral>  (349) 
5.11508e-07

>  <r_epik_State_Penalty>  (349) 
-0

>  <r_epik_Charging_Adjusted_Penalty>  (349) 
0

>  <i_epik_Tot_Q>  (349) 
0

>  <i_epik_Tot_abs_Q>  (349) 
0

>  <s_epik_Chemistry_Notes>  (349) 
This compound contains an acetal/aminal-like group ( X-CH(R)-Y where X, Y are N, S, or O) that may be acid/base labile, releasing an aldehyde.

>  <s_lp_Force_Field>  (349) 
OPLS3e

>  <r_lp_Energy>  (349) 
142.478

>  <b_lp_Chiralities_Consistent>  (349) 
1

>  <s_lp_Variant>  (349) 
109:0-1

>  <s_i_glide_gridfile>  (349) 
pfpi4k_grid

>  <i_i_glide_lignum>  (349) 
32

>  <i_i_glide_rotatable_bonds>  (349) 
2

>  <r_i_docking_score>  (349) 
-2.76168

>  <r_i_glide_ligand_efficiency>  (349) 
-0.138084

>  <r_i_glide_ligand_efficiency_sa>  (349) 
-0.374818

>  <r_i_glide_ligand_efficiency_ln>  (349) 
-0.691158

>  <r_i_glide_gscore>  (349) 
-2.76168

>  <r_i_glide_lipo>  (349) 
-0.268166

>  <r_i_glide_hbond>  (349) 
0

>  <r_i_glide_metal>  (349) 
-0

>  <r_i_glide_rewards>  (349) 
-1.51581

>  <r_i_glide_evdw>  (349) 
-22.9156

>  <r_i_glide_ecoul>  (349) 
1.28455

>  <r_i_glide_erotb>  (349) 
0

>  <r_i_glide_esite>  (349) 
-0.0246053

>  <r_i_glide_emodel>  (349) 
-24.955

>  <r_i_glide_energy>  (349) 
-21.6311

>  <r_i_glide_einternal>  (349) 
0.0263336

>  <r_i_glide_intrahb_reward>  (349) 
-0

>  <i_i_glide_confnum>  (349) 
2

>  <i_i_glide_posenum>  (349) 
34

>  <r_i_glide_eff_state_penalty>  (349) 
0

>  <ligand_id>  (349) 
109

>  <original_smiles>  (349) 
CC1OC2C3CC4(O)C(C)CC(C)(C3C4O)C3(O1)OC23

>  <smiles>  (349) 
[H]OC1([H])C2([H])C3([H])C([H])([H])C1(O[H])C([H])(C([H])([H])[H])C([H])([H])C2(C([H])([H])[H])C12OC([H])(C([H])([H])[H])OC3([H])C1([H])O2

$$$$
110:0:0
     RDKit          3D

 79 84  0  0  1  0  0  0  0  0999 V2000
    3.5790   -2.7576   -1.2623 C   0  0  0  0  0  0  0  0  0  0  0  0
    3.5892   -3.3624    0.1329 C   0  0  0  0  0  0  0  0  0  0  0  0
    3.8185   -2.6821    1.2878 C   0  0  0  0  0  0  0  0  0  0  0  0
    3.8385   -3.3572    2.6606 C   0  0  2  0  0  0  0  0  0  0  0  0
    4.9353   -2.5657    3.3905 C   0  0  0  0  0  0  0  0  0  0  0  0
    4.6691   -1.1272    2.9469 C   0  0  1  0  0  0  0  0  0  0  0  0
    5.7611   -0.2700    3.2242 O   0  0  0  0  0  0  0  0  0  0  0  0
    4.2147   -1.2015    1.4639 C   0  0  0  0  0  0  0  0  0  0  0  0
    5.3565   -0.7613    0.5149 C   0  0  0  0  0  0  0  0  0  0  0  0
    2.9906   -0.2830    1.2839 C   0  0  0  0  0  0  0  0  0  0  0  0
    3.9177   -4.9267    2.6365 C   0  0  2  0  0  0  0  0  0  0  0  0
    5.3505   -5.4016    2.2709 C   0  0  0  0  0  0  0  0  0  0  0  0
    2.9619   -5.3716    1.5096 C   0  0  0  0  0  0  0  0  0  0  0  0
    1.8299   -6.0822    1.7064 C   0  0  0  0  0  0  0  0  0  0  0  0
    1.2904   -6.4877    3.0625 C   0  0  0  0  0  0  0  0  0  0  0  0
    1.9717   -5.6837    4.1769 C   0  0  1  0  0  0  0  0  0  0  0  0
    1.7762   -6.2227    5.6059 C   0  0  2  0  0  0  0  0  0  0  0  0
    0.4287   -5.8538    6.2562 C   0  0  0  0  0  0  0  0  0  0  0  0
    0.4050   -6.2071    7.7505 C   0  0  1  0  0  0  0  0  0  0  0  0
    0.2239   -7.6075    7.8111 O   0  0  0  0  0  0  0  0  0  0  0  0
    1.6177   -5.6449    8.5828 C   0  0  1  0  0  0  0  0  0  0  0  0
    2.1217   -6.5208    9.7996 C   0  0  0  0  0  0  0  0  0  0  0  0
    0.9488   -6.8360   10.7724 C   0  0  0  0  0  0  0  0  0  0  0  0
    2.8182   -7.8476    9.3879 C   0  0  0  0  0  0  0  0  0  0  0  0
    3.1988   -5.7292   10.5726 C   0  0  0  0  0  0  0  0  0  0  0  0
    3.1953   -5.6911   11.8027 O   0  0  0  0  0  0  0  0  0  0  0  0
    4.2481   -5.0833    9.7862 C   0  0  0  0  0  0  0  0  0  0  0  0
    4.0438   -4.7717    8.4941 C   0  0  0  0  0  0  0  0  0  0  0  0
    2.7417   -4.9383    7.7099 C   0  0  2  0  0  0  0  0  0  0  0  0
    2.3220   -3.4683    7.4091 C   0  0  0  0  0  0  0  0  0  0  0  0
    3.0258   -5.7699    6.4059 C   0  0  2  0  0  0  0  0  0  0  0  0
    3.9606   -5.1222    5.3452 C   0  0  1  0  0  0  0  0  0  0  0  0
    5.3266   -5.3912    5.5957 O   0  0  0  0  0  0  0  0  0  0  0  0
    3.4855   -5.6454    3.9777 C   0  0  2  0  0  0  0  0  0  0  0  0
    3.3176   -4.8595    0.1236 C   0  0  0  0  0  0  0  0  0  0  0  0
    2.8317   -3.2475   -1.8886 H   0  0  0  0  0  0  0  0  0  0  0  0
    4.5482   -2.8873   -1.7436 H   0  0  0  0  0  0  0  0  0  0  0  0
    3.3143   -1.7030   -1.2623 H   0  0  0  0  0  0  0  0  0  0  0  0
    2.8800   -3.0867    3.1024 H   0  0  0  0  0  0  0  0  0  0  0  0
    4.9201   -2.6243    4.4749 H   0  0  0  0  0  0  0  0  0  0  0  0
    5.9200   -2.8871    3.0602 H   0  0  0  0  0  0  0  0  0  0  0  0
    3.8411   -0.7636    3.5560 H   0  0  0  0  0  0  0  0  0  0  0  0
    6.4991   -0.5502    2.7014 H   0  0  0  0  0  0  0  0  0  0  0  0
    5.6973    0.2415    0.7615 H   0  0  0  0  0  0  0  0  0  0  0  0
    5.0488   -0.6958   -0.5231 H   0  0  0  0  0  0  0  0  0  0  0  0
    6.2137   -1.4304    0.5747 H   0  0  0  0  0  0  0  0  0  0  0  0
    3.2236    0.7476    1.5588 H   0  0  0  0  0  0  0  0  0  0  0  0
    2.1529   -0.6101    1.9057 H   0  0  0  0  0  0  0  0  0  0  0  0
    2.6296   -0.2719    0.2570 H   0  0  0  0  0  0  0  0  0  0  0  0
    6.0578   -5.2380    3.0809 H   0  0  0  0  0  0  0  0  0  0  0  0
    5.7462   -4.8738    1.4013 H   0  0  0  0  0  0  0  0  0  0  0  0
    5.3680   -6.4673    2.0338 H   0  0  0  0  0  0  0  0  0  0  0  0
    1.2216   -6.3669    0.8606 H   0  0  0  0  0  0  0  0  0  0  0  0
    0.2162   -6.3053    3.0824 H   0  0  0  0  0  0  0  0  0  0  0  0
    1.4456   -7.5612    3.1842 H   0  0  0  0  0  0  0  0  0  0  0  0
    1.6006   -4.6572    4.1484 H   0  0  0  0  0  0  0  0  0  0  0  0
    1.8134   -7.3132    5.5495 H   0  0  0  0  0  0  0  0  0  0  0  0
    0.1954   -4.8029    6.1166 H   0  0  0  0  0  0  0  0  0  0  0  0
   -0.3822   -6.3737    5.7444 H   0  0  0  0  0  0  0  0  0  0  0  0
   -0.5124   -5.8001    8.1791 H   0  0  0  0  0  0  0  0  0  0  0  0
    0.9761   -8.0338    7.4290 H   0  0  0  0  0  0  0  0  0  0  0  0
    1.1510   -4.8103    9.1084 H   0  0  0  0  0  0  0  0  0  0  0  0
    0.1883   -7.4718   10.3250 H   0  0  0  0  0  0  0  0  0  0  0  0
    0.4608   -5.9210   11.1068 H   0  0  0  0  0  0  0  0  0  0  0  0
    1.2889   -7.3592   11.6666 H   0  0  0  0  0  0  0  0  0  0  0  0
    2.1564   -8.5726    8.9182 H   0  0  0  0  0  0  0  0  0  0  0  0
    3.2354   -8.3516   10.2620 H   0  0  0  0  0  0  0  0  0  0  0  0
    3.6506   -7.6714    8.7060 H   0  0  0  0  0  0  0  0  0  0  0  0
    5.1927   -4.8845   10.2703 H   0  0  0  0  0  0  0  0  0  0  0  0
    4.8543   -4.3053    7.9469 H   0  0  0  0  0  0  0  0  0  0  0  0
    1.5289   -3.3580    6.6781 H   0  0  0  0  0  0  0  0  0  0  0  0
    3.1594   -2.8784    7.0365 H   0  0  0  0  0  0  0  0  0  0  0  0
    1.9998   -2.9522    8.3158 H   0  0  0  0  0  0  0  0  0  0  0  0
    3.5016   -6.6965    6.7205 H   0  0  0  0  0  0  0  0  0  0  0  0
    3.7911   -4.0584    5.3717 H   0  0  0  0  0  0  0  0  0  0  0  0
    5.4650   -6.3280    5.5601 H   0  0  0  0  0  0  0  0  0  0  0  0
    3.8052   -6.6865    3.9071 H   0  0  0  0  0  0  0  0  0  0  0  0
    2.4939   -5.0673   -0.5607 H   0  0  0  0  0  0  0  0  0  0  0  0
    4.1942   -5.3807   -0.2604 H   0  0  0  0  0  0  0  0  0  0  0  0
  1  2  1  0
  1 36  1  0
  1 37  1  0
  1 38  1  0
  2 35  1  0
  2  3  2  0
  3  8  1  0
  3  4  1  0
  4  5  1  0
  4 11  1  0
  4 39  1  1
  5  6  1  0
  5 40  1  0
  5 41  1  0
  6  7  1  0
  6  8  1  0
  6 42  1  1
  7 43  1  0
  8  9  1  0
  8 10  1  0
  9 44  1  0
  9 45  1  0
  9 46  1  0
 10 47  1  0
 10 48  1  0
 10 49  1  0
 11 34  1  0
 11 12  1  6
 11 13  1  0
 12 50  1  0
 12 51  1  0
 12 52  1  0
 13 14  2  0
 13 35  1  0
 14 15  1  0
 14 53  1  0
 15 16  1  0
 15 54  1  0
 15 55  1  0
 16 34  1  0
 16 17  1  0
 16 56  1  1
 17 31  1  0
 17 18  1  0
 17 57  1  6
 18 19  1  0
 18 58  1  0
 18 59  1  0
 19 20  1  0
 19 21  1  0
 19 60  1  1
 20 61  1  0
 21 29  1  0
 21 22  1  0
 21 62  1  1
 22 23  1  0
 22 24  1  0
 22 25  1  0
 23 63  1  0
 23 64  1  0
 23 65  1  0
 24 66  1  0
 24 67  1  0
 24 68  1  0
 25 26  2  0
 25 27  1  0
 27 28  2  0
 27 69  1  0
 28 29  1  0
 28 70  1  0
 29 30  1  6
 29 31  1  0
 30 71  1  0
 30 72  1  0
 30 73  1  0
 31 32  1  0
 31 74  1  1
 32 33  1  0
 32 34  1  0
 32 75  1  6
 33 76  1  0
 34 77  1  6
 35 78  1  0
 35 79  1  0
M  END
>  <i_m_ct_stereo_status>  (350) 
1

>  <s_m_source_file>  (350) 
/var/tmp/pbs.5076255.sched01/tmp1uy3qkd6/1269t22etaf.sdf

>  <i_m_source_file_index>  (350) 
33

>  <i_lp_mmshare_version>  (350) 
48012

>  <i_f3d_flags>  (350) 
0

>  <s_epik_input>  (350) 
W0NIMl0xW0NAQEhdKFtPSF0pQyhbQ0gzXSkoW0NIM10pQyhbQ0BIXTFbQ0BdMjNbQ0gzXSk9QyhbQ0gzXSlbQ0gyXUMyPVtDSF1bQ0gyXVtDQEhdNFtDQEhdNVtDQEBIXShbQ0BASF0oW09IXSlbQ0BIXTM0KVtDQEBdNihbQ0gzXSlbQ0BASF0oW0NAQEhdKFtDSDJdNSlbT0hdKUMoW0NIM10pKFtDSDNdKUMoPU8pW0NIXT1bQ0hdNg==

>  <s_epik_cmdline>  (350) 
J2VwaWtfcHl0aG9uJywgJy1waHQnLCAnMi4wJywgJy1waCcsICc3LjAnLCAnLXRuJywgJzgnLCAnLW1hJywgJzIwMCcsICctaW1hZScsICc8aW5maWxlLm1hZT4nLCAnLW9tYWUnLCAnPG91dGZpbGUubWFlPic=

>  <r_lp_tautomer_probability>  (350) 
1

>  <r_epik_Ionization_Penalty>  (350) 
1.98817e-06

>  <r_epik_Ionization_Penalty_Charging>  (350) 
0

>  <r_epik_Ionization_Penalty_Neutral>  (350) 
1.98817e-06

>  <r_epik_State_Penalty>  (350) 
-0

>  <r_epik_Charging_Adjusted_Penalty>  (350) 
0

>  <i_epik_Tot_Q>  (350) 
0

>  <i_epik_Tot_abs_Q>  (350) 
0

>  <s_lp_Force_Field>  (350) 
OPLS3e

>  <r_lp_Energy>  (350) 
65.3973

>  <b_lp_Chiralities_Consistent>  (350) 
1

>  <s_lp_Variant>  (350) 
110:0-1

>  <s_i_glide_gridfile>  (350) 
pfpi4k_grid

>  <i_i_glide_lignum>  (350) 
33

>  <i_i_glide_rotatable_bonds>  (350) 
3

>  <r_i_docking_score>  (350) 
-1.96458

>  <r_i_glide_ligand_efficiency>  (350) 
-0.0561309

>  <r_i_glide_ligand_efficiency_sa>  (350) 
-0.183608

>  <r_i_glide_ligand_efficiency_ln>  (350) 
-0.431269

>  <r_i_glide_gscore>  (350) 
-1.96458

>  <r_i_glide_lipo>  (350) 
-0.281824

>  <r_i_glide_hbond>  (350) 
0

>  <r_i_glide_metal>  (350) 
-0

>  <r_i_glide_rewards>  (350) 
-0.131736

>  <r_i_glide_evdw>  (350) 
-25.199

>  <r_i_glide_ecoul>  (350) 
-1.94049

>  <r_i_glide_erotb>  (350) 
0

>  <r_i_glide_esite>  (350) 
0

>  <r_i_glide_emodel>  (350) 
-30.1897

>  <r_i_glide_energy>  (350) 
-27.1395

>  <r_i_glide_einternal>  (350) 
0.0389419

>  <r_i_glide_intrahb_reward>  (350) 
-0

>  <i_i_glide_confnum>  (350) 
2

>  <i_i_glide_posenum>  (350) 
4

>  <r_i_glide_eff_state_penalty>  (350) 
0

>  <ligand_id>  (350) 
110

>  <original_smiles>  (350) 
CC1=C2C(CC(O)C2(C)C)C2(C)C(=CCC3C4CC(O)C5C(C)(C)C(=O)C=CC5(C)C4C(O)C32)C1

>  <smiles>  (350) 
[H]OC1([H])C2([H])C([H])(C([H])([H])C([H])=C3C([H])([H])C(C([H])([H])[H])=C4C([H])(C([H])([H])C([H])(O[H])C4(C([H])([H])[H])C([H])([H])[H])C32C([H])([H])[H])C2([H])C([H])([H])C([H])(O[H])C3([H])C(C([H])([H])[H])(C([H])([H])[H])C(=O)C([H])=C([H])C3(C([H])([H])[H])C12[H]

$$$$
110:0:1
     RDKit          3D

 79 84  0  0  1  0  0  0  0  0999 V2000
    3.9341   -1.3276   -1.5105 C   0  0  0  0  0  0  0  0  0  0  0  0
    3.7663   -2.4254   -0.4735 C   0  0  0  0  0  0  0  0  0  0  0  0
    3.8580   -2.2705    0.8734 C   0  0  0  0  0  0  0  0  0  0  0  0
    3.7349   -3.4385    1.8556 C   0  0  2  0  0  0  0  0  0  0  0  0
    4.7589   -3.0572    2.9329 C   0  0  0  0  0  0  0  0  0  0  0  0
    4.5109   -1.5601    3.0861 C   0  0  1  0  0  0  0  0  0  0  0  0
    5.5663   -0.9311    3.7691 O   0  0  0  0  0  0  0  0  0  0  0  0
    4.2271   -1.0160    1.6681 C   0  0  0  0  0  0  0  0  0  0  0  0
    5.4681   -0.3157    1.0870 C   0  0  0  0  0  0  0  0  0  0  0  0
    3.0403   -0.0352    1.7551 C   0  0  0  0  0  0  0  0  0  0  0  0
    3.8118   -4.8676    1.2124 C   0  0  2  0  0  0  0  0  0  0  0  0
    5.2639   -5.2237    0.7953 C   0  0  0  0  0  0  0  0  0  0  0  0
    2.9568   -4.7591   -0.0769 C   0  0  0  0  0  0  0  0  0  0  0  0
    1.8041   -5.4183   -0.2843 C   0  0  0  0  0  0  0  0  0  0  0  0
    1.1235   -6.3193    0.7391 C   0  0  0  0  0  0  0  0  0  0  0  0
    1.7104   -6.0656    2.1272 C   0  0  1  0  0  0  0  0  0  0  0  0
    1.3711   -7.1376    3.1656 C   0  0  2  0  0  0  0  0  0  0  0  0
   -0.0297   -6.9840    3.7663 C   0  0  0  0  0  0  0  0  0  0  0  0
   -0.2124   -7.9193    4.9494 C   0  0  1  0  0  0  0  0  0  0  0  0
   -0.3661   -9.1886    4.3451 O   0  0  0  0  0  0  0  0  0  0  0  0
    0.8937   -7.7948    6.0764 C   0  0  1  0  0  0  0  0  0  0  0  0
    1.2763   -9.1108    6.8530 C   0  0  0  0  0  0  0  0  0  0  0  0
   -0.0059   -9.7098    7.4940 C   0  0  0  0  0  0  0  0  0  0  0  0
    2.0217  -10.1485    5.9524 C   0  0  0  0  0  0  0  0  0  0  0  0
    2.2627   -8.7623    7.9935 C   0  0  0  0  0  0  0  0  0  0  0  0
    2.0961   -9.1944    9.1341 O   0  0  0  0  0  0  0  0  0  0  0  0
    3.3988   -7.9139    7.6477 C   0  0  0  0  0  0  0  0  0  0  0  0
    3.3334   -7.0930    6.5826 C   0  0  0  0  0  0  0  0  0  0  0  0
    2.1115   -6.8634    5.6820 C   0  0  2  0  0  0  0  0  0  0  0  0
    1.7370   -5.3791    5.9681 C   0  0  0  0  0  0  0  0  0  0  0  0
    2.5289   -7.1121    4.1885 C   0  0  2  0  0  0  0  0  0  0  0  0
    3.5715   -6.1388    3.5778 C   0  0  1  0  0  0  0  0  0  0  0  0
    4.8970   -6.5579    3.8152 O   0  0  0  0  0  0  0  0  0  0  0  0
    3.2325   -6.0378    2.0842 C   0  0  2  0  0  0  0  0  0  0  0  0
    3.4697   -3.7662   -1.1011 C   0  0  0  0  0  0  0  0  0  0  0  0
    3.2148   -1.4386   -2.3252 H   0  0  0  0  0  0  0  0  0  0  0  0
    4.9392   -1.3202   -1.9335 H   0  0  0  0  0  0  0  0  0  0  0  0
    3.7470   -0.3604   -1.0710 H   0  0  0  0  0  0  0  0  0  0  0  0
    2.7410   -3.3170    2.2772 H   0  0  0  0  0  0  0  0  0  0  0  0
    4.6440   -3.5527    3.8899 H   0  0  0  0  0  0  0  0  0  0  0  0
    5.7818   -3.2483    2.5992 H   0  0  0  0  0  0  0  0  0  0  0  0
    3.6175   -1.4439    3.7075 H   0  0  0  0  0  0  0  0  0  0  0  0
    5.3192   -0.0275    3.9168 H   0  0  0  0  0  0  0  0  0  0  0  0
    5.7815    0.4907    1.7356 H   0  0  0  0  0  0  0  0  0  0  0  0
    5.2904    0.1294    0.1193 H   0  0  0  0  0  0  0  0  0  0  0  0
    6.3135   -0.9933    0.9748 H   0  0  0  0  0  0  0  0  0  0  0  0
    3.2686    0.7807    2.4428 H   0  0  0  0  0  0  0  0  0  0  0  0
    2.1380   -0.5400    2.1159 H   0  0  0  0  0  0  0  0  0  0  0  0
    2.7944    0.4104    0.7924 H   0  0  0  0  0  0  0  0  0  0  0  0
    5.8883   -5.4389    1.6598 H   0  0  0  0  0  0  0  0  0  0  0  0
    5.7462   -4.4103    0.2555 H   0  0  0  0  0  0  0  0  0  0  0  0
    5.2819   -6.0989    0.1452 H   0  0  0  0  0  0  0  0  0  0  0  0
    1.2724   -5.2663   -1.2082 H   0  0  0  0  0  0  0  0  0  0  0  0
    0.0470   -6.1558    0.7295 H   0  0  0  0  0  0  0  0  0  0  0  0
    1.2712   -7.3662    0.4845 H   0  0  0  0  0  0  0  0  0  0  0  0
    1.3585   -5.1052    2.5039 H   0  0  0  0  0  0  0  0  0  0  0  0
    1.3960   -8.1176    2.6733 H   0  0  0  0  0  0  0  0  0  0  0  0
   -0.2455   -5.9608    4.0473 H   0  0  0  0  0  0  0  0  0  0  0  0
   -0.7870   -7.2325    3.0219 H   0  0  0  0  0  0  0  0  0  0  0  0
   -1.1819   -7.6555    5.3532 H   0  0  0  0  0  0  0  0  0  0  0  0
   -1.0083   -9.7168    4.8189 H   0  0  0  0  0  0  0  0  0  0  0  0
    0.3793   -7.2264    6.8530 H   0  0  0  0  0  0  0  0  0  0  0  0
   -0.7172  -10.0840    6.7620 H   0  0  0  0  0  0  0  0  0  0  0  0
   -0.5194   -8.9857    8.1321 H   0  0  0  0  0  0  0  0  0  0  0  0
    0.2184  -10.5585    8.1357 H   0  0  0  0  0  0  0  0  0  0  0  0
    1.3724  -10.6098    5.2086 H   0  0  0  0  0  0  0  0  0  0  0  0
    2.4476  -10.9805    6.5109 H   0  0  0  0  0  0  0  0  0  0  0  0
    2.8900   -9.7182    5.4580 H   0  0  0  0  0  0  0  0  0  0  0  0
    4.2867   -7.9822    8.2610 H   0  0  0  0  0  0  0  0  0  0  0  0
    4.1987   -6.4854    6.3406 H   0  0  0  0  0  0  0  0  0  0  0  0
    1.0251   -4.9493    5.2723 H   0  0  0  0  0  0  0  0  0  0  0  0
    2.6155   -4.7343    5.9440 H   0  0  0  0  0  0  0  0  0  0  0  0
    1.3237   -5.2641    6.9723 H   0  0  0  0  0  0  0  0  0  0  0  0
    2.9583   -8.1084    4.1318 H   0  0  0  0  0  0  0  0  0  0  0  0
    3.4047   -5.1662    4.0165 H   0  0  0  0  0  0  0  0  0  0  0  0
    5.0064   -7.4194    3.4256 H   0  0  0  0  0  0  0  0  0  0  0  0
    3.5426   -6.9762    1.6283 H   0  0  0  0  0  0  0  0  0  0  0  0
    2.7198   -3.6413   -1.8838 H   0  0  0  0  0  0  0  0  0  0  0  0
    4.3812   -4.1384   -1.5629 H   0  0  0  0  0  0  0  0  0  0  0  0
  1  2  1  0
  1 36  1  0
  1 37  1  0
  1 38  1  0
  2 35  1  0
  2  3  2  0
  3  8  1  0
  3  4  1  0
  4  5  1  0
  4 11  1  0
  4 39  1  1
  5  6  1  0
  5 40  1  0
  5 41  1  0
  6  7  1  0
  6  8  1  0
  6 42  1  1
  7 43  1  0
  8  9  1  0
  8 10  1  0
  9 44  1  0
  9 45  1  0
  9 46  1  0
 10 47  1  0
 10 48  1  0
 10 49  1  0
 11 34  1  0
 11 12  1  6
 11 13  1  0
 12 50  1  0
 12 51  1  0
 12 52  1  0
 13 14  2  0
 13 35  1  0
 14 15  1  0
 14 53  1  0
 15 16  1  0
 15 54  1  0
 15 55  1  0
 16 34  1  0
 16 17  1  0
 16 56  1  1
 17 31  1  0
 17 18  1  0
 17 57  1  6
 18 19  1  0
 18 58  1  0
 18 59  1  0
 19 20  1  0
 19 21  1  0
 19 60  1  1
 20 61  1  0
 21 29  1  0
 21 22  1  0
 21 62  1  1
 22 23  1  0
 22 24  1  0
 22 25  1  0
 23 63  1  0
 23 64  1  0
 23 65  1  0
 24 66  1  0
 24 67  1  0
 24 68  1  0
 25 26  2  0
 25 27  1  0
 27 28  2  0
 27 69  1  0
 28 29  1  0
 28 70  1  0
 29 30  1  6
 29 31  1  0
 30 71  1  0
 30 72  1  0
 30 73  1  0
 31 32  1  0
 31 74  1  1
 32 33  1  0
 32 34  1  0
 32 75  1  1
 33 76  1  0
 34 77  1  6
 35 78  1  0
 35 79  1  0
M  END
>  <i_m_ct_stereo_status>  (351) 
1

>  <s_m_source_file>  (351) 
/var/tmp/pbs.5076255.sched01/tmp1uy3qkd6/1269t22etaf.sdf

>  <i_m_source_file_index>  (351) 
33

>  <i_lp_mmshare_version>  (351) 
48012

>  <i_f3d_flags>  (351) 
0

>  <s_epik_input>  (351) 
W0NIMl0xW0NAQEhdKFtPSF0pQyhbQ0gzXSkoW0NIM10pQyhbQ0BIXTFbQ0BdMjNbQ0gzXSk9QyhbQ0gzXSlbQ0gyXUMyPVtDSF1bQ0gyXVtDQEhdNFtDQEhdNVtDQEBIXShbQ0BASF0oW09IXSlbQ0BIXTM0KVtDQEBdNihbQ0gzXSlbQ0BASF0oW0NAQEhdKFtDSDJdNSlbT0hdKUMoW0NIM10pKFtDSDNdKUMoPU8pW0NIXT1bQ0hdNg==

>  <s_epik_cmdline>  (351) 
J2VwaWtfcHl0aG9uJywgJy1waHQnLCAnMi4wJywgJy1waCcsICc3LjAnLCAnLXRuJywgJzgnLCAnLW1hJywgJzIwMCcsICctaW1hZScsICc8aW5maWxlLm1hZT4nLCAnLW9tYWUnLCAnPG91dGZpbGUubWFlPic=

>  <r_lp_tautomer_probability>  (351) 
1

>  <r_epik_Ionization_Penalty>  (351) 
1.98817e-06

>  <r_epik_Ionization_Penalty_Charging>  (351) 
0

>  <r_epik_Ionization_Penalty_Neutral>  (351) 
1.98817e-06

>  <r_epik_State_Penalty>  (351) 
-0

>  <r_epik_Charging_Adjusted_Penalty>  (351) 
0

>  <i_epik_Tot_Q>  (351) 
0

>  <i_epik_Tot_abs_Q>  (351) 
0

>  <s_lp_Force_Field>  (351) 
OPLS3e

>  <r_lp_Energy>  (351) 
65.3973

>  <b_lp_Chiralities_Consistent>  (351) 
1

>  <s_lp_Variant>  (351) 
110:0-1

>  <s_i_glide_gridfile>  (351) 
pfpi4k_grid

>  <i_i_glide_lignum>  (351) 
33

>  <i_i_glide_rotatable_bonds>  (351) 
3

>  <r_i_docking_score>  (351) 
-1.95783

>  <r_i_glide_ligand_efficiency>  (351) 
-0.0559379

>  <r_i_glide_ligand_efficiency_sa>  (351) 
-0.182976

>  <r_i_glide_ligand_efficiency_ln>  (351) 
-0.429786

>  <r_i_glide_gscore>  (351) 
-1.95783

>  <r_i_glide_lipo>  (351) 
-0.332757

>  <r_i_glide_hbond>  (351) 
-0.16

>  <r_i_glide_metal>  (351) 
-0

>  <r_i_glide_rewards>  (351) 
-0.131736

>  <r_i_glide_evdw>  (351) 
-18.5815

>  <r_i_glide_ecoul>  (351) 
-2.46122

>  <r_i_glide_erotb>  (351) 
0

>  <r_i_glide_esite>  (351) 
-0.0350728

>  <r_i_glide_emodel>  (351) 
-23.0309

>  <r_i_glide_energy>  (351) 
-21.0427

>  <r_i_glide_einternal>  (351) 
1.34194

>  <r_i_glide_intrahb_reward>  (351) 
-0

>  <i_i_glide_confnum>  (351) 
1

>  <i_i_glide_posenum>  (351) 
25

>  <r_i_glide_eff_state_penalty>  (351) 
0

>  <ligand_id>  (351) 
110

>  <original_smiles>  (351) 
CC1=C2C(CC(O)C2(C)C)C2(C)C(=CCC3C4CC(O)C5C(C)(C)C(=O)C=CC5(C)C4C(O)C32)C1

>  <smiles>  (351) 
[H]OC1([H])C2([H])C([H])(C([H])([H])C([H])=C3C([H])([H])C(C([H])([H])[H])=C4C([H])(C([H])([H])C([H])(O[H])C4(C([H])([H])[H])C([H])([H])[H])C32C([H])([H])[H])C2([H])C([H])([H])C([H])(O[H])C3([H])C(C([H])([H])[H])(C([H])([H])[H])C(=O)C([H])=C([H])C3(C([H])([H])[H])C12[H]

$$$$
110:0:2
     RDKit          3D

 79 84  0  0  1  0  0  0  0  0999 V2000
    3.8856   -1.4136   -1.6903 C   0  0  0  0  0  0  0  0  0  0  0  0
    3.7575   -2.4679   -0.5980 C   0  0  0  0  0  0  0  0  0  0  0  0
    3.9060   -2.2759    0.7376 C   0  0  0  0  0  0  0  0  0  0  0  0
    3.8287   -3.4054    1.7656 C   0  0  2  0  0  0  0  0  0  0  0  0
    4.8927   -2.9875    2.7911 C   0  0  0  0  0  0  0  0  0  0  0  0
    4.6252   -1.4847    2.8985 C   0  0  1  0  0  0  0  0  0  0  0  0
    5.6575   -0.7726    3.5466 O   0  0  0  0  0  0  0  0  0  0  0  0
    4.3101   -0.9995    1.4666 C   0  0  0  0  0  0  0  0  0  0  0  0
    5.5395   -0.3570    0.8145 C   0  0  0  0  0  0  0  0  0  0  0  0
    3.1433   -0.0051    1.5638 C   0  0  0  0  0  0  0  0  0  0  0  0
    3.8729   -4.8503    1.1673 C   0  0  2  0  0  0  0  0  0  0  0  0
    5.3055   -5.2310    0.7080 C   0  0  0  0  0  0  0  0  0  0  0  0
    2.9705   -4.7819   -0.0770 C   0  0  0  0  0  0  0  0  0  0  0  0
    1.8052   -5.4366   -0.2080 C   0  0  0  0  0  0  0  0  0  0  0  0
    1.1650   -6.3192    0.8376 C   0  0  0  0  0  0  0  0  0  0  0  0
    1.7943   -6.0215    2.1989 C   0  0  1  0  0  0  0  0  0  0  0  0
    1.4933   -7.0431    3.2978 C   0  0  2  0  0  0  0  0  0  0  0  0
    0.1177   -6.8619    3.9541 C   0  0  0  0  0  0  0  0  0  0  0  0
   -0.0217   -7.7437    5.1961 C   0  0  1  0  0  0  0  0  0  0  0  0
   -0.1976   -9.0489    4.6702 O   0  0  0  0  0  0  0  0  0  0  0  0
    1.1388   -7.5845    6.2548 C   0  0  1  0  0  0  0  0  0  0  0  0
    1.5351   -8.8647    7.0778 C   0  0  0  0  0  0  0  0  0  0  0  0
    0.2833   -9.4447    7.7904 C   0  0  0  0  0  0  0  0  0  0  0  0
    2.2370   -9.9532    6.2230 C   0  0  0  0  0  0  0  0  0  0  0  0
    2.5715   -8.4814    8.1526 C   0  0  0  0  0  0  0  0  0  0  0  0
    2.4685   -8.8906    9.3121 O   0  0  0  0  0  0  0  0  0  0  0  0
    3.6956   -7.6553    7.7294 C   0  0  0  0  0  0  0  0  0  0  0  0
    3.5903   -6.8746    6.6362 C   0  0  0  0  0  0  0  0  0  0  0  0
    2.3398   -6.6724    5.7750 C   0  0  2  0  0  0  0  0  0  0  0  0
    1.9826   -5.1774    6.0209 C   0  0  0  0  0  0  0  0  0  0  0  0
    2.6891   -6.9782    4.2752 C   0  0  2  0  0  0  0  0  0  0  0  0
    3.7061   -6.0307    3.5865 C   0  0  1  0  0  0  0  0  0  0  0  0
    5.0331   -6.4814    3.7567 O   0  0  0  0  0  0  0  0  0  0  0  0
    3.3163   -5.9891    2.1049 C   0  0  2  0  0  0  0  0  0  0  0  0
    3.4459   -3.8294   -1.1591 C   0  0  0  0  0  0  0  0  0  0  0  0
    3.1502   -1.5707   -2.4828 H   0  0  0  0  0  0  0  0  0  0  0  0
    4.8784   -1.4120   -2.1427 H   0  0  0  0  0  0  0  0  0  0  0  0
    3.6915   -0.4235   -1.3098 H   0  0  0  0  0  0  0  0  0  0  0  0
    2.8476   -3.2696    2.2180 H   0  0  0  0  0  0  0  0  0  0  0  0
    4.8102   -3.4563    3.7673 H   0  0  0  0  0  0  0  0  0  0  0  0
    5.8980   -3.1937    2.4235 H   0  0  0  0  0  0  0  0  0  0  0  0
    3.7378   -1.3752    3.5272 H   0  0  0  0  0  0  0  0  0  0  0  0
    5.8137   -1.1880    4.3823 H   0  0  0  0  0  0  0  0  0  0  0  0
    5.8380    0.4973    1.4076 H   0  0  0  0  0  0  0  0  0  0  0  0
    5.3286    0.0635   -0.1530 H   0  0  0  0  0  0  0  0  0  0  0  0
    6.3850   -1.0481    0.7168 H   0  0  0  0  0  0  0  0  0  0  0  0
    3.4042    0.8362    2.2074 H   0  0  0  0  0  0  0  0  0  0  0  0
    2.2518   -0.4790    1.9794 H   0  0  0  0  0  0  0  0  0  0  0  0
    2.8666    0.3925    0.5947 H   0  0  0  0  0  0  0  0  0  0  0  0
    5.9591   -5.4202    1.5513 H   0  0  0  0  0  0  0  0  0  0  0  0
    5.7722   -4.4425    0.1190 H   0  0  0  0  0  0  0  0  0  0  0  0
    5.2973   -6.1303    0.0887 H   0  0  0  0  0  0  0  0  0  0  0  0
    1.2471   -5.3240   -1.1265 H   0  0  0  0  0  0  0  0  0  0  0  0
    0.0905   -6.1523    0.8612 H   0  0  0  0  0  0  0  0  0  0  0  0
    1.3085   -7.3579    0.5395 H   0  0  0  0  0  0  0  0  0  0  0  0
    1.4598   -5.0386    2.5361 H   0  0  0  0  0  0  0  0  0  0  0  0
    1.5042   -8.0352    2.8382 H   0  0  0  0  0  0  0  0  0  0  0  0
   -0.0758   -5.8265    4.2012 H   0  0  0  0  0  0  0  0  0  0  0  0
   -0.6646   -7.1255    3.2405 H   0  0  0  0  0  0  0  0  0  0  0  0
   -0.9653   -7.4649    5.6678 H   0  0  0  0  0  0  0  0  0  0  0  0
   -0.7901   -9.5601    5.2097 H   0  0  0  0  0  0  0  0  0  0  0  0
    0.6541   -6.9842    7.0206 H   0  0  0  0  0  0  0  0  0  0  0  0
   -0.4596   -9.8534    7.1064 H   0  0  0  0  0  0  0  0  0  0  0  0
   -0.2071   -8.6971    8.4103 H   0  0  0  0  0  0  0  0  0  0  0  0
    0.5660  -10.2549    8.4627 H   0  0  0  0  0  0  0  0  0  0  0  0
    1.5834  -10.4524    5.5121 H   0  0  0  0  0  0  0  0  0  0  0  0
    2.6147  -10.7460    6.8686 H   0  0  0  0  0  0  0  0  0  0  0  0
    3.1072   -9.5794    5.6838 H   0  0  0  0  0  0  0  0  0  0  0  0
    4.6076   -7.7040    8.3088 H   0  0  0  0  0  0  0  0  0  0  0  0
    4.4479   -6.2734    6.3684 H   0  0  0  0  0  0  0  0  0  0  0  0
    1.2456   -4.7673    5.3396 H   0  0  0  0  0  0  0  0  0  0  0  0
    2.8596   -4.5331    5.9422 H   0  0  0  0  0  0  0  0  0  0  0  0
    1.6092   -5.0221    7.0352 H   0  0  0  0  0  0  0  0  0  0  0  0
    3.1189   -7.9766    4.2368 H   0  0  0  0  0  0  0  0  0  0  0  0
    3.5716   -5.0421    4.0011 H   0  0  0  0  0  0  0  0  0  0  0  0
    5.2285   -6.4953    4.6839 H   0  0  0  0  0  0  0  0  0  0  0  0
    3.6177   -6.9437    1.6704 H   0  0  0  0  0  0  0  0  0  0  0  0
    2.6734   -3.7334   -1.9255 H   0  0  0  0  0  0  0  0  0  0  0  0
    4.3330   -4.2242   -1.6517 H   0  0  0  0  0  0  0  0  0  0  0  0
  1  2  1  0
  1 36  1  0
  1 37  1  0
  1 38  1  0
  2 35  1  0
  2  3  2  0
  3  8  1  0
  3  4  1  0
  4  5  1  0
  4 11  1  0
  4 39  1  1
  5  6  1  0
  5 40  1  0
  5 41  1  0
  6  7  1  0
  6  8  1  0
  6 42  1  1
  7 43  1  0
  8  9  1  0
  8 10  1  0
  9 44  1  0
  9 45  1  0
  9 46  1  0
 10 47  1  0
 10 48  1  0
 10 49  1  0
 11 34  1  0
 11 12  1  6
 11 13  1  0
 12 50  1  0
 12 51  1  0
 12 52  1  0
 13 14  2  0
 13 35  1  0
 14 15  1  0
 14 53  1  0
 15 16  1  0
 15 54  1  0
 15 55  1  0
 16 34  1  0
 16 17  1  0
 16 56  1  1
 17 31  1  0
 17 18  1  0
 17 57  1  6
 18 19  1  0
 18 58  1  0
 18 59  1  0
 19 20  1  0
 19 21  1  0
 19 60  1  1
 20 61  1  0
 21 29  1  0
 21 22  1  0
 21 62  1  1
 22 23  1  0
 22 24  1  0
 22 25  1  0
 23 63  1  0
 23 64  1  0
 23 65  1  0
 24 66  1  0
 24 67  1  0
 24 68  1  0
 25 26  2  0
 25 27  1  0
 27 28  2  0
 27 69  1  0
 28 29  1  0
 28 70  1  0
 29 30  1  6
 29 31  1  0
 30 71  1  0
 30 72  1  0
 30 73  1  0
 31 32  1  0
 31 74  1  1
 32 33  1  0
 32 34  1  0
 32 75  1  1
 33 76  1  0
 34 77  1  6
 35 78  1  0
 35 79  1  0
M  END
>  <i_m_ct_stereo_status>  (352) 
1

>  <s_m_source_file>  (352) 
/var/tmp/pbs.5076255.sched01/tmp1uy3qkd6/1269t22etaf.sdf

>  <i_m_source_file_index>  (352) 
33

>  <i_lp_mmshare_version>  (352) 
48012

>  <i_f3d_flags>  (352) 
0

>  <s_epik_input>  (352) 
W0NIMl0xW0NAQEhdKFtPSF0pQyhbQ0gzXSkoW0NIM10pQyhbQ0BIXTFbQ0BdMjNbQ0gzXSk9QyhbQ0gzXSlbQ0gyXUMyPVtDSF1bQ0gyXVtDQEhdNFtDQEhdNVtDQEBIXShbQ0BASF0oW09IXSlbQ0BIXTM0KVtDQEBdNihbQ0gzXSlbQ0BASF0oW0NAQEhdKFtDSDJdNSlbT0hdKUMoW0NIM10pKFtDSDNdKUMoPU8pW0NIXT1bQ0hdNg==

>  <s_epik_cmdline>  (352) 
J2VwaWtfcHl0aG9uJywgJy1waHQnLCAnMi4wJywgJy1waCcsICc3LjAnLCAnLXRuJywgJzgnLCAnLW1hJywgJzIwMCcsICctaW1hZScsICc8aW5maWxlLm1hZT4nLCAnLW9tYWUnLCAnPG91dGZpbGUubWFlPic=

>  <r_lp_tautomer_probability>  (352) 
1

>  <r_epik_Ionization_Penalty>  (352) 
1.98817e-06

>  <r_epik_Ionization_Penalty_Charging>  (352) 
0

>  <r_epik_Ionization_Penalty_Neutral>  (352) 
1.98817e-06

>  <r_epik_State_Penalty>  (352) 
-0

>  <r_epik_Charging_Adjusted_Penalty>  (352) 
0

>  <i_epik_Tot_Q>  (352) 
0

>  <i_epik_Tot_abs_Q>  (352) 
0

>  <s_lp_Force_Field>  (352) 
OPLS3e

>  <r_lp_Energy>  (352) 
65.3973

>  <b_lp_Chiralities_Consistent>  (352) 
1

>  <s_lp_Variant>  (352) 
110:0-1

>  <s_i_glide_gridfile>  (352) 
pfpi4k_grid

>  <i_i_glide_lignum>  (352) 
33

>  <i_i_glide_rotatable_bonds>  (352) 
3

>  <r_i_docking_score>  (352) 
-1.86588

>  <r_i_glide_ligand_efficiency>  (352) 
-0.0533107

>  <r_i_glide_ligand_efficiency_sa>  (352) 
-0.174383

>  <r_i_glide_ligand_efficiency_ln>  (352) 
-0.409601

>  <r_i_glide_gscore>  (352) 
-1.86588

>  <r_i_glide_lipo>  (352) 
-0.384523

>  <r_i_glide_hbond>  (352) 
-0.132707

>  <r_i_glide_metal>  (352) 
-0

>  <r_i_glide_rewards>  (352) 
-0.131736

>  <r_i_glide_evdw>  (352) 
-21.81

>  <r_i_glide_ecoul>  (352) 
-0.734636

>  <r_i_glide_erotb>  (352) 
0

>  <r_i_glide_esite>  (352) 
-0.0162145

>  <r_i_glide_emodel>  (352) 
-24.4056

>  <r_i_glide_energy>  (352) 
-22.5446

>  <r_i_glide_einternal>  (352) 
1.56967

>  <r_i_glide_intrahb_reward>  (352) 
-0

>  <i_i_glide_confnum>  (352) 
1

>  <i_i_glide_posenum>  (352) 
37

>  <r_i_glide_eff_state_penalty>  (352) 
0

>  <ligand_id>  (352) 
110

>  <original_smiles>  (352) 
CC1=C2C(CC(O)C2(C)C)C2(C)C(=CCC3C4CC(O)C5C(C)(C)C(=O)C=CC5(C)C4C(O)C32)C1

>  <smiles>  (352) 
[H]OC1([H])C2([H])C([H])(C([H])([H])C([H])=C3C([H])([H])C(C([H])([H])[H])=C4C([H])(C([H])([H])C([H])(O[H])C4(C([H])([H])[H])C([H])([H])[H])C32C([H])([H])[H])C2([H])C([H])([H])C([H])(O[H])C3([H])C(C([H])([H])[H])(C([H])([H])[H])C(=O)C([H])=C([H])C3(C([H])([H])[H])C12[H]

$$$$
111:0:0
     RDKit          3D

 39 43  0  0  1  0  0  0  0  0999 V2000
    4.6782   -1.1687    3.5513 C   0  0  0  0  0  0  0  0  0  0  0  0
    4.2378   -2.4595    3.2258 C   0  0  0  0  0  0  0  0  0  0  0  0
    4.2089   -2.8287    1.8668 C   0  0  0  0  0  0  0  0  0  0  0  0
    4.5875   -1.8853    0.8809 C   0  0  0  0  0  0  0  0  0  0  0  0
    5.0400   -0.6260    1.3316 C   0  0  0  0  0  0  0  0  0  0  0  0
    5.0914   -0.2740    2.6307 N   0  0  0  0  0  0  0  0  0  0  0  0
    4.5289   -2.2429   -0.6207 C   0  0  1  0  0  0  0  0  0  0  0  0
    3.8204   -1.0786   -1.3399 C   0  0  0  0  0  0  0  0  0  0  0  0
    3.1556   -1.3562   -2.6971 C   0  0  0  0  0  0  0  0  0  0  0  0
    4.1055   -1.9013   -3.7494 C   0  0  0  0  0  0  0  0  0  0  0  0
    4.4548   -3.3708   -3.5237 C   0  0  0  0  0  0  0  0  0  0  0  0
    4.9523   -3.7372   -2.1245 C   0  0  1  0  0  0  0  0  0  0  0  0
    5.8289   -2.7996   -1.2715 C   0  0  2  0  0  0  0  0  0  0  0  0
    6.7477   -3.5431   -0.3064 C   0  0  0  0  0  0  0  0  0  0  0  0
    5.9753   -4.7430    0.3212 C   0  0  0  0  0  0  0  0  0  0  0  0
    4.4788   -4.6133    0.1943 N   0  0  1  0  0  0  0  0  0  0  0  0
    3.8216   -4.2379    1.4658 C   0  0  0  0  0  0  0  0  0  0  0  0
    4.0310   -3.6866   -0.8934 C   0  0  1  0  0  0  0  0  0  0  0  0
    4.7218   -0.8493    4.5803 H   0  0  0  0  0  0  0  0  0  0  0  0
    3.9361   -3.1439    4.0066 H   0  0  0  0  0  0  0  0  0  0  0  0
    5.3822    0.1291    0.6397 H   0  0  0  0  0  0  0  0  0  0  0  0
    3.0264   -0.6949   -0.6981 H   0  0  0  0  0  0  0  0  0  0  0  0
    4.5213   -0.2564   -1.4662 H   0  0  0  0  0  0  0  0  0  0  0  0
    2.3005   -2.0203   -2.5820 H   0  0  0  0  0  0  0  0  0  0  0  0
    2.7459   -0.4148   -3.0639 H   0  0  0  0  0  0  0  0  0  0  0  0
    3.6384   -1.8009   -4.7274 H   0  0  0  0  0  0  0  0  0  0  0  0
    5.0045   -1.2877   -3.7844 H   0  0  0  0  0  0  0  0  0  0  0  0
    3.5787   -3.9726   -3.7632 H   0  0  0  0  0  0  0  0  0  0  0  0
    5.2003   -3.6711   -4.2605 H   0  0  0  0  0  0  0  0  0  0  0  0
    5.4076   -4.7219   -2.2023 H   0  0  0  0  0  0  0  0  0  0  0  0
    6.3531   -2.0597   -1.8721 H   0  0  0  0  0  0  0  0  0  0  0  0
    7.6406   -3.8962   -0.8241 H   0  0  0  0  0  0  0  0  0  0  0  0
    7.1122   -2.8704    0.4709 H   0  0  0  0  0  0  0  0  0  0  0  0
    6.2344   -5.6522   -0.2229 H   0  0  0  0  0  0  0  0  0  0  0  0
    6.2919   -4.9125    1.3537 H   0  0  0  0  0  0  0  0  0  0  0  0
    4.0865   -4.9426    2.2543 H   0  0  0  0  0  0  0  0  0  0  0  0
    2.7395   -4.2855    1.3477 H   0  0  0  0  0  0  0  0  0  0  0  0
    2.9636   -3.7673   -1.1171 H   0  0  0  0  0  0  0  0  0  0  0  0
    4.1371   -5.5328   -0.0523 H   0  0  0  0  0  0  0  0  0  0  0  0
  1  6  2  0
  1  2  1  0
  1 19  1  0
  2  3  2  0
  2 20  1  0
  3 17  1  0
  3  4  1  0
  4  5  2  0
  4  7  1  0
  5  6  1  0
  5 21  1  0
  7 13  1  0
  7 18  1  0
  7  8  1  6
  8  9  1  0
  8 22  1  0
  8 23  1  0
  9 10  1  0
  9 24  1  0
  9 25  1  0
 10 11  1  0
 10 26  1  0
 10 27  1  0
 11 12  1  0
 11 28  1  0
 11 29  1  0
 12 18  1  0
 12 13  1  0
 12 30  1  6
 13 14  1  0
 13 31  1  6
 14 15  1  0
 14 32  1  0
 14 33  1  0
 15 16  1  0
 15 34  1  0
 15 35  1  0
 16 17  1  0
 16 18  1  0
 16 39  1  6
 17 36  1  0
 17 37  1  0
 18 38  1  6
M  CHG  1  16   1
M  END
>  <i_m_ct_stereo_status>  (353) 
1

>  <s_m_source_file>  (353) 
/var/tmp/pbs.5076255.sched01/tmp1uy3qkd6/1269t22etaf.sdf

>  <i_m_source_file_index>  (353) 
34

>  <i_lp_mmshare_version>  (353) 
48012

>  <i_f3d_flags>  (353) 
0

>  <s_epik_input>  (353) 
W2NIXTFuW2NIXVtjSF1jKGMxW0NAQF0yMzQpW0NIMl1ONVtDQEBIXTRbQ0BIXShbQ0BASF0zW0NIMl1bQ0gyXTUpW0NIMl1bQ0gyXVtDSDJdW0NIMl0y

>  <s_epik_cmdline>  (353) 
J2VwaWtfcHl0aG9uJywgJy1waHQnLCAnMi4wJywgJy1waCcsICc3LjAnLCAnLXRuJywgJzgnLCAnLW1hJywgJzIwMCcsICctaW1hZScsICc8aW5maWxlLm1hZT4nLCAnLW9tYWUnLCAnPG91dGZpbGUubWFlPic=

>  <r_epik_Ionization_Penalty>  (353) 
0.0138597

>  <r_epik_Ionization_Penalty_Charging>  (353) 
0.0138233

>  <r_epik_Ionization_Penalty_Neutral>  (353) 
3.63876e-05

>  <r_epik_State_Penalty>  (353) 
0.00284839

>  <r_epik_Charging_Adjusted_Penalty>  (353) 
0.0166717

>  <i_epik_Tot_Q>  (353) 
1

>  <i_epik_Tot_abs_Q>  (353) 
1

>  <s_lp_Force_Field>  (353) 
OPLS3e

>  <r_lp_Energy>  (353) 
68.1443

>  <b_lp_Chiralities_Consistent>  (353) 
1

>  <s_lp_Variant>  (353) 
111:0-1

>  <s_i_glide_gridfile>  (353) 
pfpi4k_grid

>  <i_i_glide_lignum>  (353) 
34

>  <i_i_glide_rotatable_bonds>  (353) 
0

>  <r_i_docking_score>  (353) 
-4.16234

>  <r_i_glide_ligand_efficiency>  (353) 
-0.231241

>  <r_i_glide_ligand_efficiency_sa>  (353) 
-0.606023

>  <r_i_glide_ligand_efficiency_ln>  (353) 
-1.06991

>  <r_i_glide_gscore>  (353) 
-4.16234

>  <r_i_glide_lipo>  (353) 
-0.838195

>  <r_i_glide_hbond>  (353) 
-0.0460448

>  <r_i_glide_metal>  (353) 
-0

>  <r_i_glide_rewards>  (353) 
-1.76351

>  <r_i_glide_evdw>  (353) 
-23.2558

>  <r_i_glide_ecoul>  (353) 
-2.34532

>  <r_i_glide_erotb>  (353) 
0

>  <r_i_glide_esite>  (353) 
0

>  <r_i_glide_emodel>  (353) 
-32.3208

>  <r_i_glide_energy>  (353) 
-25.6011

>  <r_i_glide_einternal>  (353) 
0

>  <r_i_glide_intrahb_reward>  (353) 
-0

>  <i_i_glide_confnum>  (353) 
2

>  <i_i_glide_posenum>  (353) 
9

>  <r_i_glide_eff_state_penalty>  (353) 
0

>  <ligand_id>  (353) 
111

>  <original_smiles>  (353) 
c1cc2c(cn1)C13CCCCC4C1CCN(C2)C43

>  <smiles>  (353) 
[H]c1nc([H])c2c(c1[H])C([H])([H])[N+]1([H])C([H])([H])C([H])([H])C3([H])C4([H])C([H])([H])C([H])([H])C([H])([H])C([H])([H])C23C41[H]

$$$$
111:0:1
     RDKit          3D

 39 43  0  0  1  0  0  0  0  0999 V2000
    3.4187   -5.5380    3.1383 C   0  0  0  0  0  0  0  0  0  0  0  0
    4.6020   -5.7080    2.3993 C   0  0  0  0  0  0  0  0  0  0  0  0
    4.7802   -4.9260    1.2420 C   0  0  0  0  0  0  0  0  0  0  0  0
    3.7624   -4.0288    0.8431 C   0  0  0  0  0  0  0  0  0  0  0  0
    2.6323   -3.9174    1.6862 C   0  0  0  0  0  0  0  0  0  0  0  0
    2.4554   -4.6565    2.8006 N   0  0  0  0  0  0  0  0  0  0  0  0
    3.9107   -3.1928   -0.4494 C   0  0  1  0  0  0  0  0  0  0  0  0
    2.5924   -3.3470   -1.2359 C   0  0  0  0  0  0  0  0  0  0  0  0
    2.6014   -3.0570   -2.7468 C   0  0  0  0  0  0  0  0  0  0  0  0
    3.0930   -1.6641   -3.1142 C   0  0  0  0  0  0  0  0  0  0  0  0
    4.6054   -1.5361   -2.9886 C   0  0  0  0  0  0  0  0  0  0  0  0
    5.2237   -1.9713   -1.6593 C   0  0  1  0  0  0  0  0  0  0  0  0
    4.5110   -1.7590   -0.3075 C   0  0  2  0  0  0  0  0  0  0  0  0
    5.4823   -1.5906    0.8595 C   0  0  0  0  0  0  0  0  0  0  0  0
    6.6572   -2.5975    0.7034 C   0  0  0  0  0  0  0  0  0  0  0  0
    6.3451   -3.7328   -0.2356 N   0  0  1  0  0  0  0  0  0  0  0  0
    6.0716   -5.0121    0.4579 C   0  0  0  0  0  0  0  0  0  0  0  0
    5.2405   -3.4425   -1.2062 C   0  0  1  0  0  0  0  0  0  0  0  0
    3.2535   -6.1111    4.0377 H   0  0  0  0  0  0  0  0  0  0  0  0
    5.3499   -6.4188    2.7247 H   0  0  0  0  0  0  0  0  0  0  0  0
    1.8386   -3.2200    1.4689 H   0  0  0  0  0  0  0  0  0  0  0  0
    2.2042   -4.3597   -1.1208 H   0  0  0  0  0  0  0  0  0  0  0  0
    1.8401   -2.7102   -0.7806 H   0  0  0  0  0  0  0  0  0  0  0  0
    3.1720   -3.8214   -3.2740 H   0  0  0  0  0  0  0  0  0  0  0  0
    1.5773   -3.1558   -3.1061 H   0  0  0  0  0  0  0  0  0  0  0  0
    2.8130   -1.4495   -4.1456 H   0  0  0  0  0  0  0  0  0  0  0  0
    2.6026   -0.9091   -2.5025 H   0  0  0  0  0  0  0  0  0  0  0  0
    5.0579   -2.1064   -3.7995 H   0  0  0  0  0  0  0  0  0  0  0  0
    4.8581   -0.4928   -3.1768 H   0  0  0  0  0  0  0  0  0  0  0  0
    6.2330   -1.5588   -1.6305 H   0  0  0  0  0  0  0  0  0  0  0  0
    3.7492   -0.9767   -0.3442 H   0  0  0  0  0  0  0  0  0  0  0  0
    5.8682   -0.5695    0.8996 H   0  0  0  0  0  0  0  0  0  0  0  0
    4.9603   -1.7490    1.8049 H   0  0  0  0  0  0  0  0  0  0  0  0
    7.5080   -2.0664    0.2747 H   0  0  0  0  0  0  0  0  0  0  0  0
    6.9890   -2.9572    1.6799 H   0  0  0  0  0  0  0  0  0  0  0  0
    6.9028   -5.2746    1.1128 H   0  0  0  0  0  0  0  0  0  0  0  0
    5.9765   -5.8121   -0.2753 H   0  0  0  0  0  0  0  0  0  0  0  0
    5.1686   -4.1752   -2.0141 H   0  0  0  0  0  0  0  0  0  0  0  0
    7.1800   -3.8764   -0.7831 H   0  0  0  0  0  0  0  0  0  0  0  0
  1  6  2  0
  1  2  1  0
  1 19  1  0
  2  3  2  0
  2 20  1  0
  3 17  1  0
  3  4  1  0
  4  5  2  0
  4  7  1  0
  5  6  1  0
  5 21  1  0
  7 13  1  0
  7 18  1  0
  7  8  1  6
  8  9  1  0
  8 22  1  0
  8 23  1  0
  9 10  1  0
  9 24  1  0
  9 25  1  0
 10 11  1  0
 10 26  1  0
 10 27  1  0
 11 12  1  0
 11 28  1  0
 11 29  1  0
 12 18  1  0
 12 13  1  0
 12 30  1  1
 13 14  1  0
 13 31  1  6
 14 15  1  0
 14 32  1  0
 14 33  1  0
 15 16  1  0
 15 34  1  0
 15 35  1  0
 16 17  1  0
 16 18  1  0
 16 39  1  6
 17 36  1  0
 17 37  1  0
 18 38  1  6
M  CHG  1  16   1
M  END
>  <i_m_ct_stereo_status>  (354) 
1

>  <s_m_source_file>  (354) 
/var/tmp/pbs.5076255.sched01/tmp1uy3qkd6/1269t22etaf.sdf

>  <i_m_source_file_index>  (354) 
34

>  <i_lp_mmshare_version>  (354) 
48012

>  <i_f3d_flags>  (354) 
0

>  <s_epik_input>  (354) 
W2NIXTFuW2NIXVtjSF1jKGMxW0NAQF0yMzQpW0NIMl1ONVtDQEBIXTRbQ0BIXShbQ0BASF0zW0NIMl1bQ0gyXTUpW0NIMl1bQ0gyXVtDSDJdW0NIMl0y

>  <s_epik_cmdline>  (354) 
J2VwaWtfcHl0aG9uJywgJy1waHQnLCAnMi4wJywgJy1waCcsICc3LjAnLCAnLXRuJywgJzgnLCAnLW1hJywgJzIwMCcsICctaW1hZScsICc8aW5maWxlLm1hZT4nLCAnLW9tYWUnLCAnPG91dGZpbGUubWFlPic=

>  <r_epik_Ionization_Penalty>  (354) 
0.0138597

>  <r_epik_Ionization_Penalty_Charging>  (354) 
0.0138233

>  <r_epik_Ionization_Penalty_Neutral>  (354) 
3.63876e-05

>  <r_epik_State_Penalty>  (354) 
0.00284839

>  <r_epik_Charging_Adjusted_Penalty>  (354) 
0.0166717

>  <i_epik_Tot_Q>  (354) 
1

>  <i_epik_Tot_abs_Q>  (354) 
1

>  <s_lp_Force_Field>  (354) 
OPLS3e

>  <r_lp_Energy>  (354) 
68.1443

>  <b_lp_Chiralities_Consistent>  (354) 
1

>  <s_lp_Variant>  (354) 
111:0-1

>  <s_i_glide_gridfile>  (354) 
pfpi4k_grid

>  <i_i_glide_lignum>  (354) 
34

>  <i_i_glide_rotatable_bonds>  (354) 
0

>  <r_i_docking_score>  (354) 
-3.53931

>  <r_i_glide_ligand_efficiency>  (354) 
-0.196629

>  <r_i_glide_ligand_efficiency_sa>  (354) 
-0.515313

>  <r_i_glide_ligand_efficiency_ln>  (354) 
-0.909763

>  <r_i_glide_gscore>  (354) 
-3.53931

>  <r_i_glide_lipo>  (354) 
-0.556374

>  <r_i_glide_hbond>  (354) 
0

>  <r_i_glide_metal>  (354) 
-0

>  <r_i_glide_rewards>  (354) 
-1.76351

>  <r_i_glide_evdw>  (354) 
-21.1659

>  <r_i_glide_ecoul>  (354) 
-1.07421

>  <r_i_glide_erotb>  (354) 
0

>  <r_i_glide_esite>  (354) 
0

>  <r_i_glide_emodel>  (354) 
-27.9382

>  <r_i_glide_energy>  (354) 
-22.2401

>  <r_i_glide_einternal>  (354) 
0

>  <r_i_glide_intrahb_reward>  (354) 
-0

>  <i_i_glide_confnum>  (354) 
2

>  <i_i_glide_posenum>  (354) 
21

>  <r_i_glide_eff_state_penalty>  (354) 
0

>  <ligand_id>  (354) 
111

>  <original_smiles>  (354) 
c1cc2c(cn1)C13CCCCC4C1CCN(C2)C43

>  <smiles>  (354) 
[H]c1nc([H])c2c(c1[H])C([H])([H])[N+]1([H])C([H])([H])C([H])([H])C3([H])C4([H])C([H])([H])C([H])([H])C([H])([H])C([H])([H])C23C41[H]

$$$$
111:0:2
     RDKit          3D

 39 43  0  0  1  0  0  0  0  0999 V2000
    1.9221   -7.2056    1.9570 C   0  0  0  0  0  0  0  0  0  0  0  0
    3.0286   -6.8165    2.7327 C   0  0  0  0  0  0  0  0  0  0  0  0
    3.7346   -5.6570    2.3550 C   0  0  0  0  0  0  0  0  0  0  0  0
    3.3444   -4.9553    1.1899 C   0  0  0  0  0  0  0  0  0  0  0  0
    2.2138   -5.4373    0.4956 C   0  0  0  0  0  0  0  0  0  0  0  0
    1.4914   -6.5087    0.8826 N   0  0  0  0  0  0  0  0  0  0  0  0
    4.1085   -3.6946    0.7247 C   0  0  1  0  0  0  0  0  0  0  0  0
    4.3607   -3.8604   -0.7928 C   0  0  0  0  0  0  0  0  0  0  0  0
    5.5183   -3.0703   -1.4193 C   0  0  0  0  0  0  0  0  0  0  0  0
    5.4011   -1.5619   -1.2266 C   0  0  0  0  0  0  0  0  0  0  0  0
    5.7701   -1.1168    0.1900 C   0  0  0  0  0  0  0  0  0  0  0  0
    5.0515   -1.8374    1.3331 C   0  0  1  0  0  0  0  0  0  0  0  0
    3.5840   -2.3100    1.2213 C   0  0  2  0  0  0  0  0  0  0  0  0
    2.8678   -2.3468    2.5710 C   0  0  0  0  0  0  0  0  0  0  0  0
    3.8316   -2.9101    3.6533 C   0  0  0  0  0  0  0  0  0  0  0  0
    4.9959   -3.6696    3.0720 N   0  0  1  0  0  0  0  0  0  0  0  0
    4.8703   -5.1377    3.2127 C   0  0  0  0  0  0  0  0  0  0  0  0
    5.3040   -3.3242    1.6450 C   0  0  1  0  0  0  0  0  0  0  0  0
    1.3581   -8.0883    2.2183 H   0  0  0  0  0  0  0  0  0  0  0  0
    3.3149   -7.3989    3.5994 H   0  0  0  0  0  0  0  0  0  0  0  0
    1.8282   -4.9224   -0.3700 H   0  0  0  0  0  0  0  0  0  0  0  0
    4.5671   -4.9093   -1.0140 H   0  0  0  0  0  0  0  0  0  0  0  0
    3.4483   -3.6291   -1.3457 H   0  0  0  0  0  0  0  0  0  0  0  0
    6.4771   -3.4321   -1.0474 H   0  0  0  0  0  0  0  0  0  0  0  0
    5.5205   -3.2805   -2.4886 H   0  0  0  0  0  0  0  0  0  0  0  0
    6.0705   -1.0676   -1.9264 H   0  0  0  0  0  0  0  0  0  0  0  0
    4.3984   -1.2193   -1.4876 H   0  0  0  0  0  0  0  0  0  0  0  0
    6.8475   -1.2226    0.3299 H   0  0  0  0  0  0  0  0  0  0  0  0
    5.5838   -0.0434    0.2665 H   0  0  0  0  0  0  0  0  0  0  0  0
    5.1970   -1.2337    2.2311 H   0  0  0  0  0  0  0  0  0  0  0  0
    3.0193   -1.7733    0.4564 H   0  0  0  0  0  0  0  0  0  0  0  0
    2.5329   -1.3463    2.8547 H   0  0  0  0  0  0  0  0  0  0  0  0
    1.9634   -2.9534    2.4985 H   0  0  0  0  0  0  0  0  0  0  0  0
    4.2566   -2.0679    4.2023 H   0  0  0  0  0  0  0  0  0  0  0  0
    3.2814   -3.5006    4.3889 H   0  0  0  0  0  0  0  0  0  0  0  0
    4.7142   -5.4069    4.2575 H   0  0  0  0  0  0  0  0  0  0  0  0
    5.7949   -5.6169    2.8942 H   0  0  0  0  0  0  0  0  0  0  0  0
    6.2679   -3.7109    1.3074 H   0  0  0  0  0  0  0  0  0  0  0  0
    5.8001   -3.4015    3.6167 H   0  0  0  0  0  0  0  0  0  0  0  0
  1  6  2  0
  1  2  1  0
  1 19  1  0
  2  3  2  0
  2 20  1  0
  3 17  1  0
  3  4  1  0
  4  5  2  0
  4  7  1  0
  5  6  1  0
  5 21  1  0
  7 13  1  0
  7 18  1  0
  7  8  1  6
  8  9  1  0
  8 22  1  0
  8 23  1  0
  9 10  1  0
  9 24  1  0
  9 25  1  0
 10 11  1  0
 10 26  1  0
 10 27  1  0
 11 12  1  0
 11 28  1  0
 11 29  1  0
 12 18  1  0
 12 13  1  0
 12 30  1  1
 13 14  1  0
 13 31  1  6
 14 15  1  0
 14 32  1  0
 14 33  1  0
 15 16  1  0
 15 34  1  0
 15 35  1  0
 16 17  1  0
 16 18  1  0
 16 39  1  1
 17 36  1  0
 17 37  1  0
 18 38  1  6
M  CHG  1  16   1
M  END
>  <i_m_ct_stereo_status>  (355) 
1

>  <s_m_source_file>  (355) 
/var/tmp/pbs.5076255.sched01/tmp1uy3qkd6/1269t22etaf.sdf

>  <i_m_source_file_index>  (355) 
34

>  <i_lp_mmshare_version>  (355) 
48012

>  <i_f3d_flags>  (355) 
0

>  <s_epik_input>  (355) 
W2NIXTFuW2NIXVtjSF1jKGMxW0NAQF0yMzQpW0NIMl1ONVtDQEBIXTRbQ0BIXShbQ0BASF0zW0NIMl1bQ0gyXTUpW0NIMl1bQ0gyXVtDSDJdW0NIMl0y

>  <s_epik_cmdline>  (355) 
J2VwaWtfcHl0aG9uJywgJy1waHQnLCAnMi4wJywgJy1waCcsICc3LjAnLCAnLXRuJywgJzgnLCAnLW1hJywgJzIwMCcsICctaW1hZScsICc8aW5maWxlLm1hZT4nLCAnLW9tYWUnLCAnPG91dGZpbGUubWFlPic=

>  <r_epik_Ionization_Penalty>  (355) 
0.0138597

>  <r_epik_Ionization_Penalty_Charging>  (355) 
0.0138233

>  <r_epik_Ionization_Penalty_Neutral>  (355) 
3.63876e-05

>  <r_epik_State_Penalty>  (355) 
0.00284839

>  <r_epik_Charging_Adjusted_Penalty>  (355) 
0.0166717

>  <i_epik_Tot_Q>  (355) 
1

>  <i_epik_Tot_abs_Q>  (355) 
1

>  <s_lp_Force_Field>  (355) 
OPLS3e

>  <r_lp_Energy>  (355) 
68.1443

>  <b_lp_Chiralities_Consistent>  (355) 
1

>  <s_lp_Variant>  (355) 
111:0-1

>  <s_i_glide_gridfile>  (355) 
pfpi4k_grid

>  <i_i_glide_lignum>  (355) 
34

>  <i_i_glide_rotatable_bonds>  (355) 
0

>  <r_i_docking_score>  (355) 
-3.41316

>  <r_i_glide_ligand_efficiency>  (355) 
-0.18962

>  <r_i_glide_ligand_efficiency_sa>  (355) 
-0.496945

>  <r_i_glide_ligand_efficiency_ln>  (355) 
-0.877335

>  <r_i_glide_gscore>  (355) 
-3.41316

>  <r_i_glide_lipo>  (355) 
-0.229269

>  <r_i_glide_hbond>  (355) 
0

>  <r_i_glide_metal>  (355) 
-0

>  <r_i_glide_rewards>  (355) 
-1.76351

>  <r_i_glide_evdw>  (355) 
-18.9106

>  <r_i_glide_ecoul>  (355) 
-3.16563

>  <r_i_glide_erotb>  (355) 
0

>  <r_i_glide_esite>  (355) 
0

>  <r_i_glide_emodel>  (355) 
-27.579

>  <r_i_glide_energy>  (355) 
-22.0763

>  <r_i_glide_einternal>  (355) 
0

>  <r_i_glide_intrahb_reward>  (355) 
-0

>  <i_i_glide_confnum>  (355) 
2

>  <i_i_glide_posenum>  (355) 
39

>  <r_i_glide_eff_state_penalty>  (355) 
0

>  <ligand_id>  (355) 
111

>  <original_smiles>  (355) 
c1cc2c(cn1)C13CCCCC4C1CCN(C2)C43

>  <smiles>  (355) 
[H]c1nc([H])c2c(c1[H])C([H])([H])[N+]1([H])C([H])([H])C([H])([H])C3([H])C4([H])C([H])([H])C([H])([H])C([H])([H])C([H])([H])C23C41[H]

$$$$
112:0:0
     RDKit          3D

 71 77  0  0  1  0  0  0  0  0999 V2000
    4.3326   -6.4220    0.3936 C   0  0  0  0  0  0  0  0  0  0  0  0
    4.3363   -7.4155    1.5662 C   0  0  0  0  0  0  0  0  0  0  0  0
    4.4828   -8.8583    1.0466 C   0  0  0  0  0  0  0  0  0  0  0  0
    3.1313   -7.2127    2.4878 C   0  0  0  0  0  0  0  0  0  0  0  0
    2.0625   -6.4348    2.3503 C   0  0  0  0  0  0  0  0  0  0  0  0
    1.2496   -6.5618    3.6352 C   0  0  1  0  0  0  0  0  0  0  0  0
    0.5342   -7.9710    3.8308 C   0  0  1  0  0  0  0  0  0  0  0  0
   -0.6666   -8.0676    2.8657 C   0  0  0  0  0  0  0  0  0  0  0  0
   -1.2824   -7.0573    2.5074 O   0  0  0  0  0  0  0  0  0  0  0  0
    1.7170   -8.9272    3.5319 C   0  0  1  0  0  0  0  0  0  0  0  0
    1.6896   -9.6956    2.1796 C   0  0  0  0  0  0  0  0  0  0  0  0
    2.9223   -7.9265    3.8183 C   0  0  2  0  0  0  0  0  0  0  0  0
    2.3136   -6.7587    4.7337 C   0  0  1  0  0  0  0  0  0  0  0  0
    3.2897   -5.5566    4.9470 C   0  0  0  0  0  0  0  0  0  0  0  0
    4.5032   -5.7447    4.8869 O   0  0  0  0  0  0  0  0  0  0  0  0
    2.8028   -4.3062    5.1976 N   0  0  0  0  0  0  0  0  0  0  0  0
    3.5212   -3.0281    5.2985 C   0  0  2  0  0  0  0  0  0  0  0  0
    3.0528   -2.5130    6.6789 C   0  0  0  0  0  0  0  0  0  0  0  0
    1.6311   -3.0998    6.7879 C   0  0  0  0  0  0  0  0  0  0  0  0
    1.4407   -3.7982    5.4220 C   0  0  1  0  0  0  0  0  0  0  0  0
    1.3384   -2.7700    4.2671 C   0  0  1  0  0  0  0  0  0  0  0  0
    0.2794   -1.7058    4.5157 C   0  0  0  0  0  0  0  0  0  0  0  0
   -0.9003   -1.9884    5.2514 C   0  0  0  0  0  0  0  0  0  0  0  0
   -1.8145   -1.0432    5.5415 N   0  0  0  0  0  0  0  0  0  0  0  0
   -1.5569    0.2107    5.0950 C   0  0  0  0  0  0  0  0  0  0  0  0
   -0.3992    0.4936    4.3350 C   0  0  0  0  0  0  0  0  0  0  0  0
    0.4997   -0.4636    4.0218 N   0  0  0  0  0  0  0  0  0  0  0  0
    2.8051   -2.2356    4.1851 C   0  0  0  0  0  0  0  0  0  0  0  0
    1.5633   -7.0510    6.1226 C   0  0  1  0  0  0  0  0  0  0  0  0
    0.0295   -6.8088    6.0596 C   0  0  0  0  0  0  0  0  0  0  0  0
    0.0833   -8.1789    5.3504 C   0  0  2  0  0  0  0  0  0  0  0  0
    1.1236   -8.5027    6.5051 C   0  0  0  0  0  0  0  0  0  0  0  0
    2.2133   -9.6063    6.5011 C   0  0  0  0  0  0  0  0  0  0  0  0
    0.5080   -8.7791    7.9268 C   0  0  0  0  0  0  0  0  0  0  0  0
    4.4573   -5.3966    0.7398 H   0  0  0  0  0  0  0  0  0  0  0  0
    3.4134   -6.4748   -0.1833 H   0  0  0  0  0  0  0  0  0  0  0  0
    5.1517   -6.6389   -0.2901 H   0  0  0  0  0  0  0  0  0  0  0  0
    5.2208   -7.2065    2.1776 H   0  0  0  0  0  0  0  0  0  0  0  0
    4.5681   -9.5613    1.8745 H   0  0  0  0  0  0  0  0  0  0  0  0
    5.3754   -8.9718    0.4317 H   0  0  0  0  0  0  0  0  0  0  0  0
    3.6303   -9.1484    0.4328 H   0  0  0  0  0  0  0  0  0  0  0  0
    1.8215   -5.7658    1.5410 H   0  0  0  0  0  0  0  0  0  0  0  0
    0.6075   -5.6868    3.7157 H   0  0  0  0  0  0  0  0  0  0  0  0
   -0.9196   -9.0749    2.5242 H   0  0  0  0  0  0  0  0  0  0  0  0
    1.6816   -9.7616    4.2126 H   0  0  0  0  0  0  0  0  0  0  0  0
    1.6115   -9.0246    1.3225 H   0  0  0  0  0  0  0  0  0  0  0  0
    0.8389  -10.3773    2.1158 H   0  0  0  0  0  0  0  0  0  0  0  0
    2.5883  -10.3066    2.0837 H   0  0  0  0  0  0  0  0  0  0  0  0
    3.8547   -8.3770    4.1703 H   0  0  0  0  0  0  0  0  0  0  0  0
    4.6059   -3.0751    5.1887 H   0  0  0  0  0  0  0  0  0  0  0  0
    3.6824   -2.8732    7.4983 H   0  0  0  0  0  0  0  0  0  0  0  0
    3.0327   -1.4207    6.7174 H   0  0  0  0  0  0  0  0  0  0  0  0
    1.5876   -3.8399    7.5889 H   0  0  0  0  0  0  0  0  0  0  0  0
    0.9071   -2.3190    7.0157 H   0  0  0  0  0  0  0  0  0  0  0  0
    0.6414   -4.5059    5.4560 H   0  0  0  0  0  0  0  0  0  0  0  0
    1.0972   -3.2832    3.3393 H   0  0  0  0  0  0  0  0  0  0  0  0
   -1.1113   -2.9811    5.6252 H   0  0  0  0  0  0  0  0  0  0  0  0
   -2.2602    0.9866    5.3464 H   0  0  0  0  0  0  0  0  0  0  0  0
   -0.1842    1.4968    3.9977 H   0  0  0  0  0  0  0  0  0  0  0  0
    2.9298   -1.1577    4.3451 H   0  0  0  0  0  0  0  0  0  0  0  0
    3.2364   -2.4766    3.2057 H   0  0  0  0  0  0  0  0  0  0  0  0
    2.0208   -6.5581    6.9788 H   0  0  0  0  0  0  0  0  0  0  0  0
   -0.4483   -6.7162    7.0322 H   0  0  0  0  0  0  0  0  0  0  0  0
   -0.4040   -6.0312    5.4500 H   0  0  0  0  0  0  0  0  0  0  0  0
   -0.8294   -8.7613    5.4506 H   0  0  0  0  0  0  0  0  0  0  0  0
    1.7867  -10.5808    6.2617 H   0  0  0  0  0  0  0  0  0  0  0  0
    2.7001   -9.7086    7.4760 H   0  0  0  0  0  0  0  0  0  0  0  0
    3.0411   -9.4181    5.8319 H   0  0  0  0  0  0  0  0  0  0  0  0
    0.4758   -9.8466    8.1528 H   0  0  0  0  0  0  0  0  0  0  0  0
   -0.5247   -8.4781    8.0594 H   0  0  0  0  0  0  0  0  0  0  0  0
    1.0995   -8.2981    8.7140 H   0  0  0  0  0  0  0  0  0  0  0  0
  1  2  1  0
  1 35  1  0
  1 36  1  0
  1 37  1  0
  2  3  1  0
  2  4  1  0
  2 38  1  0
  3 39  1  0
  3 40  1  0
  3 41  1  0
  4 12  1  0
  4  5  2  0
  5  6  1  0
  5 42  1  0
  6 13  1  0
  6  7  1  0
  6 43  1  1
  7 31  1  0
  7  8  1  6
  7 10  1  0
  8  9  2  0
  8 44  1  0
 10 11  1  0
 10 12  1  0
 10 45  1  1
 11 46  1  0
 11 47  1  0
 11 48  1  0
 12 13  1  0
 12 49  1  1
 13 14  1  1
 13 29  1  0
 14 15  2  0
 14 16  1  0
 16 20  1  0
 16 17  1  0
 17 28  1  0
 17 18  1  0
 17 50  1  1
 18 19  1  0
 18 51  1  0
 18 52  1  0
 19 20  1  0
 19 53  1  0
 19 54  1  0
 20 21  1  0
 20 55  1  1
 21 22  1  0
 21 28  1  0
 21 56  1  6
 22 27  1  0
 22 23  2  0
 23 24  1  0
 23 57  1  0
 24 25  2  0
 25 26  1  0
 25 58  1  0
 26 27  2  0
 26 59  1  0
 28 60  1  0
 28 61  1  0
 29 32  1  0
 29 30  1  0
 29 62  1  1
 30 31  1  0
 30 63  1  0
 30 64  1  0
 31 32  1  0
 31 65  1  6
 32 33  1  0
 32 34  1  0
 33 66  1  0
 33 67  1  0
 33 68  1  0
 34 69  1  0
 34 70  1  0
 34 71  1  0
M  END
>  <i_m_ct_stereo_status>  (356) 
1

>  <s_m_source_file>  (356) 
/var/tmp/pbs.5076255.sched01/tmp1uy3qkd6/1269t22etaf.sdf

>  <i_m_source_file_index>  (356) 
35

>  <i_lp_mmshare_version>  (356) 
48012

>  <i_f3d_flags>  (356) 
0

>  <s_epik_input>  (356) 
W0NIM11DMShbQ0gzXSlbQ0BIXTJbQ0gyXVtDQEBIXTFbQ0BdKFtDQEBIXTNbQ0BdMjRbQ0hdPU8pKFtDQEBIXShbQ0BASF00W0NIM10pQyg9W0NIXTMpW0NIXShbQ0gzXSlbQ0gzXSlDKD1PKU4oW0NASF01NilbQ0BASF0oW0NIMl1bQ0gyXTUpW0NASF0oW0NIMl02KWM3W2NIXW5bY0hdW2NIXW43

>  <s_epik_cmdline>  (356) 
J2VwaWtfcHl0aG9uJywgJy1waHQnLCAnMi4wJywgJy1waCcsICc3LjAnLCAnLXRuJywgJzgnLCAnLW1hJywgJzIwMCcsICctaW1hZScsICc8aW5maWxlLm1hZT4nLCAnLW9tYWUnLCAnPG91dGZpbGUubWFlPic=

>  <r_lp_tautomer_probability>  (356) 
1

>  <r_epik_Ionization_Penalty>  (356) 
5.39416e-06

>  <r_epik_Ionization_Penalty_Charging>  (356) 
0

>  <r_epik_Ionization_Penalty_Neutral>  (356) 
5.39416e-06

>  <r_epik_State_Penalty>  (356) 
-0

>  <r_epik_Charging_Adjusted_Penalty>  (356) 
0

>  <i_epik_Tot_Q>  (356) 
0

>  <i_epik_Tot_abs_Q>  (356) 
0

>  <s_lp_Force_Field>  (356) 
OPLS3e

>  <r_lp_Energy>  (356) 
150.531

>  <b_lp_Chiralities_Consistent>  (356) 
1

>  <s_lp_Variant>  (356) 
112:0-1

>  <s_i_glide_gridfile>  (356) 
pfpi4k_grid

>  <i_i_glide_lignum>  (356) 
35

>  <i_i_glide_rotatable_bonds>  (356) 
5

>  <r_i_docking_score>  (356) 
-2.59225

>  <r_i_glide_ligand_efficiency>  (356) 
-0.0762426

>  <r_i_glide_ligand_efficiency_sa>  (356) 
-0.246997

>  <r_i_glide_ligand_efficiency_ln>  (356) 
-0.572701

>  <r_i_glide_gscore>  (356) 
-2.59225

>  <r_i_glide_lipo>  (356) 
-0.31813

>  <r_i_glide_hbond>  (356) 
-0.162524

>  <r_i_glide_metal>  (356) 
-0

>  <r_i_glide_rewards>  (356) 
-0.275298

>  <r_i_glide_evdw>  (356) 
-26.3636

>  <r_i_glide_ecoul>  (356) 
-4.97549

>  <r_i_glide_erotb>  (356) 
0.285753

>  <r_i_glide_esite>  (356) 
-0.0575472

>  <r_i_glide_emodel>  (356) 
-33.3236

>  <r_i_glide_energy>  (356) 
-31.3391

>  <r_i_glide_einternal>  (356) 
4.437

>  <r_i_glide_intrahb_reward>  (356) 
-0

>  <i_i_glide_confnum>  (356) 
4

>  <i_i_glide_posenum>  (356) 
20

>  <r_i_glide_eff_state_penalty>  (356) 
0

>  <ligand_id>  (356) 
112

>  <original_smiles>  (356) 
CC(C)C1=CC2C3(C=O)C(C)C1C2(C(=O)N1C2CCC1C(c1cnccn1)C2)C1CC3C1(C)C

>  <smiles>  (356) 
[H]C(=O)C12C3([H])C([H])=C(C([H])(C([H])([H])[H])C([H])([H])[H])C([H])(C1([H])C([H])([H])[H])C3(C(=O)N1C3([H])C([H])([H])C([H])([H])C1([H])C([H])(c1nc([H])c([H])nc1[H])C3([H])[H])C1([H])C([H])([H])C2([H])C1(C([H])([H])[H])C([H])([H])[H]

$$$$
112:0:1
     RDKit          3D

 71 77  0  0  1  0  0  0  0  0999 V2000
    6.1500   -6.8913    2.3079 C   0  0  0  0  0  0  0  0  0  0  0  0
    4.8198   -7.0374    1.5540 C   0  0  0  0  0  0  0  0  0  0  0  0
    4.7663   -6.0818    0.3506 C   0  0  0  0  0  0  0  0  0  0  0  0
    3.6225   -6.8633    2.4914 C   0  0  0  0  0  0  0  0  0  0  0  0
    2.5703   -6.0606    2.3953 C   0  0  0  0  0  0  0  0  0  0  0  0
    1.6975   -6.3297    3.6124 C   0  0  1  0  0  0  0  0  0  0  0  0
    0.9690   -7.7506    3.6090 C   0  0  1  0  0  0  0  0  0  0  0  0
   -0.1903   -7.7265    2.5884 C   0  0  0  0  0  0  0  0  0  0  0  0
   -0.5819   -6.6845    2.0947 O   0  0  0  0  0  0  0  0  0  0  0  0
    2.1646   -8.6688    3.2462 C   0  0  1  0  0  0  0  0  0  0  0  0
    2.2293   -9.2496    1.8084 C   0  0  0  0  0  0  0  0  0  0  0  0
    3.3547   -7.7321    3.7043 C   0  0  2  0  0  0  0  0  0  0  0  0
    2.7084   -6.6645    4.7297 C   0  0  1  0  0  0  0  0  0  0  0  0
    3.6872   -5.5023    5.1295 C   0  0  0  0  0  0  0  0  0  0  0  0
    4.9005   -5.7002    5.0621 O   0  0  0  0  0  0  0  0  0  0  0  0
    3.2083   -4.3108    5.5506 N   0  0  0  0  0  0  0  0  0  0  0  0
    3.9124   -3.0893    5.8874 C   0  0  2  0  0  0  0  0  0  0  0  0
    3.4039   -2.8200    7.3367 C   0  0  0  0  0  0  0  0  0  0  0  0
    1.9857   -3.4151    7.3145 C   0  0  0  0  0  0  0  0  0  0  0  0
    1.8672   -3.8065    5.8313 C   0  0  1  0  0  0  0  0  0  0  0  0
    1.7990   -2.5953    4.8735 C   0  0  1  0  0  0  0  0  0  0  0  0
    0.7405   -1.5655    5.2409 C   0  0  0  0  0  0  0  0  0  0  0  0
   -0.6015   -1.6885    4.8162 C   0  0  0  0  0  0  0  0  0  0  0  0
   -1.5726   -0.8386    5.2404 N   0  0  0  0  0  0  0  0  0  0  0  0
   -1.1819    0.1582    6.0633 C   0  0  0  0  0  0  0  0  0  0  0  0
    0.1574    0.2555    6.5205 C   0  0  0  0  0  0  0  0  0  0  0  0
    1.1034   -0.6038    6.1223 N   0  0  0  0  0  0  0  0  0  0  0  0
    3.2737   -2.1040    4.8745 C   0  0  0  0  0  0  0  0  0  0  0  0
    1.8985   -7.1263    6.0090 C   0  0  1  0  0  0  0  0  0  0  0  0
    0.3469   -6.8868    5.9493 C   0  0  0  0  0  0  0  0  0  0  0  0
    0.4704   -8.1353    5.0677 C   0  0  2  0  0  0  0  0  0  0  0  0
    1.4394   -8.6017    6.2402 C   0  0  0  0  0  0  0  0  0  0  0  0
    2.5104   -9.7155    6.1499 C   0  0  0  0  0  0  0  0  0  0  0  0
    0.7786   -9.0264    7.5909 C   0  0  0  0  0  0  0  0  0  0  0  0
    6.2680   -7.6634    3.0686 H   0  0  0  0  0  0  0  0  0  0  0  0
    6.2321   -5.9213    2.7980 H   0  0  0  0  0  0  0  0  0  0  0  0
    6.9942   -6.9812    1.6259 H   0  0  0  0  0  0  0  0  0  0  0  0
    4.7683   -8.0541    1.1645 H   0  0  0  0  0  0  0  0  0  0  0  0
    3.8729   -6.2357   -0.2565 H   0  0  0  0  0  0  0  0  0  0  0  0
    5.6203   -6.2504   -0.3008 H   0  0  0  0  0  0  0  0  0  0  0  0
    4.8010   -5.0352    0.6557 H   0  0  0  0  0  0  0  0  0  0  0  0
    2.3456   -5.3254    1.6373 H   0  0  0  0  0  0  0  0  0  0  0  0
    1.0517   -5.4693    3.7755 H   0  0  0  0  0  0  0  0  0  0  0  0
   -0.6299   -8.7058    2.3551 H   0  0  0  0  0  0  0  0  0  0  0  0
    2.0800   -9.5774    3.8194 H   0  0  0  0  0  0  0  0  0  0  0  0
    2.1525   -8.4966    1.0239 H   0  0  0  0  0  0  0  0  0  0  0  0
    1.4123   -9.9542    1.6617 H   0  0  0  0  0  0  0  0  0  0  0  0
    3.1528   -9.8105    1.6615 H   0  0  0  0  0  0  0  0  0  0  0  0
    4.2567   -8.2451    4.0402 H   0  0  0  0  0  0  0  0  0  0  0  0
    5.0013   -3.1288    5.8134 H   0  0  0  0  0  0  0  0  0  0  0  0
    4.0087   -3.3353    8.0905 H   0  0  0  0  0  0  0  0  0  0  0  0
    3.3878   -1.7478    7.5636 H   0  0  0  0  0  0  0  0  0  0  0  0
    1.9106   -4.3005    7.9462 H   0  0  0  0  0  0  0  0  0  0  0  0
    1.2043   -2.7360    7.6376 H   0  0  0  0  0  0  0  0  0  0  0  0
    1.0208   -4.4761    5.6901 H   0  0  0  0  0  0  0  0  0  0  0  0
    1.5770   -2.9913    3.8827 H   0  0  0  0  0  0  0  0  0  0  0  0
   -0.9157   -2.4943    4.1676 H   0  0  0  0  0  0  0  0  0  0  0  0
   -1.9200    0.8818    6.3793 H   0  0  0  0  0  0  0  0  0  0  0  0
    0.4783    1.0156    7.2149 H   0  0  0  0  0  0  0  0  0  0  0  0
    3.4295   -1.0687    5.1961 H   0  0  0  0  0  0  0  0  0  0  0  0
    3.7066   -2.2143    3.8730 H   0  0  0  0  0  0  0  0  0  0  0  0
    2.3182   -6.7529    6.9450 H   0  0  0  0  0  0  0  0  0  0  0  0
   -0.1321   -6.9109    6.9219 H   0  0  0  0  0  0  0  0  0  0  0  0
   -0.1337   -6.1006    5.3578 H   0  0  0  0  0  0  0  0  0  0  0  0
   -0.4621   -8.7034    5.0852 H   0  0  0  0  0  0  0  0  0  0  0  0
    2.0774  -10.6547    5.7922 H   0  0  0  0  0  0  0  0  0  0  0  0
    2.9624   -9.9307    7.1244 H   0  0  0  0  0  0  0  0  0  0  0  0
    3.3608   -9.4624    5.5335 H   0  0  0  0  0  0  0  0  0  0  0  0
    0.7095  -10.1079    7.6970 H   0  0  0  0  0  0  0  0  0  0  0  0
   -0.2603   -8.7338    7.7198 H   0  0  0  0  0  0  0  0  0  0  0  0
    1.3372   -8.6412    8.4467 H   0  0  0  0  0  0  0  0  0  0  0  0
  1  2  1  0
  1 35  1  0
  1 36  1  0
  1 37  1  0
  2  3  1  0
  2  4  1  0
  2 38  1  0
  3 39  1  0
  3 40  1  0
  3 41  1  0
  4 12  1  0
  4  5  2  0
  5  6  1  0
  5 42  1  0
  6 13  1  0
  6  7  1  0
  6 43  1  1
  7 31  1  0
  7  8  1  6
  7 10  1  0
  8  9  2  0
  8 44  1  0
 10 11  1  0
 10 12  1  0
 10 45  1  1
 11 46  1  0
 11 47  1  0
 11 48  1  0
 12 13  1  0
 12 49  1  1
 13 14  1  1
 13 29  1  0
 14 15  2  0
 14 16  1  0
 16 20  1  0
 16 17  1  0
 17 28  1  0
 17 18  1  0
 17 50  1  1
 18 19  1  0
 18 51  1  0
 18 52  1  0
 19 20  1  0
 19 53  1  0
 19 54  1  0
 20 21  1  0
 20 55  1  1
 21 22  1  0
 21 28  1  0
 21 56  1  6
 22 27  1  0
 22 23  2  0
 23 24  1  0
 23 57  1  0
 24 25  2  0
 25 26  1  0
 25 58  1  0
 26 27  2  0
 26 59  1  0
 28 60  1  0
 28 61  1  0
 29 32  1  0
 29 30  1  0
 29 62  1  1
 30 31  1  0
 30 63  1  0
 30 64  1  0
 31 32  1  0
 31 65  1  6
 32 33  1  0
 32 34  1  0
 33 66  1  0
 33 67  1  0
 33 68  1  0
 34 69  1  0
 34 70  1  0
 34 71  1  0
M  END
>  <i_m_ct_stereo_status>  (357) 
1

>  <s_m_source_file>  (357) 
/var/tmp/pbs.5076255.sched01/tmp1uy3qkd6/1269t22etaf.sdf

>  <i_m_source_file_index>  (357) 
35

>  <i_lp_mmshare_version>  (357) 
48012

>  <i_f3d_flags>  (357) 
0

>  <s_epik_input>  (357) 
W0NIM11DMShbQ0gzXSlbQ0BIXTJbQ0gyXVtDQEBIXTFbQ0BdKFtDQEBIXTNbQ0BdMjRbQ0hdPU8pKFtDQEBIXShbQ0BASF00W0NIM10pQyg9W0NIXTMpW0NIXShbQ0gzXSlbQ0gzXSlDKD1PKU4oW0NASF01NilbQ0BASF0oW0NIMl1bQ0gyXTUpW0NASF0oW0NIMl02KWM3W2NIXW5bY0hdW2NIXW43

>  <s_epik_cmdline>  (357) 
J2VwaWtfcHl0aG9uJywgJy1waHQnLCAnMi4wJywgJy1waCcsICc3LjAnLCAnLXRuJywgJzgnLCAnLW1hJywgJzIwMCcsICctaW1hZScsICc8aW5maWxlLm1hZT4nLCAnLW9tYWUnLCAnPG91dGZpbGUubWFlPic=

>  <r_lp_tautomer_probability>  (357) 
1

>  <r_epik_Ionization_Penalty>  (357) 
5.39416e-06

>  <r_epik_Ionization_Penalty_Charging>  (357) 
0

>  <r_epik_Ionization_Penalty_Neutral>  (357) 
5.39416e-06

>  <r_epik_State_Penalty>  (357) 
-0

>  <r_epik_Charging_Adjusted_Penalty>  (357) 
0

>  <i_epik_Tot_Q>  (357) 
0

>  <i_epik_Tot_abs_Q>  (357) 
0

>  <s_lp_Force_Field>  (357) 
OPLS3e

>  <r_lp_Energy>  (357) 
150.531

>  <b_lp_Chiralities_Consistent>  (357) 
1

>  <s_lp_Variant>  (357) 
112:0-1

>  <s_i_glide_gridfile>  (357) 
pfpi4k_grid

>  <i_i_glide_lignum>  (357) 
35

>  <i_i_glide_rotatable_bonds>  (357) 
5

>  <r_i_docking_score>  (357) 
-2.40822

>  <r_i_glide_ligand_efficiency>  (357) 
-0.07083

>  <r_i_glide_ligand_efficiency_sa>  (357) 
-0.229462

>  <r_i_glide_ligand_efficiency_ln>  (357) 
-0.532044

>  <r_i_glide_gscore>  (357) 
-2.40822

>  <r_i_glide_lipo>  (357) 
-0.299682

>  <r_i_glide_hbond>  (357) 
-0.16

>  <r_i_glide_metal>  (357) 
-0

>  <r_i_glide_rewards>  (357) 
-0.275298

>  <r_i_glide_evdw>  (357) 
-22.432

>  <r_i_glide_ecoul>  (357) 
-5.19322

>  <r_i_glide_erotb>  (357) 
0.285753

>  <r_i_glide_esite>  (357) 
-0.0584128

>  <r_i_glide_emodel>  (357) 
-30.9645

>  <r_i_glide_energy>  (357) 
-27.6252

>  <r_i_glide_einternal>  (357) 
1.66626

>  <r_i_glide_intrahb_reward>  (357) 
-0

>  <i_i_glide_confnum>  (357) 
3

>  <i_i_glide_posenum>  (357) 
9

>  <r_i_glide_eff_state_penalty>  (357) 
0

>  <ligand_id>  (357) 
112

>  <original_smiles>  (357) 
CC(C)C1=CC2C3(C=O)C(C)C1C2(C(=O)N1C2CCC1C(c1cnccn1)C2)C1CC3C1(C)C

>  <smiles>  (357) 
[H]C(=O)C12C3([H])C([H])=C(C([H])(C([H])([H])[H])C([H])([H])[H])C([H])(C1([H])C([H])([H])[H])C3(C(=O)N1C3([H])C([H])([H])C([H])([H])C1([H])C([H])(c1nc([H])c([H])nc1[H])C3([H])[H])C1([H])C([H])([H])C2([H])C1(C([H])([H])[H])C([H])([H])[H]

$$$$
112:0:2
     RDKit          3D

 71 77  0  0  1  0  0  0  0  0999 V2000
    0.8352  -10.5553    2.5062 C   0  0  0  0  0  0  0  0  0  0  0  0
    0.0097   -9.5476    3.3148 C   0  0  0  0  0  0  0  0  0  0  0  0
   -1.1874   -9.0350    2.4919 C   0  0  0  0  0  0  0  0  0  0  0  0
    0.8765   -8.4178    3.8699 C   0  0  0  0  0  0  0  0  0  0  0  0
    0.6934   -7.1082    3.8422 C   0  0  0  0  0  0  0  0  0  0  0  0
    1.8762   -6.4789    4.5639 C   0  0  1  0  0  0  0  0  0  0  0  0
    1.9022   -6.7211    6.1402 C   0  0  1  0  0  0  0  0  0  0  0  0
    0.8434   -5.8378    6.8310 C   0  0  0  0  0  0  0  0  0  0  0  0
   -0.2711   -5.6419    6.3415 O   0  0  0  0  0  0  0  0  0  0  0  0
    1.6486   -8.2558    6.1811 C   0  0  1  0  0  0  0  0  0  0  0  0
    0.2474   -8.7609    6.6299 C   0  0  0  0  0  0  0  0  0  0  0  0
    2.1202   -8.6311    4.7157 C   0  0  2  0  0  0  0  0  0  0  0  0
    3.0571   -7.4149    4.2190 C   0  0  1  0  0  0  0  0  0  0  0  0
    3.4386   -7.4953    2.6952 C   0  0  0  0  0  0  0  0  0  0  0  0
    3.4166   -8.5905    2.1347 O   0  0  0  0  0  0  0  0  0  0  0  0
    3.8070   -6.3906    2.0177 N   0  0  0  0  0  0  0  0  0  0  0  0
    4.1652   -6.2284    0.6197 C   0  0  2  0  0  0  0  0  0  0  0  0
    5.5684   -5.5689    0.7230 C   0  0  0  0  0  0  0  0  0  0  0  0
    5.4702   -4.7646    2.0340 C   0  0  0  0  0  0  0  0  0  0  0  0
    3.9872   -4.9971    2.3942 C   0  0  1  0  0  0  0  0  0  0  0  0
    3.0071   -4.2934    1.4225 C   0  0  1  0  0  0  0  0  0  0  0  0
    3.2825   -2.8190    1.1889 C   0  0  0  0  0  0  0  0  0  0  0  0
    2.7228   -1.8103    2.0162 C   0  0  0  0  0  0  0  0  0  0  0  0
    3.0608   -0.5131    1.8805 N   0  0  0  0  0  0  0  0  0  0  0  0
    3.9558   -0.2148    0.9061 C   0  0  0  0  0  0  0  0  0  0  0  0
    4.5326   -1.2230    0.1017 C   0  0  0  0  0  0  0  0  0  0  0  0
    4.2047   -2.5100    0.2449 N   0  0  0  0  0  0  0  0  0  0  0  0
    3.0982   -5.2056    0.1652 C   0  0  0  0  0  0  0  0  0  0  0  0
    4.3215   -6.9468    5.0510 C   0  0  1  0  0  0  0  0  0  0  0  0
    4.1694   -5.5572    5.7691 C   0  0  0  0  0  0  0  0  0  0  0  0
    3.3591   -6.4513    6.7189 C   0  0  2  0  0  0  0  0  0  0  0  0
    4.6001   -7.4277    6.5086 C   0  0  0  0  0  0  0  0  0  0  0  0
    4.6166   -8.9501    6.7758 C   0  0  0  0  0  0  0  0  0  0  0  0
    5.9388   -7.0474    7.2252 C   0  0  0  0  0  0  0  0  0  0  0  0
    1.5868  -11.0554    3.1180 H   0  0  0  0  0  0  0  0  0  0  0  0
    1.3504  -10.0685    1.6795 H   0  0  0  0  0  0  0  0  0  0  0  0
    0.2045  -11.3309    2.0909 H   0  0  0  0  0  0  0  0  0  0  0  0
   -0.3883  -10.0839    4.1699 H   0  0  0  0  0  0  0  0  0  0  0  0
   -1.8481   -8.4040    3.0880 H   0  0  0  0  0  0  0  0  0  0  0  0
   -1.7883   -9.8721    2.1365 H   0  0  0  0  0  0  0  0  0  0  0  0
   -0.8672   -8.4719    1.6163 H   0  0  0  0  0  0  0  0  0  0  0  0
   -0.1151   -6.5482    3.4001 H   0  0  0  0  0  0  0  0  0  0  0  0
    1.9564   -5.4419    4.2524 H   0  0  0  0  0  0  0  0  0  0  0  0
    1.1490   -5.3740    7.7643 H   0  0  0  0  0  0  0  0  0  0  0  0
    2.2625   -8.6912    6.9557 H   0  0  0  0  0  0  0  0  0  0  0  0
   -0.5749   -8.3368    6.0574 H   0  0  0  0  0  0  0  0  0  0  0  0
    0.0697   -8.5217    7.6803 H   0  0  0  0  0  0  0  0  0  0  0  0
    0.1851   -9.8459    6.5426 H   0  0  0  0  0  0  0  0  0  0  0  0
    2.5251   -9.6353    4.5986 H   0  0  0  0  0  0  0  0  0  0  0  0
    4.1697   -7.1391    0.0148 H   0  0  0  0  0  0  0  0  0  0  0  0
    6.3678   -6.3080    0.8051 H   0  0  0  0  0  0  0  0  0  0  0  0
    5.7731   -4.9243   -0.1372 H   0  0  0  0  0  0  0  0  0  0  0  0
    6.1189   -5.1704    2.8078 H   0  0  0  0  0  0  0  0  0  0  0  0
    5.7245   -3.7140    1.9403 H   0  0  0  0  0  0  0  0  0  0  0  0
    3.7958   -4.7097    3.4118 H   0  0  0  0  0  0  0  0  0  0  0  0
    2.0110   -4.3985    1.8522 H   0  0  0  0  0  0  0  0  0  0  0  0
    2.0382   -2.0550    2.8203 H   0  0  0  0  0  0  0  0  0  0  0  0
    4.2139    0.8188    0.7517 H   0  0  0  0  0  0  0  0  0  0  0  0
    5.2647   -0.9995   -0.6610 H   0  0  0  0  0  0  0  0  0  0  0  0
    3.4094   -4.6953   -0.7475 H   0  0  0  0  0  0  0  0  0  0  0  0
    2.1346   -5.6812   -0.0301 H   0  0  0  0  0  0  0  0  0  0  0  0
    5.2555   -6.9980    4.4833 H   0  0  0  0  0  0  0  0  0  0  0  0
    5.1080   -5.0977    6.0725 H   0  0  0  0  0  0  0  0  0  0  0  0
    3.5321   -4.7556    5.4050 H   0  0  0  0  0  0  0  0  0  0  0  0
    3.3680   -6.0311    7.7291 H   0  0  0  0  0  0  0  0  0  0  0  0
    4.2831   -9.1855    7.7912 H   0  0  0  0  0  0  0  0  0  0  0  0
    5.6155   -9.3765    6.6609 H   0  0  0  0  0  0  0  0  0  0  0  0
    4.0233   -9.5327    6.0816 H   0  0  0  0  0  0  0  0  0  0  0  0
    6.1003   -7.6206    8.1385 H   0  0  0  0  0  0  0  0  0  0  0  0
    6.0008   -6.0229    7.5922 H   0  0  0  0  0  0  0  0  0  0  0  0
    6.7992   -7.2076    6.5754 H   0  0  0  0  0  0  0  0  0  0  0  0
  1  2  1  0
  1 35  1  0
  1 36  1  0
  1 37  1  0
  2  3  1  0
  2  4  1  0
  2 38  1  0
  3 39  1  0
  3 40  1  0
  3 41  1  0
  4 12  1  0
  4  5  2  0
  5  6  1  0
  5 42  1  0
  6 13  1  0
  6  7  1  0
  6 43  1  1
  7 31  1  0
  7  8  1  1
  7 10  1  0
  8  9  2  0
  8 44  1  0
 10 11  1  0
 10 12  1  0
 10 45  1  1
 11 46  1  0
 11 47  1  0
 11 48  1  0
 12 13  1  0
 12 49  1  1
 13 14  1  6
 13 29  1  0
 14 15  2  0
 14 16  1  0
 16 20  1  0
 16 17  1  0
 17 28  1  0
 17 18  1  0
 17 50  1  6
 18 19  1  0
 18 51  1  0
 18 52  1  0
 19 20  1  0
 19 53  1  0
 19 54  1  0
 20 21  1  0
 20 55  1  1
 21 22  1  0
 21 28  1  0
 21 56  1  1
 22 27  1  0
 22 23  2  0
 23 24  1  0
 23 57  1  0
 24 25  2  0
 25 26  1  0
 25 58  1  0
 26 27  2  0
 26 59  1  0
 28 60  1  0
 28 61  1  0
 29 32  1  0
 29 30  1  0
 29 62  1  6
 30 31  1  0
 30 63  1  0
 30 64  1  0
 31 32  1  0
 31 65  1  1
 32 33  1  0
 32 34  1  0
 33 66  1  0
 33 67  1  0
 33 68  1  0
 34 69  1  0
 34 70  1  0
 34 71  1  0
M  END
>  <i_m_ct_stereo_status>  (358) 
1

>  <s_m_source_file>  (358) 
/var/tmp/pbs.5076255.sched01/tmp1uy3qkd6/1269t22etaf.sdf

>  <i_m_source_file_index>  (358) 
35

>  <i_lp_mmshare_version>  (358) 
48012

>  <i_f3d_flags>  (358) 
0

>  <s_epik_input>  (358) 
W0NIM11DMShbQ0gzXSlbQ0BIXTJbQ0gyXVtDQEBIXTFbQ0BdKFtDQEBIXTNbQ0BdMjRbQ0hdPU8pKFtDQEBIXShbQ0BASF00W0NIM10pQyg9W0NIXTMpW0NIXShbQ0gzXSlbQ0gzXSlDKD1PKU4oW0NASF01NilbQ0BASF0oW0NIMl1bQ0gyXTUpW0NASF0oW0NIMl02KWM3W2NIXW5bY0hdW2NIXW43

>  <s_epik_cmdline>  (358) 
J2VwaWtfcHl0aG9uJywgJy1waHQnLCAnMi4wJywgJy1waCcsICc3LjAnLCAnLXRuJywgJzgnLCAnLW1hJywgJzIwMCcsICctaW1hZScsICc8aW5maWxlLm1hZT4nLCAnLW9tYWUnLCAnPG91dGZpbGUubWFlPic=

>  <r_lp_tautomer_probability>  (358) 
1

>  <r_epik_Ionization_Penalty>  (358) 
5.39416e-06

>  <r_epik_Ionization_Penalty_Charging>  (358) 
0

>  <r_epik_Ionization_Penalty_Neutral>  (358) 
5.39416e-06

>  <r_epik_State_Penalty>  (358) 
-0

>  <r_epik_Charging_Adjusted_Penalty>  (358) 
0

>  <i_epik_Tot_Q>  (358) 
0

>  <i_epik_Tot_abs_Q>  (358) 
0

>  <s_lp_Force_Field>  (358) 
OPLS3e

>  <r_lp_Energy>  (358) 
150.531

>  <b_lp_Chiralities_Consistent>  (358) 
1

>  <s_lp_Variant>  (358) 
112:0-1

>  <s_i_glide_gridfile>  (358) 
pfpi4k_grid

>  <i_i_glide_lignum>  (358) 
35

>  <i_i_glide_rotatable_bonds>  (358) 
5

>  <r_i_docking_score>  (358) 
-2.00691

>  <r_i_glide_ligand_efficiency>  (358) 
-0.0590267

>  <r_i_glide_ligand_efficiency_sa>  (358) 
-0.191224

>  <r_i_glide_ligand_efficiency_ln>  (358) 
-0.443382

>  <r_i_glide_gscore>  (358) 
-2.00691

>  <r_i_glide_lipo>  (358) 
-0.611735

>  <r_i_glide_hbond>  (358) 
0

>  <r_i_glide_metal>  (358) 
-0

>  <r_i_glide_rewards>  (358) 
-0.306419

>  <r_i_glide_evdw>  (358) 
-27.1784

>  <r_i_glide_ecoul>  (358) 
-0.0919174

>  <r_i_glide_erotb>  (358) 
0.285753

>  <r_i_glide_esite>  (358) 
-0.00179796

>  <r_i_glide_emodel>  (358) 
-29.9002

>  <r_i_glide_energy>  (358) 
-27.2703

>  <r_i_glide_einternal>  (358) 
1.69173

>  <r_i_glide_intrahb_reward>  (358) 
-0

>  <i_i_glide_confnum>  (358) 
4

>  <i_i_glide_posenum>  (358) 
4

>  <r_i_glide_eff_state_penalty>  (358) 
0

>  <ligand_id>  (358) 
112

>  <original_smiles>  (358) 
CC(C)C1=CC2C3(C=O)C(C)C1C2(C(=O)N1C2CCC1C(c1cnccn1)C2)C1CC3C1(C)C

>  <smiles>  (358) 
[H]C(=O)C12C3([H])C([H])=C(C([H])(C([H])([H])[H])C([H])([H])[H])C([H])(C1([H])C([H])([H])[H])C3(C(=O)N1C3([H])C([H])([H])C([H])([H])C1([H])C([H])(c1nc([H])c([H])nc1[H])C3([H])[H])C1([H])C([H])([H])C2([H])C1(C([H])([H])[H])C([H])([H])[H]

$$$$
113:0:0
     RDKit          3D

 67 72  0  0  1  0  0  0  0  0999 V2000
    2.7536   -4.7761    0.0543 C   0  0  0  0  0  0  0  0  0  0  0  0
    3.3600   -3.7869    1.0291 C   0  0  0  0  0  0  0  0  0  0  0  0
    4.4075   -4.1488    1.7889 C   0  0  0  0  0  0  0  0  0  0  0  0
    5.2231   -3.2803    2.7254 C   0  0  1  0  0  0  0  0  0  0  0  0
    5.8095   -2.1008    1.9102 C   0  0  0  0  0  0  0  0  0  0  0  0
    4.7837   -1.0170    1.4798 C   0  0  1  0  0  0  0  0  0  0  0  0
    4.9278   -0.6720   -0.0135 C   0  0  0  0  0  0  0  0  0  0  0  0
    3.3170   -1.3189    1.9234 C   0  0  1  0  0  0  0  0  0  0  0  0
    2.6873   -2.4256    1.0463 C   0  0  0  0  0  0  0  0  0  0  0  0
    3.0814   -1.3029    3.4953 C   0  0  2  0  0  0  0  0  0  0  0  0
    4.3954   -1.4110    4.2738 C   0  0  0  0  0  0  0  0  0  0  0  0
    4.6791   -2.9187    4.1674 C   0  0  1  0  0  0  0  0  0  0  0  0
    3.3290   -3.4922    4.7668 C   0  0  1  0  0  0  0  0  0  0  0  0
    3.4386   -3.5076    6.3261 C   0  0  0  0  0  0  0  0  0  0  0  0
    2.4470   -3.1580    7.0046 O   0  0  0  0  0  0  0  0  0  0  0  0
    4.5128   -3.9134    6.8261 O   0  0  0  0  0  0  0  0  0  0  0  0
    2.3071   -2.4057    4.2938 C   0  0  2  0  0  0  0  0  0  0  0  0
    1.0230   -3.1019    3.8308 C   0  0  0  0  0  0  0  0  0  0  0  0
    1.4170   -4.5527    3.5418 C   0  0  2  0  0  0  0  0  0  0  0  0
    0.4369   -5.4758    4.0038 O   0  0  0  0  0  0  0  0  0  0  0  0
    1.1092   -6.5900    4.4939 C   0  0  1  0  0  0  0  0  0  0  0  0
    0.1641   -7.3993    5.4041 C   0  0  0  0  0  0  0  0  0  0  0  0
   -0.9841   -7.9756    4.5708 C   0  0  0  0  0  0  0  0  0  0  0  0
   -0.4472   -8.7815    3.3868 C   0  0  1  0  0  0  0  0  0  0  0  0
   -1.5980   -9.2466    2.4901 C   0  0  0  0  0  0  0  0  0  0  0  0
    0.5665   -7.9342    2.6003 C   0  0  0  0  0  0  0  0  0  0  0  0
    1.5845   -7.4162    3.4601 O   0  0  0  0  0  0  0  0  0  0  0  0
    2.2810   -5.9539    5.2541 C   0  0  1  0  0  0  0  0  0  0  0  0
    3.3705   -6.9674    5.6536 C   0  0  0  0  0  0  0  0  0  0  0  0
    2.7378   -4.8638    4.2712 C   0  0  2  0  0  0  0  0  0  0  0  0
    1.6818   -4.8860    0.1935 H   0  0  0  0  0  0  0  0  0  0  0  0
    3.2051   -5.7641    0.1471 H   0  0  0  0  0  0  0  0  0  0  0  0
    2.9229   -4.4255   -0.9648 H   0  0  0  0  0  0  0  0  0  0  0  0
    4.7855   -5.1527    1.6873 H   0  0  0  0  0  0  0  0  0  0  0  0
    6.0723   -3.9348    2.9179 H   0  0  0  0  0  0  0  0  0  0  0  0
    6.6124   -1.6232    2.4727 H   0  0  0  0  0  0  0  0  0  0  0  0
    6.2975   -2.5103    1.0245 H   0  0  0  0  0  0  0  0  0  0  0  0
    5.0623   -0.0860    1.9729 H   0  0  0  0  0  0  0  0  0  0  0  0
    4.7661   -1.5349   -0.6584 H   0  0  0  0  0  0  0  0  0  0  0  0
    5.9297   -0.2944   -0.2182 H   0  0  0  0  0  0  0  0  0  0  0  0
    4.2201    0.1061   -0.3028 H   0  0  0  0  0  0  0  0  0  0  0  0
    2.7594   -0.4398    1.6013 H   0  0  0  0  0  0  0  0  0  0  0  0
    2.6672   -2.0793    0.0120 H   0  0  0  0  0  0  0  0  0  0  0  0
    1.6401   -2.5401    1.2851 H   0  0  0  0  0  0  0  0  0  0  0  0
    2.6259   -0.3402    3.7296 H   0  0  0  0  0  0  0  0  0  0  0  0
    5.2017   -0.7518    3.9721 H   0  0  0  0  0  0  0  0  0  0  0  0
    4.2331   -1.1215    5.3138 H   0  0  0  0  0  0  0  0  0  0  0  0
    5.5178   -3.1213    4.8301 H   0  0  0  0  0  0  0  0  0  0  0  0
    1.9550   -1.8254    5.1477 H   0  0  0  0  0  0  0  0  0  0  0  0
    0.3164   -3.1174    4.6666 H   0  0  0  0  0  0  0  0  0  0  0  0
    0.5027   -2.5983    3.0201 H   0  0  0  0  0  0  0  0  0  0  0  0
    1.5289   -4.7234    2.4803 H   0  0  0  0  0  0  0  0  0  0  0  0
    0.7295   -8.2011    5.8799 H   0  0  0  0  0  0  0  0  0  0  0  0
   -0.2209   -6.7432    6.1861 H   0  0  0  0  0  0  0  0  0  0  0  0
   -1.5961   -8.6317    5.1976 H   0  0  0  0  0  0  0  0  0  0  0  0
   -1.6343   -7.1701    4.2215 H   0  0  0  0  0  0  0  0  0  0  0  0
    0.0663   -9.6646    3.7758 H   0  0  0  0  0  0  0  0  0  0  0  0
   -2.1459   -8.4106    2.0552 H   0  0  0  0  0  0  0  0  0  0  0  0
   -2.3109   -9.8445    3.0529 H   0  0  0  0  0  0  0  0  0  0  0  0
   -1.2336   -9.8808    1.6802 H   0  0  0  0  0  0  0  0  0  0  0  0
    1.0371   -8.5352    1.8191 H   0  0  0  0  0  0  0  0  0  0  0  0
    0.0641   -7.1059    2.0986 H   0  0  0  0  0  0  0  0  0  0  0  0
    1.8339   -5.5213    6.1486 H   0  0  0  0  0  0  0  0  0  0  0  0
    3.8343   -7.4475    4.7901 H   0  0  0  0  0  0  0  0  0  0  0  0
    2.9765   -7.7473    6.3031 H   0  0  0  0  0  0  0  0  0  0  0  0
    4.1644   -6.4670    6.2081 H   0  0  0  0  0  0  0  0  0  0  0  0
    3.4280   -5.3797    3.6133 H   0  0  0  0  0  0  0  0  0  0  0  0
  1  2  1  0
  1 31  1  0
  1 32  1  0
  1 33  1  0
  2  9  1  0
  2  3  2  0
  3  4  1  0
  3 34  1  0
  4 12  1  0
  4  5  1  0
  4 35  1  1
  5  6  1  0
  5 36  1  0
  5 37  1  0
  6  7  1  0
  6  8  1  0
  6 38  1  1
  7 39  1  0
  7 40  1  0
  7 41  1  0
  8  9  1  0
  8 10  1  0
  8 42  1  6
  9 43  1  0
  9 44  1  0
 10 17  1  0
 10 11  1  0
 10 45  1  1
 11 12  1  0
 11 46  1  0
 11 47  1  0
 12 13  1  0
 12 48  1  1
 13 30  1  0
 13 14  1  1
 13 17  1  0
 14 15  2  0
 14 16  1  0
 17 18  1  0
 17 49  1  1
 18 19  1  0
 18 50  1  0
 18 51  1  0
 19 30  1  0
 19 20  1  0
 19 52  1  6
 21 20  1  6
 21 27  1  0
 21 22  1  0
 21 28  1  0
 22 23  1  0
 22 53  1  0
 22 54  1  0
 23 24  1  0
 23 55  1  0
 23 56  1  0
 24 25  1  0
 24 26  1  0
 24 57  1  1
 25 58  1  0
 25 59  1  0
 25 60  1  0
 26 27  1  0
 26 61  1  0
 26 62  1  0
 28 29  1  0
 28 30  1  0
 28 63  1  1
 29 64  1  0
 29 65  1  0
 29 66  1  0
 30 67  1  6
M  CHG  1  16  -1
M  END
>  <i_m_ct_stereo_status>  (359) 
1

>  <s_m_source_file>  (359) 
/var/tmp/pbs.5076255.sched01/tmp1uy3qkd6/1269t22etaf.sdf

>  <i_m_source_file_index>  (359) 
36

>  <i_lp_mmshare_version>  (359) 
48012

>  <i_f3d_flags>  (359) 
0

>  <s_epik_input>  (359) 
W0NIMl0xW0NAQEhdMltDQEBIXShbQ0gyXTMpW0NAQEhdKFtDQEBIXShbQ0gyXTQpW0NIM10pW0NIMl1DKFtDSDNdKT1bQ0hdW0NAQEhdNFtDQEBIXTNbQ0BdMihDKD1PKVtPSF0pW0NAQEhdKFtDQEBIXTVbQ0gzXSlbQ0BIXTFPW0NAXTU2W0NIMl1bQ0gyXVtDQEBIXShbQ0gzXSlbQ0gyXU82

>  <s_epik_cmdline>  (359) 
J2VwaWtfcHl0aG9uJywgJy1waHQnLCAnMi4wJywgJy1waCcsICc3LjAnLCAnLXRuJywgJzgnLCAnLW1hJywgJzIwMCcsICctaW1hZScsICc8aW5maWxlLm1hZT4nLCAnLW9tYWUnLCAnPG91dGZpbGUubWFlPic=

>  <r_epik_Ionization_Penalty>  (359) 
0.00370317

>  <r_epik_Ionization_Penalty_Charging>  (359) 
0.00370317

>  <r_epik_Ionization_Penalty_Neutral>  (359) 
8.71284e-12

>  <r_epik_State_Penalty>  (359) 
0.00263757

>  <r_epik_Charging_Adjusted_Penalty>  (359) 
0.00634074

>  <i_epik_Tot_Q>  (359) 
-1

>  <i_epik_Tot_abs_Q>  (359) 
1

>  <s_lp_Force_Field>  (359) 
OPLS3e

>  <r_lp_Energy>  (359) 
75.7428

>  <b_lp_Chiralities_Consistent>  (359) 
1

>  <s_lp_Variant>  (359) 
113:0-1

>  <s_i_glide_gridfile>  (359) 
pfpi4k_grid

>  <i_i_glide_lignum>  (359) 
36

>  <i_i_glide_rotatable_bonds>  (359) 
1

>  <r_i_docking_score>  (359) 
-2.41853

>  <r_i_glide_ligand_efficiency>  (359) 
-0.0806178

>  <r_i_glide_ligand_efficiency_sa>  (359) 
-0.250498

>  <r_i_glide_ligand_efficiency_ln>  (359) 
-0.549517

>  <r_i_glide_gscore>  (359) 
-2.41853

>  <r_i_glide_lipo>  (359) 
-0.576718

>  <r_i_glide_hbond>  (359) 
0

>  <r_i_glide_metal>  (359) 
-0

>  <r_i_glide_rewards>  (359) 
-0.589298

>  <r_i_glide_evdw>  (359) 
-24.6228

>  <r_i_glide_ecoul>  (359) 
-0.0942459

>  <r_i_glide_erotb>  (359) 
0

>  <r_i_glide_esite>  (359) 
-0.00724111

>  <r_i_glide_emodel>  (359) 
-29.9936

>  <r_i_glide_energy>  (359) 
-24.717

>  <r_i_glide_einternal>  (359) 
0.00168545

>  <r_i_glide_intrahb_reward>  (359) 
-0

>  <i_i_glide_confnum>  (359) 
1

>  <i_i_glide_posenum>  (359) 
9

>  <r_i_glide_eff_state_penalty>  (359) 
0

>  <ligand_id>  (359) 
113

>  <original_smiles>  (359) 
CC1=CC2CC(C)C(C1)C1CC2C2(C(=O)O)C1CC1OC3(CCC(C)CO3)C(C)C12

>  <smiles>  (359) 
[H]C1=C(C([H])([H])[H])C([H])([H])C2([H])C([H])(C([H])([H])[H])C([H])([H])C1([H])C1([H])C([H])([H])C2([H])C2([H])C([H])([H])C3([H])OC4(OC([H])([H])C([H])(C([H])([H])[H])C([H])([H])C4([H])[H])C([H])(C([H])([H])[H])C3([H])C12C(=O)[O-]

$$$$
113:0:1
     RDKit          3D

 67 72  0  0  1  0  0  0  0  0999 V2000
    0.5210   -7.0834    1.2819 C   0  0  0  0  0  0  0  0  0  0  0  0
    1.4239   -7.6394    2.3712 C   0  0  0  0  0  0  0  0  0  0  0  0
    1.6256   -6.9399    3.5017 C   0  0  0  0  0  0  0  0  0  0  0  0
    2.3766   -7.3649    4.7524 C   0  0  1  0  0  0  0  0  0  0  0  0
    1.7256   -8.6656    5.2872 C   0  0  0  0  0  0  0  0  0  0  0  0
    2.0007   -9.9437    4.4406 C   0  0  1  0  0  0  0  0  0  0  0  0
    0.7033  -10.7310    4.1623 C   0  0  0  0  0  0  0  0  0  0  0  0
    2.8719   -9.6859    3.1663 C   0  0  1  0  0  0  0  0  0  0  0  0
    2.0456   -8.9930    2.0534 C   0  0  0  0  0  0  0  0  0  0  0  0
    4.3665   -9.2328    3.4692 C   0  0  2  0  0  0  0  0  0  0  0  0
    4.5396   -8.7347    4.9061 C   0  0  0  0  0  0  0  0  0  0  0  0
    3.9593   -7.3140    4.7995 C   0  0  1  0  0  0  0  0  0  0  0  0
    4.8585   -6.7400    3.6270 C   0  0  1  0  0  0  0  0  0  0  0  0
    6.1999   -6.2143    4.2411 C   0  0  0  0  0  0  0  0  0  0  0  0
    7.2743   -6.4702    3.6569 O   0  0  0  0  0  0  0  0  0  0  0  0
    6.1263   -5.5114    5.2728 O   0  0  0  0  0  0  0  0  0  0  0  0
    5.0922   -8.0312    2.7724 C   0  0  2  0  0  0  0  0  0  0  0  0
    4.9850   -7.6693    1.2851 C   0  0  0  0  0  0  0  0  0  0  0  0
    4.2127   -6.3489    1.2317 C   0  0  2  0  0  0  0  0  0  0  0  0
    4.7642   -5.4444    0.2812 O   0  0  0  0  0  0  0  0  0  0  0  0
    4.6741   -4.1625    0.8140 C   0  0  1  0  0  0  0  0  0  0  0  0
    5.6423   -3.2224    0.0638 C   0  0  0  0  0  0  0  0  0  0  0  0
    5.1930   -3.0696   -1.3941 C   0  0  0  0  0  0  0  0  0  0  0  0
    3.7280   -2.6153   -1.4672 C   0  0  1  0  0  0  0  0  0  0  0  0
    3.2359   -2.5852   -2.9193 C   0  0  0  0  0  0  0  0  0  0  0  0
    2.8588   -3.5458   -0.6000 C   0  0  0  0  0  0  0  0  0  0  0  0
    3.3666   -3.6444    0.7330 O   0  0  0  0  0  0  0  0  0  0  0  0
    5.0676   -4.3893    2.2804 C   0  0  1  0  0  0  0  0  0  0  0  0
    4.7583   -3.1823    3.1898 C   0  0  0  0  0  0  0  0  0  0  0  0
    4.2921   -5.6742    2.6163 C   0  0  2  0  0  0  0  0  0  0  0  0
    1.0266   -7.0637    0.3169 H   0  0  0  0  0  0  0  0  0  0  0  0
    0.2071   -6.0699    1.5154 H   0  0  0  0  0  0  0  0  0  0  0  0
   -0.3697   -7.7043    1.1753 H   0  0  0  0  0  0  0  0  0  0  0  0
    1.1422   -5.9804    3.5986 H   0  0  0  0  0  0  0  0  0  0  0  0
    2.0724   -6.5947    5.4609 H   0  0  0  0  0  0  0  0  0  0  0  0
    2.0428   -8.8369    6.3172 H   0  0  0  0  0  0  0  0  0  0  0  0
    0.6491   -8.5070    5.3561 H   0  0  0  0  0  0  0  0  0  0  0  0
    2.5685  -10.6324    5.0663 H   0  0  0  0  0  0  0  0  0  0  0  0
   -0.0346  -10.1408    3.6177 H   0  0  0  0  0  0  0  0  0  0  0  0
    0.2341  -11.0358    5.0990 H   0  0  0  0  0  0  0  0  0  0  0  0
    0.9012  -11.6402    3.5923 H   0  0  0  0  0  0  0  0  0  0  0  0
    3.0210  -10.6816    2.7458 H   0  0  0  0  0  0  0  0  0  0  0  0
    1.2206   -9.6519    1.7807 H   0  0  0  0  0  0  0  0  0  0  0  0
    2.6112   -8.9256    1.1302 H   0  0  0  0  0  0  0  0  0  0  0  0
    4.9897  -10.1191    3.3390 H   0  0  0  0  0  0  0  0  0  0  0  0
    4.1324   -9.3588    5.6951 H   0  0  0  0  0  0  0  0  0  0  0  0
    5.6006   -8.7002    5.1607 H   0  0  0  0  0  0  0  0  0  0  0  0
    4.1878   -6.8193    5.7424 H   0  0  0  0  0  0  0  0  0  0  0  0
    6.1319   -8.3515    2.8547 H   0  0  0  0  0  0  0  0  0  0  0  0
    5.9939   -7.4716    0.9110 H   0  0  0  0  0  0  0  0  0  0  0  0
    4.5924   -8.4608    0.6488 H   0  0  0  0  0  0  0  0  0  0  0  0
    3.1817   -6.5140    0.9495 H   0  0  0  0  0  0  0  0  0  0  0  0
    5.6525   -2.2537    0.5627 H   0  0  0  0  0  0  0  0  0  0  0  0
    6.6499   -3.6423    0.1096 H   0  0  0  0  0  0  0  0  0  0  0  0
    5.8308   -2.3438   -1.9002 H   0  0  0  0  0  0  0  0  0  0  0  0
    5.3163   -4.0179   -1.9194 H   0  0  0  0  0  0  0  0  0  0  0  0
    3.6506   -1.6073   -1.0544 H   0  0  0  0  0  0  0  0  0  0  0  0
    3.2693   -3.5774   -3.3687 H   0  0  0  0  0  0  0  0  0  0  0  0
    3.8466   -1.9259   -3.5316 H   0  0  0  0  0  0  0  0  0  0  0  0
    2.2073   -2.2331   -2.9818 H   0  0  0  0  0  0  0  0  0  0  0  0
    1.8335   -3.1744   -0.5601 H   0  0  0  0  0  0  0  0  0  0  0  0
    2.8068   -4.5458   -1.0308 H   0  0  0  0  0  0  0  0  0  0  0  0
    6.1418   -4.5702    2.2575 H   0  0  0  0  0  0  0  0  0  0  0  0
    3.6929   -2.9493    3.2278 H   0  0  0  0  0  0  0  0  0  0  0  0
    5.2913   -2.2890    2.8684 H   0  0  0  0  0  0  0  0  0  0  0  0
    5.0786   -3.3882    4.2109 H   0  0  0  0  0  0  0  0  0  0  0  0
    3.3169   -5.3186    2.9271 H   0  0  0  0  0  0  0  0  0  0  0  0
  1  2  1  0
  1 31  1  0
  1 32  1  0
  1 33  1  0
  2  9  1  0
  2  3  2  0
  3  4  1  0
  3 34  1  0
  4 12  1  0
  4  5  1  0
  4 35  1  1
  5  6  1  0
  5 36  1  0
  5 37  1  0
  6  7  1  0
  6  8  1  0
  6 38  1  1
  7 39  1  0
  7 40  1  0
  7 41  1  0
  8  9  1  0
  8 10  1  0
  8 42  1  6
  9 43  1  0
  9 44  1  0
 10 17  1  0
 10 11  1  0
 10 45  1  1
 11 12  1  0
 11 46  1  0
 11 47  1  0
 12 13  1  0
 12 48  1  1
 13 30  1  0
 13 14  1  1
 13 17  1  0
 14 15  2  0
 14 16  1  0
 17 18  1  0
 17 49  1  6
 18 19  1  0
 18 50  1  0
 18 51  1  0
 19 30  1  0
 19 20  1  0
 19 52  1  6
 21 20  1  6
 21 27  1  0
 21 22  1  0
 21 28  1  0
 22 23  1  0
 22 53  1  0
 22 54  1  0
 23 24  1  0
 23 55  1  0
 23 56  1  0
 24 25  1  0
 24 26  1  0
 24 57  1  1
 25 58  1  0
 25 59  1  0
 25 60  1  0
 26 27  1  0
 26 61  1  0
 26 62  1  0
 28 29  1  0
 28 30  1  0
 28 63  1  6
 29 64  1  0
 29 65  1  0
 29 66  1  0
 30 67  1  1
M  CHG  1  16  -1
M  END
>  <i_m_ct_stereo_status>  (360) 
1

>  <s_m_source_file>  (360) 
/var/tmp/pbs.5076255.sched01/tmp1uy3qkd6/1269t22etaf.sdf

>  <i_m_source_file_index>  (360) 
36

>  <i_lp_mmshare_version>  (360) 
48012

>  <i_f3d_flags>  (360) 
0

>  <s_epik_input>  (360) 
W0NIMl0xW0NAQEhdMltDQEBIXShbQ0gyXTMpW0NAQEhdKFtDQEBIXShbQ0gyXTQpW0NIM10pW0NIMl1DKFtDSDNdKT1bQ0hdW0NAQEhdNFtDQEBIXTNbQ0BdMihDKD1PKVtPSF0pW0NAQEhdKFtDQEBIXTVbQ0gzXSlbQ0BIXTFPW0NAXTU2W0NIMl1bQ0gyXVtDQEBIXShbQ0gzXSlbQ0gyXU82

>  <s_epik_cmdline>  (360) 
J2VwaWtfcHl0aG9uJywgJy1waHQnLCAnMi4wJywgJy1waCcsICc3LjAnLCAnLXRuJywgJzgnLCAnLW1hJywgJzIwMCcsICctaW1hZScsICc8aW5maWxlLm1hZT4nLCAnLW9tYWUnLCAnPG91dGZpbGUubWFlPic=

>  <r_epik_Ionization_Penalty>  (360) 
0.00370317

>  <r_epik_Ionization_Penalty_Charging>  (360) 
0.00370317

>  <r_epik_Ionization_Penalty_Neutral>  (360) 
8.71284e-12

>  <r_epik_State_Penalty>  (360) 
0.00263757

>  <r_epik_Charging_Adjusted_Penalty>  (360) 
0.00634074

>  <i_epik_Tot_Q>  (360) 
-1

>  <i_epik_Tot_abs_Q>  (360) 
1

>  <s_lp_Force_Field>  (360) 
OPLS3e

>  <r_lp_Energy>  (360) 
75.7428

>  <b_lp_Chiralities_Consistent>  (360) 
1

>  <s_lp_Variant>  (360) 
113:0-1

>  <s_i_glide_gridfile>  (360) 
pfpi4k_grid

>  <i_i_glide_lignum>  (360) 
36

>  <i_i_glide_rotatable_bonds>  (360) 
1

>  <r_i_docking_score>  (360) 
-2.30829

>  <r_i_glide_ligand_efficiency>  (360) 
-0.0769431

>  <r_i_glide_ligand_efficiency_sa>  (360) 
-0.23908

>  <r_i_glide_ligand_efficiency_ln>  (360) 
-0.52447

>  <r_i_glide_gscore>  (360) 
-2.30829

>  <r_i_glide_lipo>  (360) 
-0.344698

>  <r_i_glide_hbond>  (360) 
0

>  <r_i_glide_metal>  (360) 
-0

>  <r_i_glide_rewards>  (360) 
-0.634937

>  <r_i_glide_evdw>  (360) 
-30.5584

>  <r_i_glide_ecoul>  (360) 
1.32839

>  <r_i_glide_erotb>  (360) 
0

>  <r_i_glide_esite>  (360) 
0

>  <r_i_glide_emodel>  (360) 
-34.2737

>  <r_i_glide_energy>  (360) 
-29.23

>  <r_i_glide_einternal>  (360) 
0.00187826

>  <r_i_glide_intrahb_reward>  (360) 
-0

>  <i_i_glide_confnum>  (360) 
2

>  <i_i_glide_posenum>  (360) 
8

>  <r_i_glide_eff_state_penalty>  (360) 
0

>  <ligand_id>  (360) 
113

>  <original_smiles>  (360) 
CC1=CC2CC(C)C(C1)C1CC2C2(C(=O)O)C1CC1OC3(CCC(C)CO3)C(C)C12

>  <smiles>  (360) 
[H]C1=C(C([H])([H])[H])C([H])([H])C2([H])C([H])(C([H])([H])[H])C([H])([H])C1([H])C1([H])C([H])([H])C2([H])C2([H])C([H])([H])C3([H])OC4(OC([H])([H])C([H])(C([H])([H])[H])C([H])([H])C4([H])[H])C([H])(C([H])([H])[H])C3([H])C12C(=O)[O-]

$$$$
113:0:2
     RDKit          3D

 67 72  0  0  1  0  0  0  0  0999 V2000
    2.3134   -1.5394    1.9230 C   0  0  0  0  0  0  0  0  0  0  0  0
    2.1559   -0.6367    3.1335 C   0  0  0  0  0  0  0  0  0  0  0  0
    3.0563   -0.6745    4.1320 C   0  0  0  0  0  0  0  0  0  0  0  0
    3.1475    0.2190    5.3560 C   0  0  1  0  0  0  0  0  0  0  0  0
    3.2694    1.6850    4.8717 C   0  0  0  0  0  0  0  0  0  0  0  0
    1.9697    2.2932    4.2705 C   0  0  1  0  0  0  0  0  0  0  0  0
    2.2449    2.9994    2.9261 C   0  0  0  0  0  0  0  0  0  0  0  0
    0.7627    1.2976    4.2329 C   0  0  1  0  0  0  0  0  0  0  0  0
    0.9249    0.2593    3.0929 C   0  0  0  0  0  0  0  0  0  0  0  0
    0.2189    0.8610    5.6654 C   0  0  2  0  0  0  0  0  0  0  0  0
    1.2305    1.1556    6.7755 C   0  0  0  0  0  0  0  0  0  0  0  0
    2.2096   -0.0180    6.6062 C   0  0  1  0  0  0  0  0  0  0  0  0
    1.1995   -1.2318    6.7179 C   0  0  1  0  0  0  0  0  0  0  0  0
    0.9737   -1.5537    8.2387 C   0  0  0  0  0  0  0  0  0  0  0  0
   -0.1724   -1.8634    8.6234 O   0  0  0  0  0  0  0  0  0  0  0  0
    1.9666   -1.5351    8.9966 O   0  0  0  0  0  0  0  0  0  0  0  0
   -0.0926   -0.6132    6.0916 C   0  0  2  0  0  0  0  0  0  0  0  0
   -0.7634   -1.6649    5.2023 C   0  0  0  0  0  0  0  0  0  0  0  0
    0.3206   -2.7028    4.8947 C   0  0  2  0  0  0  0  0  0  0  0  0
   -0.1827   -4.0333    4.9685 O   0  0  0  0  0  0  0  0  0  0  0  0
    0.8126   -4.8343    5.5080 C   0  0  1  0  0  0  0  0  0  0  0  0
    0.1878   -6.1515    6.0188 C   0  0  0  0  0  0  0  0  0  0  0  0
   -0.3503   -6.9635    4.8363 C   0  0  0  0  0  0  0  0  0  0  0  0
    0.7407   -7.1775    3.7779 C   0  0  1  0  0  0  0  0  0  0  0  0
    0.1734   -7.8838    2.5379 C   0  0  0  0  0  0  0  0  0  0  0  0
    1.3779   -5.8215    3.4170 C   0  0  0  0  0  0  0  0  0  0  0  0
    1.8264   -5.1282    4.5845 O   0  0  0  0  0  0  0  0  0  0  0  0
    1.3603   -3.9453    6.6340 C   0  0  1  0  0  0  0  0  0  0  0  0
    2.6838   -4.4564    7.2316 C   0  0  0  0  0  0  0  0  0  0  0  0
    1.4439   -2.5751    5.9411 C   0  0  2  0  0  0  0  0  0  0  0  0
    1.4103   -2.1168    1.7399 H   0  0  0  0  0  0  0  0  0  0  0  0
    3.1346   -2.2449    2.0544 H   0  0  0  0  0  0  0  0  0  0  0  0
    2.5167   -0.9481    1.0298 H   0  0  0  0  0  0  0  0  0  0  0  0
    3.8757   -1.3717    4.0432 H   0  0  0  0  0  0  0  0  0  0  0  0
    4.1430   -0.0304    5.7282 H   0  0  0  0  0  0  0  0  0  0  0  0
    3.6226    2.3113    5.6926 H   0  0  0  0  0  0  0  0  0  0  0  0
    4.0667    1.7350    4.1276 H   0  0  0  0  0  0  0  0  0  0  0  0
    1.6666    3.1170    4.9165 H   0  0  0  0  0  0  0  0  0  0  0  0
    2.6495    2.3184    2.1773 H   0  0  0  0  0  0  0  0  0  0  0  0
    2.9744    3.8003    3.0533 H   0  0  0  0  0  0  0  0  0  0  0  0
    1.3415    3.4496    2.5154 H   0  0  0  0  0  0  0  0  0  0  0  0
   -0.0590    1.9095    3.8586 H   0  0  0  0  0  0  0  0  0  0  0  0
    0.9648    0.7913    2.1416 H   0  0  0  0  0  0  0  0  0  0  0  0
    0.0372   -0.3537    2.9887 H   0  0  0  0  0  0  0  0  0  0  0  0
   -0.6731    1.4600    5.8532 H   0  0  0  0  0  0  0  0  0  0  0  0
    1.6740    2.1460    6.7901 H   0  0  0  0  0  0  0  0  0  0  0  0
    0.7374    1.1075    7.7479 H   0  0  0  0  0  0  0  0  0  0  0  0
    2.8832    0.0175    7.4603 H   0  0  0  0  0  0  0  0  0  0  0  0
   -0.8405   -0.4465    6.8676 H   0  0  0  0  0  0  0  0  0  0  0  0
   -1.5373   -2.1697    5.7867 H   0  0  0  0  0  0  0  0  0  0  0  0
   -1.2773   -1.2648    4.3313 H   0  0  0  0  0  0  0  0  0  0  0  0
    0.7153   -2.5649    3.8962 H   0  0  0  0  0  0  0  0  0  0  0  0
    0.9478   -6.7194    6.5555 H   0  0  0  0  0  0  0  0  0  0  0  0
   -0.6167   -5.9111    6.7151 H   0  0  0  0  0  0  0  0  0  0  0  0
   -0.7109   -7.9313    5.1922 H   0  0  0  0  0  0  0  0  0  0  0  0
   -1.2085   -6.4527    4.3972 H   0  0  0  0  0  0  0  0  0  0  0  0
    1.5200   -7.8084    4.2123 H   0  0  0  0  0  0  0  0  0  0  0  0
   -0.6013   -7.2877    2.0580 H   0  0  0  0  0  0  0  0  0  0  0  0
   -0.2713   -8.8426    2.7999 H   0  0  0  0  0  0  0  0  0  0  0  0
    0.9480   -8.0768    1.7957 H   0  0  0  0  0  0  0  0  0  0  0  0
    2.2253   -5.9688    2.7446 H   0  0  0  0  0  0  0  0  0  0  0  0
    0.6660   -5.1924    2.8797 H   0  0  0  0  0  0  0  0  0  0  0  0
    0.5833   -3.9626    7.3962 H   0  0  0  0  0  0  0  0  0  0  0  0
    3.4887   -4.4841    6.4959 H   0  0  0  0  0  0  0  0  0  0  0  0
    2.5755   -5.4534    7.6554 H   0  0  0  0  0  0  0  0  0  0  0  0
    3.0075   -3.8014    8.0413 H   0  0  0  0  0  0  0  0  0  0  0  0
    2.4149   -2.5820    5.4653 H   0  0  0  0  0  0  0  0  0  0  0  0
  1  2  1  0
  1 31  1  0
  1 32  1  0
  1 33  1  0
  2  9  1  0
  2  3  2  0
  3  4  1  0
  3 34  1  0
  4 12  1  0
  4  5  1  0
  4 35  1  1
  5  6  1  0
  5 36  1  0
  5 37  1  0
  6  7  1  0
  6  8  1  0
  6 38  1  1
  7 39  1  0
  7 40  1  0
  7 41  1  0
  8  9  1  0
  8 10  1  0
  8 42  1  6
  9 43  1  0
  9 44  1  0
 10 17  1  0
 10 11  1  0
 10 45  1  1
 11 12  1  0
 11 46  1  0
 11 47  1  0
 12 13  1  0
 12 48  1  1
 13 30  1  0
 13 14  1  1
 13 17  1  0
 14 15  2  0
 14 16  1  0
 17 18  1  0
 17 49  1  1
 18 19  1  0
 18 50  1  0
 18 51  1  0
 19 30  1  0
 19 20  1  0
 19 52  1  6
 21 20  1  6
 21 27  1  0
 21 22  1  0
 21 28  1  0
 22 23  1  0
 22 53  1  0
 22 54  1  0
 23 24  1  0
 23 55  1  0
 23 56  1  0
 24 25  1  0
 24 26  1  0
 24 57  1  1
 25 58  1  0
 25 59  1  0
 25 60  1  0
 26 27  1  0
 26 61  1  0
 26 62  1  0
 28 29  1  0
 28 30  1  0
 28 63  1  1
 29 64  1  0
 29 65  1  0
 29 66  1  0
 30 67  1  6
M  CHG  1  16  -1
M  END
>  <i_m_ct_stereo_status>  (361) 
1

>  <s_m_source_file>  (361) 
/var/tmp/pbs.5076255.sched01/tmp1uy3qkd6/1269t22etaf.sdf

>  <i_m_source_file_index>  (361) 
36

>  <i_lp_mmshare_version>  (361) 
48012

>  <i_f3d_flags>  (361) 
0

>  <s_epik_input>  (361) 
W0NIMl0xW0NAQEhdMltDQEBIXShbQ0gyXTMpW0NAQEhdKFtDQEBIXShbQ0gyXTQpW0NIM10pW0NIMl1DKFtDSDNdKT1bQ0hdW0NAQEhdNFtDQEBIXTNbQ0BdMihDKD1PKVtPSF0pW0NAQEhdKFtDQEBIXTVbQ0gzXSlbQ0BIXTFPW0NAXTU2W0NIMl1bQ0gyXVtDQEBIXShbQ0gzXSlbQ0gyXU82

>  <s_epik_cmdline>  (361) 
J2VwaWtfcHl0aG9uJywgJy1waHQnLCAnMi4wJywgJy1waCcsICc3LjAnLCAnLXRuJywgJzgnLCAnLW1hJywgJzIwMCcsICctaW1hZScsICc8aW5maWxlLm1hZT4nLCAnLW9tYWUnLCAnPG91dGZpbGUubWFlPic=

>  <r_epik_Ionization_Penalty>  (361) 
0.00370317

>  <r_epik_Ionization_Penalty_Charging>  (361) 
0.00370317

>  <r_epik_Ionization_Penalty_Neutral>  (361) 
8.71284e-12

>  <r_epik_State_Penalty>  (361) 
0.00263757

>  <r_epik_Charging_Adjusted_Penalty>  (361) 
0.00634074

>  <i_epik_Tot_Q>  (361) 
-1

>  <i_epik_Tot_abs_Q>  (361) 
1

>  <s_lp_Force_Field>  (361) 
OPLS3e

>  <r_lp_Energy>  (361) 
75.7428

>  <b_lp_Chiralities_Consistent>  (361) 
1

>  <s_lp_Variant>  (361) 
113:0-1

>  <s_i_glide_gridfile>  (361) 
pfpi4k_grid

>  <i_i_glide_lignum>  (361) 
36

>  <i_i_glide_rotatable_bonds>  (361) 
1

>  <r_i_docking_score>  (361) 
-2.2785

>  <r_i_glide_ligand_efficiency>  (361) 
-0.07595

>  <r_i_glide_ligand_efficiency_sa>  (361) 
-0.235994

>  <r_i_glide_ligand_efficiency_ln>  (361) 
-0.5177

>  <r_i_glide_gscore>  (361) 
-2.2785

>  <r_i_glide_lipo>  (361) 
-0.0140587

>  <r_i_glide_hbond>  (361) 
-0.181133

>  <r_i_glide_metal>  (361) 
-0

>  <r_i_glide_rewards>  (361) 
-0.589298

>  <r_i_glide_evdw>  (361) 
-21.8834

>  <r_i_glide_ecoul>  (361) 
-2.51773

>  <r_i_glide_erotb>  (361) 
0

>  <r_i_glide_esite>  (361) 
-0.0221815

>  <r_i_glide_emodel>  (361) 
-29.3718

>  <r_i_glide_energy>  (361) 
-24.4011

>  <r_i_glide_einternal>  (361) 
0.0142422

>  <r_i_glide_intrahb_reward>  (361) 
-0

>  <i_i_glide_confnum>  (361) 
1

>  <i_i_glide_posenum>  (361) 
17

>  <r_i_glide_eff_state_penalty>  (361) 
0

>  <ligand_id>  (361) 
113

>  <original_smiles>  (361) 
CC1=CC2CC(C)C(C1)C1CC2C2(C(=O)O)C1CC1OC3(CCC(C)CO3)C(C)C12

>  <smiles>  (361) 
[H]C1=C(C([H])([H])[H])C([H])([H])C2([H])C([H])(C([H])([H])[H])C([H])([H])C1([H])C1([H])C([H])([H])C2([H])C2([H])C([H])([H])C3([H])OC4(OC([H])([H])C([H])(C([H])([H])[H])C([H])([H])C4([H])[H])C([H])(C([H])([H])[H])C3([H])C12C(=O)[O-]

$$$$
114:1:0
     RDKit          3D

 64 70  0  0  1  0  0  0  0  0999 V2000
    3.8870   -3.3845   -4.0975 C   0  0  0  0  0  0  0  0  0  0  0  0
    3.9503   -2.2339   -3.2576 O   0  0  0  0  0  0  0  0  0  0  0  0
    4.9568   -2.1708   -2.2279 C   0  0  2  0  0  0  0  0  0  0  0  0
    5.6777   -3.5010   -1.8535 C   0  0  0  0  0  0  0  0  0  0  0  0
    5.1946   -3.9759   -0.4556 C   0  0  2  0  0  0  0  0  0  0  0  0
    3.5007   -4.1234   -0.7158 C   0  0  1  0  0  0  0  0  0  0  0  0
    2.2622   -5.1515   -0.0190 C   0  0  0  0  0  0  0  0  0  0  0  0
    1.8327   -5.4431    1.4933 O   0  0  0  0  0  0  0  0  0  0  0  0
    1.7077   -4.6165    2.8001 C   0  0  1  0  0  0  0  0  0  0  0  0
    0.8228   -5.2740    3.6630 O   0  0  0  0  0  0  0  0  0  0  0  0
    0.2747   -4.4738    4.7011 C   0  0  0  0  0  0  0  0  0  0  0  0
    3.1778   -4.2041    3.6899 C   0  0  1  0  0  0  0  0  0  0  0  0
    3.2002   -5.0482    4.8475 O   0  0  0  0  0  0  0  0  0  0  0  0
    4.3844   -5.1727    5.6377 C   0  0  0  0  0  0  0  0  0  0  0  0
    4.4244   -4.4848    2.8849 C   0  0  1  0  0  0  0  0  0  0  0  0
    3.8401   -4.1083    1.7126 C   0  0  0  0  0  0  0  0  0  0  0  0
    3.1257   -3.0123    1.1667 C   0  0  0  0  0  0  0  0  0  0  0  0
    3.2107   -2.7102   -0.3380 C   0  0  1  0  0  0  0  0  0  0  0  0
    4.3372   -1.6009   -0.9249 C   0  0  1  0  0  0  0  0  0  0  0  0
    5.6006   -1.1267   -0.0245 C   0  0  2  0  0  0  0  0  0  0  0  0
    6.8554   -1.9993    0.3290 C   0  0  0  0  0  0  0  0  0  0  0  0
    5.8046   -2.9915    0.9024 C   0  0  1  0  0  0  0  0  0  0  0  0
    5.2925   -1.5049    1.3446 C   0  0  1  0  0  0  0  0  0  0  0  0
    5.6931   -1.1401    2.7597 C   0  0  1  0  0  0  0  0  0  0  0  0
    5.1919    0.1052    3.1734 O   0  0  0  0  0  0  0  0  0  0  0  0
    5.2048   -2.4042    3.5423 C   0  0  2  0  0  0  0  0  0  0  0  0
    5.6216   -3.5302    2.5232 C   0  0  1  0  0  0  0  0  0  0  0  0
    3.6591   -2.6943    4.0546 C   0  0  1  0  0  0  0  0  0  0  0  0
    2.6895   -1.6838    3.8054 O   0  0  0  0  0  0  0  0  0  0  0  0
    2.6528   -0.6020    4.7346 C   0  0  0  0  0  0  0  0  0  0  0  0
    3.0738   -3.2580   -4.8174 H   0  0  0  0  0  0  0  0  0  0  0  0
    3.6137   -4.2743   -3.5777 H   0  0  0  0  0  0  0  0  0  0  0  0
    4.8321   -3.5970   -4.5908 H   0  0  0  0  0  0  0  0  0  0  0  0
    5.7128   -1.4538   -2.5584 H   0  0  0  0  0  0  0  0  0  0  0  0
    5.4665   -4.3200   -2.5290 H   0  0  0  0  0  0  0  0  0  0  0  0
    6.7571   -3.4228   -1.9762 H   0  0  0  0  0  0  0  0  0  0  0  0
    5.6285   -4.9675   -0.3510 H   0  0  0  0  0  0  0  0  0  0  0  0
    3.2666   -4.1271   -1.7628 H   0  0  0  0  0  0  0  0  0  0  0  0
    1.3499   -4.8962   -0.5492 H   0  0  0  0  0  0  0  0  0  0  0  0
    2.4766   -6.1545   -0.3594 H   0  0  0  0  0  0  0  0  0  0  0  0
    1.1664   -3.7120    2.5116 H   0  0  0  0  0  0  0  0  0  0  0  0
   -0.3588   -5.0977    5.3245 H   0  0  0  0  0  0  0  0  0  0  0  0
   -0.3225   -3.6436    4.3325 H   0  0  0  0  0  0  0  0  0  0  0  0
    1.0385   -4.0521    5.3446 H   0  0  0  0  0  0  0  0  0  0  0  0
    4.2382   -5.9931    6.3411 H   0  0  0  0  0  0  0  0  0  0  0  0
    4.6189   -4.2822    6.2231 H   0  0  0  0  0  0  0  0  0  0  0  0
    5.2570   -5.4252    5.0392 H   0  0  0  0  0  0  0  0  0  0  0  0
    4.7058   -5.5492    2.8944 H   0  0  0  0  0  0  0  0  0  0  0  0
    4.1861   -4.9970    1.2171 H   0  0  0  0  0  0  0  0  0  0  0  0
    2.6920   -2.2089    1.7162 H   0  0  0  0  0  0  0  0  0  0  0  0
    2.2223   -2.4655   -0.7265 H   0  0  0  0  0  0  0  0  0  0  0  0
    3.7784   -0.6949   -1.1821 H   0  0  0  0  0  0  0  0  0  0  0  0
    5.8373   -0.0623   -0.1115 H   0  0  0  0  0  0  0  0  0  0  0  0
    7.4374   -2.3081   -0.5195 H   0  0  0  0  0  0  0  0  0  0  0  0
    7.5693   -1.5543    1.0183 H   0  0  0  0  0  0  0  0  0  0  0  0
    4.2852   -1.1029    1.3398 H   0  0  0  0  0  0  0  0  0  0  0  0
    6.7708   -1.0583    2.8630 H   0  0  0  0  0  0  0  0  0  0  0  0
    4.2450    0.0505    3.1522 H   0  0  0  0  0  0  0  0  0  0  0  0
    5.8061   -2.5232    4.4399 H   0  0  0  0  0  0  0  0  0  0  0  0
    6.5253   -4.0581    2.8010 H   0  0  0  0  0  0  0  0  0  0  0  0
    3.7267   -2.6770    5.1369 H   0  0  0  0  0  0  0  0  0  0  0  0
    1.9443    0.1411    4.3562 H   0  0  0  0  0  0  0  0  0  0  0  0
    3.6174   -0.1093    4.8620 H   0  0  0  0  0  0  0  0  0  0  0  0
    2.3438   -0.9226    5.7337 H   0  0  0  0  0  0  0  0  0  0  0  0
  1  2  1  0
  1 31  1  0
  1 32  1  0
  1 33  1  0
  2  3  1  0
  3 19  1  0
  3  4  1  0
  3 34  1  6
  4  5  1  0
  4 35  1  0
  4 36  1  0
  5 22  1  0
  5  6  1  0
  5 37  1  1
  6 18  1  0
  6  7  1  0
  6 38  1  6
  7  8  1  0
  7 39  1  0
  7 40  1  0
  8  9  1  0
  9 10  1  0
  9 12  1  0
  9 41  1  6
 10 11  1  0
 11 42  1  0
 11 43  1  0
 11 44  1  0
 12 28  1  0
 12 13  1  1
 12 15  1  0
 13 14  1  0
 14 45  1  0
 14 46  1  0
 14 47  1  0
 15 27  1  0
 15 16  1  0
 15 48  1  6
 16 17  2  3
 16 49  1  0
 17 18  1  0
 17 50  1  0
 18 19  1  0
 18 51  1  6
 19 20  1  0
 19 52  1  6
 20 23  1  0
 20 21  1  0
 20 53  1  1
 22 21  1  6
 21 54  1  0
 21 55  1  0
 22 27  1  0
 22 23  1  0
 23 24  1  0
 23 56  1  1
 24 25  1  0
 24 26  1  0
 24 57  1  6
 25 58  1  0
 26 27  1  0
 26 28  1  0
 26 59  1  1
 27 60  1  1
 28 29  1  0
 28 61  1  1
 29 30  1  0
 30 62  1  0
 30 63  1  0
 30 64  1  0
M  END
>  <i_m_ct_stereo_status>  (362) 
1

>  <s_m_source_file>  (362) 
/var/tmp/pbs.5076255.sched01/tmp1uy3qkd6/1269t22etaf.sdf

>  <i_m_source_file_index>  (362) 
38

>  <i_lp_mmshare_version>  (362) 
48012

>  <i_f3d_flags>  (362) 
2

>  <s_epik_input>  (362) 
W0NAQF0xMjNbQ0BASF00W0NASF01W0NASF02W0NAQEhdKFtDQEBIXShbQ0gyXTQpT1tDSDNdKVtDQEBIXShbQ0gyXTEpW0NASF0yW0NAQEhdKFtPSF0pW0NASF03W0NAQEhdM1tDQEBIXSgvW0NIXT1bQ0hdXDYpW0NAXShPW0NIM10pKFtDQEBIXShPW0NIMl01KU9bQ0gzXSlbQ0BASF03T1tDSDNd

>  <s_epik_cmdline>  (362) 
J2VwaWtfcHl0aG9uJywgJy1waHQnLCAnMi4wJywgJy1waCcsICc3LjAnLCAnLXRuJywgJzgnLCAnLW1hJywgJzIwMCcsICctaW1hZScsICc8aW5maWxlLm1hZT4nLCAnLW9tYWUnLCAnPG91dGZpbGUubWFlPic=

>  <r_lp_tautomer_probability>  (362) 
1

>  <r_epik_Ionization_Penalty>  (362) 
2.48662e-07

>  <r_epik_Ionization_Penalty_Charging>  (362) 
0

>  <r_epik_Ionization_Penalty_Neutral>  (362) 
2.48662e-07

>  <r_epik_State_Penalty>  (362) 
-0

>  <r_epik_Charging_Adjusted_Penalty>  (362) 
0

>  <i_epik_Tot_Q>  (362) 
0

>  <i_epik_Tot_abs_Q>  (362) 
0

>  <s_epik_Chemistry_Notes>  (362) 
This compound contains an acetal/aminal-like group ( X-CH(R)-Y where X, Y are N, S, or O) that may be acid/base labile, releasing an aldehyde.

>  <s_lp_Force_Field>  (362) 
OPLS3e

>  <r_lp_Energy>  (362) 
519.869

>  <b_lp_Chiralities_Consistent>  (362) 
0

>  <s_lp_Variant>  (362) 
114:0-2

>  <s_i_glide_gridfile>  (362) 
pfpi4k_grid

>  <i_i_glide_lignum>  (362) 
38

>  <i_i_glide_rotatable_bonds>  (362) 
5

>  <r_i_docking_score>  (362) 
-2.62413

>  <r_i_glide_ligand_efficiency>  (362) 
-0.087471

>  <r_i_glide_ligand_efficiency_sa>  (362) 
-0.271793

>  <r_i_glide_ligand_efficiency_ln>  (362) 
-0.596231

>  <r_i_glide_gscore>  (362) 
-2.62413

>  <r_i_glide_lipo>  (362) 
-0.618352

>  <r_i_glide_hbond>  (362) 
-0.0551674

>  <r_i_glide_metal>  (362) 
-0

>  <r_i_glide_rewards>  (362) 
-0.555524

>  <r_i_glide_evdw>  (362) 
-17.2075

>  <r_i_glide_ecoul>  (362) 
-3.47989

>  <r_i_glide_erotb>  (362) 
0

>  <r_i_glide_esite>  (362) 
-0.0127248

>  <r_i_glide_emodel>  (362) 
-11.1275

>  <r_i_glide_energy>  (362) 
-20.6874

>  <r_i_glide_einternal>  (362) 
19.4729

>  <r_i_glide_intrahb_reward>  (362) 
-0

>  <i_i_glide_confnum>  (362) 
2

>  <i_i_glide_posenum>  (362) 
17

>  <r_i_glide_eff_state_penalty>  (362) 
0

>  <ligand_id>  (362) 
114

>  <original_smiles>  (362) 
COC1CC2C3COC(OC)C4(OC)C5C=CC3C1C1CC23C1C(O)C(C53)C4OC

>  <smiles>  (362) 
[H]OC1([H])C2([H])C([H])(OC([H])([H])[H])C3(OC([H])([H])[H])C([H])(OC([H])([H])[H])OC([H])([H])C4([H])C5([H])C([H])=C([H])C3([H])C2([H])C23C([H])([H])C([H])(C5([H])C([H])(OC([H])([H])[H])C([H])([H])C42[H])C13[H]

$$$$
114:1:1
     RDKit          3D

 64 70  0  0  1  0  0  0  0  0999 V2000
    3.1208   -0.4993   -4.0251 C   0  0  0  0  0  0  0  0  0  0  0  0
    3.2735   -1.8818   -3.7265 O   0  0  0  0  0  0  0  0  0  0  0  0
    4.4179   -2.1774   -2.9285 C   0  0  2  0  0  0  0  0  0  0  0  0
    4.7815   -3.6771   -3.0043 C   0  0  0  0  0  0  0  0  0  0  0  0
    4.5589   -4.3651   -1.6180 C   0  0  2  0  0  0  0  0  0  0  0  0
    2.8592   -4.1194   -1.4786 C   0  0  1  0  0  0  0  0  0  0  0  0
    1.5701   -5.0286   -0.6785 C   0  0  0  0  0  0  0  0  0  0  0  0
    1.4075   -5.5665    0.8146 O   0  0  0  0  0  0  0  0  0  0  0  0
    1.7598   -5.0590    2.2394 C   0  0  1  0  0  0  0  0  0  0  0  0
    0.9328   -5.6951    3.1713 O   0  0  0  0  0  0  0  0  0  0  0  0
    0.7091   -4.9819    4.3840 C   0  0  0  0  0  0  0  0  0  0  0  0
    3.4276   -5.1415    2.8024 C   0  0  1  0  0  0  0  0  0  0  0  0
    3.4772   -6.2095    3.7652 O   0  0  0  0  0  0  0  0  0  0  0  0
    4.7294   -6.7391    4.2061 C   0  0  0  0  0  0  0  0  0  0  0  0
    4.3642   -5.4714    1.6649 C   0  0  1  0  0  0  0  0  0  0  0  0
    3.6664   -4.7248    0.7687 C   0  0  0  0  0  0  0  0  0  0  0  0
    3.1495   -3.4282    0.6049 C   0  0  0  0  0  0  0  0  0  0  0  0
    3.0527   -2.8250   -0.7933 C   0  0  1  0  0  0  0  0  0  0  0  0
    4.2274   -1.8377   -1.4384 C   0  0  1  0  0  0  0  0  0  0  0  0
    5.7135   -1.8318   -0.8176 C   0  0  2  0  0  0  0  0  0  0  0  0
    6.7548   -2.9938   -0.9418 C   0  0  0  0  0  0  0  0  0  0  0  0
    5.6406   -3.8467   -0.3045 C   0  0  1  0  0  0  0  0  0  0  0  0
    5.5932   -2.4376    0.4910 C   0  0  1  0  0  0  0  0  0  0  0  0
    6.3312   -2.4934    1.7988 C   0  0  1  0  0  0  0  0  0  0  0  0
    6.1834   -1.2414    2.4485 O   0  0  0  0  0  0  0  0  0  0  0  0
    5.7185   -3.7784    2.4496 C   0  0  2  0  0  0  0  0  0  0  0  0
    5.6543   -4.7057    1.1850 C   0  0  1  0  0  0  0  0  0  0  0  0
    4.3050   -3.8578    3.2884 C   0  0  1  0  0  0  0  0  0  0  0  0
    3.5819   -2.6387    3.4635 O   0  0  0  0  0  0  0  0  0  0  0  0
    3.9571   -1.8459    4.5848 C   0  0  0  0  0  0  0  0  0  0  0  0
    2.2165   -0.3395   -4.6087 H   0  0  0  0  0  0  0  0  0  0  0  0
    3.9622   -0.1380   -4.6157 H   0  0  0  0  0  0  0  0  0  0  0  0
    3.0417    0.1197   -3.1316 H   0  0  0  0  0  0  0  0  0  0  0  0
    5.2579   -1.6099   -3.3156 H   0  0  0  0  0  0  0  0  0  0  0  0
    4.1556   -4.1543   -3.7602 H   0  0  0  0  0  0  0  0  0  0  0  0
    5.7816   -3.8338   -3.3921 H   0  0  0  0  0  0  0  0  0  0  0  0
    4.7845   -5.4178   -1.7746 H   0  0  0  0  0  0  0  0  0  0  0  0
    2.4302   -3.8946   -2.4563 H   0  0  0  0  0  0  0  0  0  0  0  0
    0.6549   -4.5317   -0.9839 H   0  0  0  0  0  0  0  0  0  0  0  0
    1.4216   -5.9605   -1.1902 H   0  0  0  0  0  0  0  0  0  0  0  0
    1.4353   -4.0191    2.2627 H   0  0  0  0  0  0  0  0  0  0  0  0
    0.0965   -5.5934    5.0452 H   0  0  0  0  0  0  0  0  0  0  0  0
    0.1780   -4.0412    4.2323 H   0  0  0  0  0  0  0  0  0  0  0  0
    1.6377   -4.7684    4.9111 H   0  0  0  0  0  0  0  0  0  0  0  0
    4.5322   -7.6427    4.7839 H   0  0  0  0  0  0  0  0  0  0  0  0
    5.2817   -6.0562    4.8519 H   0  0  0  0  0  0  0  0  0  0  0  0
    5.3796   -7.0349    3.3843 H   0  0  0  0  0  0  0  0  0  0  0  0
    4.3449   -6.5416    1.4219 H   0  0  0  0  0  0  0  0  0  0  0  0
    3.7019   -5.5159    0.0331 H   0  0  0  0  0  0  0  0  0  0  0  0
    3.0258   -2.6899    1.3691 H   0  0  0  0  0  0  0  0  0  0  0  0
    2.1679   -2.2806   -0.8992 H   0  0  0  0  0  0  0  0  0  0  0  0
    3.8367   -0.8272   -1.3239 H   0  0  0  0  0  0  0  0  0  0  0  0
    6.1652   -0.8434   -0.7618 H   0  0  0  0  0  0  0  0  0  0  0  0
    7.0405   -3.2303   -1.9559 H   0  0  0  0  0  0  0  0  0  0  0  0
    7.6771   -2.8720   -0.3689 H   0  0  0  0  0  0  0  0  0  0  0  0
    4.7331   -1.8495    0.7776 H   0  0  0  0  0  0  0  0  0  0  0  0
    7.3875   -2.6671    1.6548 H   0  0  0  0  0  0  0  0  0  0  0  0
    5.2693   -1.1411    2.6801 H   0  0  0  0  0  0  0  0  0  0  0  0
    6.4245   -4.3188    3.0719 H   0  0  0  0  0  0  0  0  0  0  0  0
    6.4905   -5.4040    1.1829 H   0  0  0  0  0  0  0  0  0  0  0  0
    4.5959   -4.0843    4.3101 H   0  0  0  0  0  0  0  0  0  0  0  0
    3.3959   -0.9138    4.5388 H   0  0  0  0  0  0  0  0  0  0  0  0
    5.0187   -1.6034    4.5896 H   0  0  0  0  0  0  0  0  0  0  0  0
    3.7368   -2.3383    5.5324 H   0  0  0  0  0  0  0  0  0  0  0  0
  1  2  1  0
  1 31  1  0
  1 32  1  0
  1 33  1  0
  2  3  1  0
  3 19  1  0
  3  4  1  0
  3 34  1  6
  4  5  1  0
  4 35  1  0
  4 36  1  0
  5 22  1  0
  5  6  1  0
  5 37  1  6
  6 18  1  0
  6  7  1  0
  6 38  1  6
  7  8  1  0
  7 39  1  0
  7 40  1  0
  8  9  1  0
  9 10  1  0
  9 12  1  0
  9 41  1  6
 10 11  1  0
 11 42  1  0
 11 43  1  0
 11 44  1  0
 12 28  1  0
 12 13  1  1
 12 15  1  0
 13 14  1  0
 14 45  1  0
 14 46  1  0
 14 47  1  0
 15 27  1  0
 15 16  1  0
 15 48  1  6
 16 17  2  3
 16 49  1  0
 17 18  1  0
 17 50  1  0
 18 19  1  0
 18 51  1  1
 19 20  1  0
 19 52  1  6
 20 23  1  0
 20 21  1  0
 20 53  1  1
 22 21  1  6
 21 54  1  0
 21 55  1  0
 22 27  1  0
 22 23  1  0
 23 24  1  0
 23 56  1  1
 24 25  1  0
 24 26  1  0
 24 57  1  6
 25 58  1  0
 26 27  1  0
 26 28  1  0
 26 59  1  1
 27 60  1  6
 28 29  1  0
 28 61  1  1
 29 30  1  0
 30 62  1  0
 30 63  1  0
 30 64  1  0
M  END
>  <i_m_ct_stereo_status>  (363) 
1

>  <s_m_source_file>  (363) 
/var/tmp/pbs.5076255.sched01/tmp1uy3qkd6/1269t22etaf.sdf

>  <i_m_source_file_index>  (363) 
38

>  <i_lp_mmshare_version>  (363) 
48012

>  <i_f3d_flags>  (363) 
2

>  <s_epik_input>  (363) 
W0NAQF0xMjNbQ0BASF00W0NASF01W0NASF02W0NAQEhdKFtDQEBIXShbQ0gyXTQpT1tDSDNdKVtDQEBIXShbQ0gyXTEpW0NASF0yW0NAQEhdKFtPSF0pW0NASF03W0NAQEhdM1tDQEBIXSgvW0NIXT1bQ0hdXDYpW0NAXShPW0NIM10pKFtDQEBIXShPW0NIMl01KU9bQ0gzXSlbQ0BASF03T1tDSDNd

>  <s_epik_cmdline>  (363) 
J2VwaWtfcHl0aG9uJywgJy1waHQnLCAnMi4wJywgJy1waCcsICc3LjAnLCAnLXRuJywgJzgnLCAnLW1hJywgJzIwMCcsICctaW1hZScsICc8aW5maWxlLm1hZT4nLCAnLW9tYWUnLCAnPG91dGZpbGUubWFlPic=

>  <r_lp_tautomer_probability>  (363) 
1

>  <r_epik_Ionization_Penalty>  (363) 
2.48662e-07

>  <r_epik_Ionization_Penalty_Charging>  (363) 
0

>  <r_epik_Ionization_Penalty_Neutral>  (363) 
2.48662e-07

>  <r_epik_State_Penalty>  (363) 
-0

>  <r_epik_Charging_Adjusted_Penalty>  (363) 
0

>  <i_epik_Tot_Q>  (363) 
0

>  <i_epik_Tot_abs_Q>  (363) 
0

>  <s_epik_Chemistry_Notes>  (363) 
This compound contains an acetal/aminal-like group ( X-CH(R)-Y where X, Y are N, S, or O) that may be acid/base labile, releasing an aldehyde.

>  <s_lp_Force_Field>  (363) 
OPLS3e

>  <r_lp_Energy>  (363) 
519.869

>  <b_lp_Chiralities_Consistent>  (363) 
0

>  <s_lp_Variant>  (363) 
114:0-2

>  <s_i_glide_gridfile>  (363) 
pfpi4k_grid

>  <i_i_glide_lignum>  (363) 
38

>  <i_i_glide_rotatable_bonds>  (363) 
5

>  <r_i_docking_score>  (363) 
-2.49221

>  <r_i_glide_ligand_efficiency>  (363) 
-0.0830736

>  <r_i_glide_ligand_efficiency_sa>  (363) 
-0.258129

>  <r_i_glide_ligand_efficiency_ln>  (363) 
-0.566257

>  <r_i_glide_gscore>  (363) 
-2.49221

>  <r_i_glide_lipo>  (363) 
-0.732457

>  <r_i_glide_hbond>  (363) 
-0.133368

>  <r_i_glide_metal>  (363) 
-0

>  <r_i_glide_rewards>  (363) 
-0.555524

>  <r_i_glide_evdw>  (363) 
-7.58596

>  <r_i_glide_ecoul>  (363) 
-4.39678

>  <r_i_glide_erotb>  (363) 
0

>  <r_i_glide_esite>  (363) 
-0.0320426

>  <r_i_glide_emodel>  (363) 
-9.75409

>  <r_i_glide_energy>  (363) 
-11.9827

>  <r_i_glide_einternal>  (363) 
6.7261

>  <r_i_glide_intrahb_reward>  (363) 
-0

>  <i_i_glide_confnum>  (363) 
1

>  <i_i_glide_posenum>  (363) 
29

>  <r_i_glide_eff_state_penalty>  (363) 
0

>  <ligand_id>  (363) 
114

>  <original_smiles>  (363) 
COC1CC2C3COC(OC)C4(OC)C5C=CC3C1C1CC23C1C(O)C(C53)C4OC

>  <smiles>  (363) 
[H]OC1([H])C2([H])C([H])(OC([H])([H])[H])C3(OC([H])([H])[H])C([H])(OC([H])([H])[H])OC([H])([H])C4([H])C5([H])C([H])=C([H])C3([H])C2([H])C23C([H])([H])C([H])(C5([H])C([H])(OC([H])([H])[H])C([H])([H])C42[H])C13[H]

$$$$
114:1:2
     RDKit          3D

 64 70  0  0  1  0  0  0  0  0999 V2000
    5.0824   -3.7044   -3.4369 C   0  0  0  0  0  0  0  0  0  0  0  0
    4.4292   -2.5926   -2.8311 O   0  0  0  0  0  0  0  0  0  0  0  0
    4.9712   -1.9534   -1.6562 C   0  0  2  0  0  0  0  0  0  0  0  0
    6.0502   -2.7668   -0.8615 C   0  0  0  0  0  0  0  0  0  0  0  0
    5.4242   -3.2892    0.4602 C   0  0  2  0  0  0  0  0  0  0  0  0
    4.1175   -4.2330   -0.1362 C   0  0  1  0  0  0  0  0  0  0  0  0
    3.2972   -5.6383    0.4594 C   0  0  0  0  0  0  0  0  0  0  0  0
    2.6436   -5.9891    1.8844 O   0  0  0  0  0  0  0  0  0  0  0  0
    1.7823   -5.2193    2.9084 C   0  0  1  0  0  0  0  0  0  0  0  0
    1.0000   -6.1095    3.6682 O   0  0  0  0  0  0  0  0  0  0  0  0
    0.2511   -7.0466    2.9074 C   0  0  0  0  0  0  0  0  0  0  0  0
    2.6037   -4.1061    4.0188 C   0  0  1  0  0  0  0  0  0  0  0  0
    2.5548   -4.6504    5.3341 O   0  0  0  0  0  0  0  0  0  0  0  0
    3.2628   -5.8632    5.5927 C   0  0  0  0  0  0  0  0  0  0  0  0
    4.0413   -3.8156    3.6123 C   0  0  1  0  0  0  0  0  0  0  0  0
    3.7100   -3.8530    2.2650 C   0  0  0  0  0  0  0  0  0  0  0  0
    2.7838   -3.2510    1.3751 C   0  0  0  0  0  0  0  0  0  0  0  0
    3.1574   -3.0769   -0.1203 C   0  0  1  0  0  0  0  0  0  0  0  0
    3.8269   -1.6162   -0.6529 C   0  0  1  0  0  0  0  0  0  0  0  0
    4.4578   -0.5527    0.3847 C   0  0  2  0  0  0  0  0  0  0  0  0
    5.8024   -0.7084    1.1812 C   0  0  0  0  0  0  0  0  0  0  0  0
    5.1495   -2.0318    1.6980 C   0  0  1  0  0  0  0  0  0  0  0  0
    3.9606   -0.8977    1.7136 C   0  0  1  0  0  0  0  0  0  0  0  0
    3.7541   -0.2797    3.0883 C   0  0  1  0  0  0  0  0  0  0  0  0
    2.6725    0.6518    3.1349 O   0  0  0  0  0  0  0  0  0  0  0  0
    3.6423   -1.5598    3.9726 C   0  0  2  0  0  0  0  0  0  0  0  0
    4.7674   -2.4383    3.3230 C   0  0  1  0  0  0  0  0  0  0  0  0
    2.2929   -2.5130    4.1739 C   0  0  1  0  0  0  0  0  0  0  0  0
    1.0851   -2.1039    3.5442 O   0  0  0  0  0  0  0  0  0  0  0  0
    0.3434   -1.0642    4.1878 C   0  0  0  0  0  0  0  0  0  0  0  0
    4.5471   -3.9848   -4.3320 H   0  0  0  0  0  0  0  0  0  0  0  0
    5.0714   -4.5738   -2.8086 H   0  0  0  0  0  0  0  0  0  0  0  0
    6.1266   -3.4660   -3.6551 H   0  0  0  0  0  0  0  0  0  0  0  0
    5.4154   -0.9923   -1.9619 H   0  0  0  0  0  0  0  0  0  0  0  0
    6.4101   -3.6434   -1.3832 H   0  0  0  0  0  0  0  0  0  0  0  0
    6.9728   -2.1966   -0.7465 H   0  0  0  0  0  0  0  0  0  0  0  0
    6.1898   -3.9466    0.8611 H   0  0  0  0  0  0  0  0  0  0  0  0
    4.2859   -4.5383   -1.1703 H   0  0  0  0  0  0  0  0  0  0  0  0
    2.5208   -5.8486   -0.2631 H   0  0  0  0  0  0  0  0  0  0  0  0
    3.9991   -6.4490    0.3208 H   0  0  0  0  0  0  0  0  0  0  0  0
    1.0160   -4.6731    2.3582 H   0  0  0  0  0  0  0  0  0  0  0  0
   -0.3500   -7.6462    3.5864 H   0  0  0  0  0  0  0  0  0  0  0  0
    0.8806   -7.7407    2.3550 H   0  0  0  0  0  0  0  0  0  0  0  0
   -0.4313   -6.5693    2.2089 H   0  0  0  0  0  0  0  0  0  0  0  0
    2.8681   -6.3170    6.5008 H   0  0  0  0  0  0  0  0  0  0  0  0
    4.3201   -5.6744    5.7685 H   0  0  0  0  0  0  0  0  0  0  0  0
    3.1739   -6.5990    4.7958 H   0  0  0  0  0  0  0  0  0  0  0  0
    4.7507   -4.6156    3.8853 H   0  0  0  0  0  0  0  0  0  0  0  0
    4.5177   -4.5146    2.0618 H   0  0  0  0  0  0  0  0  0  0  0  0
    1.9137   -2.6851    1.6436 H   0  0  0  0  0  0  0  0  0  0  0  0
    2.2900   -3.3118   -0.7449 H   0  0  0  0  0  0  0  0  0  0  0  0
    3.0354   -1.0951   -1.2071 H   0  0  0  0  0  0  0  0  0  0  0  0
    4.2329    0.4956    0.1359 H   0  0  0  0  0  0  0  0  0  0  0  0
    6.6670   -0.7806    0.5534 H   0  0  0  0  0  0  0  0  0  0  0  0
    6.0213    0.0520    1.9065 H   0  0  0  0  0  0  0  0  0  0  0  0
    2.9186   -1.0059    1.3952 H   0  0  0  0  0  0  0  0  0  0  0  0
    4.6489    0.2833    3.4074 H   0  0  0  0  0  0  0  0  0  0  0  0
    2.8405    1.3059    2.5164 H   0  0  0  0  0  0  0  0  0  0  0  0
    3.9798   -1.3027    4.9704 H   0  0  0  0  0  0  0  0  0  0  0  0
    5.6748   -2.4003    3.9114 H   0  0  0  0  0  0  0  0  0  0  0  0
    2.0738   -2.4095    5.2319 H   0  0  0  0  0  0  0  0  0  0  0  0
   -0.4692   -0.7535    3.5195 H   0  0  0  0  0  0  0  0  0  0  0  0
    0.9192   -0.1726    4.4253 H   0  0  0  0  0  0  0  0  0  0  0  0
   -0.0792   -1.4027    5.1393 H   0  0  0  0  0  0  0  0  0  0  0  0
  1  2  1  0
  1 31  1  0
  1 32  1  0
  1 33  1  0
  2  3  1  0
  3 19  1  0
  3  4  1  0
  3 34  1  6
  4  5  1  0
  4 35  1  0
  4 36  1  0
  5 22  1  0
  5  6  1  0
  5 37  1  1
  6 18  1  0
  6  7  1  0
  6 38  1  6
  7  8  1  0
  7 39  1  0
  7 40  1  0
  8  9  1  0
  9 10  1  0
  9 12  1  0
  9 41  1  6
 10 11  1  0
 11 42  1  0
 11 43  1  0
 11 44  1  0
 12 28  1  0
 12 13  1  1
 12 15  1  0
 13 14  1  0
 14 45  1  0
 14 46  1  0
 14 47  1  0
 15 27  1  0
 15 16  1  0
 15 48  1  6
 16 17  2  3
 16 49  1  0
 17 18  1  0
 17 50  1  0
 18 19  1  0
 18 51  1  6
 19 20  1  0
 19 52  1  6
 20 23  1  0
 20 21  1  0
 20 53  1  6
 22 21  1  1
 21 54  1  0
 21 55  1  0
 22 27  1  0
 22 23  1  0
 23 24  1  0
 23 56  1  6
 24 25  1  0
 24 26  1  0
 24 57  1  1
 25 58  1  0
 26 27  1  0
 26 28  1  0
 26 59  1  1
 27 60  1  1
 28 29  1  0
 28 61  1  1
 29 30  1  0
 30 62  1  0
 30 63  1  0
 30 64  1  0
M  END
>  <i_m_ct_stereo_status>  (364) 
1

>  <s_m_source_file>  (364) 
/var/tmp/pbs.5076255.sched01/tmp1uy3qkd6/1269t22etaf.sdf

>  <i_m_source_file_index>  (364) 
38

>  <i_lp_mmshare_version>  (364) 
48012

>  <i_f3d_flags>  (364) 
2

>  <s_epik_input>  (364) 
W0NAQF0xMjNbQ0BASF00W0NASF01W0NASF02W0NAQEhdKFtDQEBIXShbQ0gyXTQpT1tDSDNdKVtDQEBIXShbQ0gyXTEpW0NASF0yW0NAQEhdKFtPSF0pW0NASF03W0NAQEhdM1tDQEBIXSgvW0NIXT1bQ0hdXDYpW0NAXShPW0NIM10pKFtDQEBIXShPW0NIMl01KU9bQ0gzXSlbQ0BASF03T1tDSDNd

>  <s_epik_cmdline>  (364) 
J2VwaWtfcHl0aG9uJywgJy1waHQnLCAnMi4wJywgJy1waCcsICc3LjAnLCAnLXRuJywgJzgnLCAnLW1hJywgJzIwMCcsICctaW1hZScsICc8aW5maWxlLm1hZT4nLCAnLW9tYWUnLCAnPG91dGZpbGUubWFlPic=

>  <r_lp_tautomer_probability>  (364) 
1

>  <r_epik_Ionization_Penalty>  (364) 
2.48662e-07

>  <r_epik_Ionization_Penalty_Charging>  (364) 
0

>  <r_epik_Ionization_Penalty_Neutral>  (364) 
2.48662e-07

>  <r_epik_State_Penalty>  (364) 
-0

>  <r_epik_Charging_Adjusted_Penalty>  (364) 
0

>  <i_epik_Tot_Q>  (364) 
0

>  <i_epik_Tot_abs_Q>  (364) 
0

>  <s_epik_Chemistry_Notes>  (364) 
This compound contains an acetal/aminal-like group ( X-CH(R)-Y where X, Y are N, S, or O) that may be acid/base labile, releasing an aldehyde.

>  <s_lp_Force_Field>  (364) 
OPLS3e

>  <r_lp_Energy>  (364) 
519.869

>  <b_lp_Chiralities_Consistent>  (364) 
0

>  <s_lp_Variant>  (364) 
114:0-2

>  <s_i_glide_gridfile>  (364) 
pfpi4k_grid

>  <i_i_glide_lignum>  (364) 
38

>  <i_i_glide_rotatable_bonds>  (364) 
5

>  <r_i_docking_score>  (364) 
-2.16488

>  <r_i_glide_ligand_efficiency>  (364) 
-0.0721625

>  <r_i_glide_ligand_efficiency_sa>  (364) 
-0.224226

>  <r_i_glide_ligand_efficiency_ln>  (364) 
-0.491883

>  <r_i_glide_gscore>  (364) 
-2.16488

>  <r_i_glide_lipo>  (364) 
-0.537914

>  <r_i_glide_hbond>  (364) 
0

>  <r_i_glide_metal>  (364) 
-0

>  <r_i_glide_rewards>  (364) 
-0.555524

>  <r_i_glide_evdw>  (364) 
-24.2762

>  <r_i_glide_ecoul>  (364) 
0.281613

>  <r_i_glide_erotb>  (364) 
0

>  <r_i_glide_esite>  (364) 
-0.0182611

>  <r_i_glide_emodel>  (364) 
-15.423

>  <r_i_glide_energy>  (364) 
-23.9946

>  <r_i_glide_einternal>  (364) 
15.1792

>  <r_i_glide_intrahb_reward>  (364) 
-0

>  <i_i_glide_confnum>  (364) 
1

>  <i_i_glide_posenum>  (364) 
36

>  <r_i_glide_eff_state_penalty>  (364) 
0

>  <ligand_id>  (364) 
114

>  <original_smiles>  (364) 
COC1CC2C3COC(OC)C4(OC)C5C=CC3C1C1CC23C1C(O)C(C53)C4OC

>  <smiles>  (364) 
[H]OC1([H])C2([H])C([H])(OC([H])([H])[H])C3(OC([H])([H])[H])C([H])(OC([H])([H])[H])OC([H])([H])C4([H])C5([H])C([H])=C([H])C3([H])C2([H])C23C([H])([H])C([H])(C5([H])C([H])(OC([H])([H])[H])C([H])([H])C42[H])C13[H]

$$$$
115:0:0
     RDKit          3D

 81 85  0  0  1  0  0  0  0  0999 V2000
    1.0750    0.5890    1.7146 C   0  0  0  0  0  0  0  0  0  0  0  0
    1.3172    0.1607    2.9671 C   0  0  0  0  0  0  0  0  0  0  0  0
    0.5178    0.7757    4.0990 C   0  0  0  0  0  0  0  0  0  0  0  0
    2.3246   -0.9446    3.3594 C   0  0  2  0  0  0  0  0  0  0  0  0
    3.5645   -0.4377    4.1326 C   0  0  0  0  0  0  0  0  0  0  0  0
    4.8192   -0.7493    3.2920 C   0  0  0  0  0  0  0  0  0  0  0  0
    4.3198   -1.1864    1.9064 C   0  0  1  0  0  0  0  0  0  0  0  0
    4.2135    0.0785    1.0365 C   0  0  0  0  0  0  0  0  0  0  0  0
    5.2803   -2.1250    1.1394 C   0  0  0  0  0  0  0  0  0  0  0  0
    5.1440   -3.6348    1.3973 C   0  0  0  0  0  0  0  0  0  0  0  0
    3.6751   -4.1753    1.3991 C   0  0  2  0  0  0  0  0  0  0  0  0
    3.0030   -3.8539    0.0283 C   0  0  0  0  0  0  0  0  0  0  0  0
    2.9220   -3.3545    2.5057 C   0  0  1  0  0  0  0  0  0  0  0  0
    3.4196   -3.7694    3.9076 C   0  0  0  0  0  0  0  0  0  0  0  0
    3.2416   -5.2657    4.1390 C   0  0  0  0  0  0  0  0  0  0  0  0
    4.0306   -6.1704    3.1339 C   0  0  1  0  0  0  0  0  0  0  0  0
    3.8911   -7.7138    3.5394 C   0  0  2  0  0  0  0  0  0  0  0  0
    4.2806   -7.7943    5.0456 C   0  0  0  0  0  0  0  0  0  0  0  0
    4.8864   -8.6672    2.8038 C   0  0  0  0  0  0  0  0  0  0  0  0
    4.6891  -10.1600    3.1122 C   0  0  0  0  0  0  0  0  0  0  0  0
    3.2448  -10.6066    2.8572 C   0  0  1  0  0  0  0  0  0  0  0  0
    3.1414  -11.9618    3.2177 O   0  0  0  0  0  0  0  0  0  0  0  0
    2.1613   -9.7459    3.5695 C   0  0  0  0  0  0  0  0  0  0  0  0
    0.7672  -10.1828    3.0565 C   0  0  0  0  0  0  0  0  0  0  0  0
    2.1399  -10.0305    5.0962 C   0  0  0  0  0  0  0  0  0  0  0  0
    2.4222   -8.2142    3.2543 C   0  0  2  0  0  0  0  0  0  0  0  0
    2.0246   -7.8372    1.7946 C   0  0  0  0  0  0  0  0  0  0  0  0
    2.2006   -6.3485    1.4297 C   0  0  0  0  0  0  0  0  0  0  0  0
    3.6317   -5.7703    1.6515 C   0  0  1  0  0  0  0  0  0  0  0  0
    4.6015   -6.4250    0.6194 C   0  0  0  0  0  0  0  0  0  0  0  0
    2.9192   -1.8039    2.2102 C   0  0  1  0  0  0  0  0  0  0  0  0
    0.3472    1.3693    1.5233 H   0  0  0  0  0  0  0  0  0  0  0  0
    1.5891    0.1895    0.8620 H   0  0  0  0  0  0  0  0  0  0  0  0
    0.0595   -0.0001    4.7119 H   0  0  0  0  0  0  0  0  0  0  0  0
   -0.2918    1.3904    3.6979 H   0  0  0  0  0  0  0  0  0  0  0  0
    1.1380    1.4117    4.7298 H   0  0  0  0  0  0  0  0  0  0  0  0
    1.7337   -1.5786    4.0149 H   0  0  0  0  0  0  0  0  0  0  0  0
    3.4934    0.6258    4.3609 H   0  0  0  0  0  0  0  0  0  0  0  0
    3.6588   -0.9450    5.0910 H   0  0  0  0  0  0  0  0  0  0  0  0
    5.4881    0.1093    3.2331 H   0  0  0  0  0  0  0  0  0  0  0  0
    5.4085   -1.5344    3.7565 H   0  0  0  0  0  0  0  0  0  0  0  0
    3.6912   -0.1441    0.1107 H   0  0  0  0  0  0  0  0  0  0  0  0
    5.2094    0.4391    0.7611 H   0  0  0  0  0  0  0  0  0  0  0  0
    3.6877    0.8908    1.5365 H   0  0  0  0  0  0  0  0  0  0  0  0
    5.1453   -1.9814    0.0688 H   0  0  0  0  0  0  0  0  0  0  0  0
    6.3130   -1.8263    1.3262 H   0  0  0  0  0  0  0  0  0  0  0  0
    5.7585   -4.1301    0.6490 H   0  0  0  0  0  0  0  0  0  0  0  0
    5.6480   -3.8596    2.3348 H   0  0  0  0  0  0  0  0  0  0  0  0
    1.9245   -3.9867    0.0775 H   0  0  0  0  0  0  0  0  0  0  0  0
    3.3547   -4.4627   -0.7980 H   0  0  0  0  0  0  0  0  0  0  0  0
    3.1565   -2.8274   -0.2970 H   0  0  0  0  0  0  0  0  0  0  0  0
    1.8673   -3.6445    2.4746 H   0  0  0  0  0  0  0  0  0  0  0  0
    4.4574   -3.5000    4.0921 H   0  0  0  0  0  0  0  0  0  0  0  0
    2.8501   -3.2702    4.6874 H   0  0  0  0  0  0  0  0  0  0  0  0
    3.5592   -5.4244    5.1660 H   0  0  0  0  0  0  0  0  0  0  0  0
    2.1781   -5.5013    4.1231 H   0  0  0  0  0  0  0  0  0  0  0  0
    5.0858   -5.9167    3.2580 H   0  0  0  0  0  0  0  0  0  0  0  0
    4.6618   -8.7591    5.3628 H   0  0  0  0  0  0  0  0  0  0  0  0
    3.4407   -7.5566    5.6985 H   0  0  0  0  0  0  0  0  0  0  0  0
    5.0938   -7.1038    5.2755 H   0  0  0  0  0  0  0  0  0  0  0  0
    4.7715   -8.6223    1.7329 H   0  0  0  0  0  0  0  0  0  0  0  0
    5.9160   -8.3792    3.0061 H   0  0  0  0  0  0  0  0  0  0  0  0
    5.3456  -10.7442    2.4696 H   0  0  0  0  0  0  0  0  0  0  0  0
    4.9911  -10.4229    4.1207 H   0  0  0  0  0  0  0  0  0  0  0  0
    3.0615  -10.5631    1.7818 H   0  0  0  0  0  0  0  0  0  0  0  0
    3.4185  -12.4726    2.4647 H   0  0  0  0  0  0  0  0  0  0  0  0
   -0.0144   -9.5013    3.4038 H   0  0  0  0  0  0  0  0  0  0  0  0
    0.5009  -11.1808    3.4138 H   0  0  0  0  0  0  0  0  0  0  0  0
    0.7244  -10.2365    1.9683 H   0  0  0  0  0  0  0  0  0  0  0  0
    1.6527   -9.2251    5.6476 H   0  0  0  0  0  0  0  0  0  0  0  0
    3.1265  -10.1984    5.5139 H   0  0  0  0  0  0  0  0  0  0  0  0
    1.5848  -10.9419    5.3271 H   0  0  0  0  0  0  0  0  0  0  0  0
    1.7389   -7.6582    3.9006 H   0  0  0  0  0  0  0  0  0  0  0  0
    2.5611   -8.4604    1.0857 H   0  0  0  0  0  0  0  0  0  0  0  0
    0.9750   -8.0594    1.6214 H   0  0  0  0  0  0  0  0  0  0  0  0
    1.9159   -6.2381    0.3849 H   0  0  0  0  0  0  0  0  0  0  0  0
    1.4683   -5.7771    1.9933 H   0  0  0  0  0  0  0  0  0  0  0  0
    4.2197   -7.3525    0.1999 H   0  0  0  0  0  0  0  0  0  0  0  0
    5.5849   -6.6082    1.0534 H   0  0  0  0  0  0  0  0  0  0  0  0
    4.7939   -5.8293   -0.2648 H   0  0  0  0  0  0  0  0  0  0  0  0
    2.2738   -1.7043    1.3438 H   0  0  0  0  0  0  0  0  0  0  0  0
  1  2  2  0
  1 32  1  0
  1 33  1  0
  2  3  1  0
  2  4  1  0
  3 34  1  0
  3 35  1  0
  3 36  1  0
  4 31  1  0
  4  5  1  0
  4 37  1  1
  5  6  1  0
  5 38  1  0
  5 39  1  0
  6  7  1  0
  6 40  1  0
  6 41  1  0
  7 31  1  0
  7  8  1  6
  7  9  1  0
  8 42  1  0
  8 43  1  0
  8 44  1  0
  9 10  1  0
  9 45  1  0
  9 46  1  0
 10 11  1  0
 10 47  1  0
 10 48  1  0
 11 29  1  0
 11 12  1  6
 11 13  1  0
 12 49  1  0
 12 50  1  0
 12 51  1  0
 13 14  1  0
 13 31  1  0
 13 52  1  1
 14 15  1  0
 14 53  1  0
 14 54  1  0
 15 16  1  0
 15 55  1  0
 15 56  1  0
 16 29  1  0
 16 17  1  0
 16 57  1  6
 17 26  1  0
 17 18  1  1
 17 19  1  0
 18 58  1  0
 18 59  1  0
 18 60  1  0
 19 20  1  0
 19 61  1  0
 19 62  1  0
 20 21  1  0
 20 63  1  0
 20 64  1  0
 21 22  1  0
 21 23  1  0
 21 65  1  6
 22 66  1  0
 23 24  1  0
 23 25  1  0
 23 26  1  0
 24 67  1  0
 24 68  1  0
 24 69  1  0
 25 70  1  0
 25 71  1  0
 25 72  1  0
 26 27  1  0
 26 73  1  1
 27 28  1  0
 27 74  1  0
 27 75  1  0
 28 29  1  0
 28 76  1  0
 28 77  1  0
 29 30  1  6
 30 78  1  0
 30 79  1  0
 30 80  1  0
 31 81  1  6
M  END
>  <i_m_ct_stereo_status>  (365) 
1

>  <s_m_source_file>  (365) 
/var/tmp/pbs.5076255.sched01/tmp1uy3qkd6/1269t22etaf.sdf

>  <i_m_source_file_index>  (365) 
40

>  <i_lp_mmshare_version>  (365) 
48012

>  <i_f3d_flags>  (365) 
0

>  <s_epik_input>  (365) 
W0NIMl09QyhbQ0gzXSlbQ0BIXShbQ0gyXVtDSDJdMSlbQ0BASF0oW0NAQF0xMltDSDNdKVtDQEhdM1tDQEBdKFtDSDNdKShbQ0gyXVtDSDJdMilbQ0BAXTQoW0NIM10pW0NAQEhdKFtDSDJdW0NIMl0zKVtDQEBdNShbQ0gzXSlbQ0BASF0oW0NIMl1bQ0gyXTQpQyhbQ0gzXSkoW0NIM10pW0NASF0oW09IXSlbQ0gyXVtDSDJdNQ==

>  <s_epik_cmdline>  (365) 
J2VwaWtfcHl0aG9uJywgJy1waHQnLCAnMi4wJywgJy1waCcsICc3LjAnLCAnLXRuJywgJzgnLCAnLW1hJywgJzIwMCcsICctaW1hZScsICc8aW5maWxlLm1hZT4nLCAnLW9tYWUnLCAnPG91dGZpbGUubWFlPic=

>  <r_lp_tautomer_probability>  (365) 
1

>  <r_epik_Ionization_Penalty>  (365) 
3.18421e-06

>  <r_epik_Ionization_Penalty_Charging>  (365) 
0

>  <r_epik_Ionization_Penalty_Neutral>  (365) 
3.18421e-06

>  <r_epik_State_Penalty>  (365) 
-0

>  <r_epik_Charging_Adjusted_Penalty>  (365) 
0

>  <i_epik_Tot_Q>  (365) 
0

>  <i_epik_Tot_abs_Q>  (365) 
0

>  <s_lp_Force_Field>  (365) 
OPLS3e

>  <r_lp_Energy>  (365) 
103.055

>  <b_lp_Chiralities_Consistent>  (365) 
1

>  <s_lp_Variant>  (365) 
115:0-1

>  <s_i_glide_gridfile>  (365) 
pfpi4k_grid

>  <i_i_glide_lignum>  (365) 
40

>  <i_i_glide_rotatable_bonds>  (365) 
2

>  <r_i_docking_score>  (365) 
-2.69813

>  <r_i_glide_ligand_efficiency>  (365) 
-0.0870364

>  <r_i_glide_ligand_efficiency_sa>  (365) 
-0.273414

>  <r_i_glide_ligand_efficiency_ln>  (365) 
-0.608511

>  <r_i_glide_gscore>  (365) 
-2.69813

>  <r_i_glide_lipo>  (365) 
-0.530302

>  <r_i_glide_hbond>  (365) 
-0.0516167

>  <r_i_glide_metal>  (365) 
-0

>  <r_i_glide_rewards>  (365) 
-0.499654

>  <r_i_glide_evdw>  (365) 
-30.3578

>  <r_i_glide_ecoul>  (365) 
-1.38445

>  <r_i_glide_erotb>  (365) 
0.109005

>  <r_i_glide_esite>  (365) 
0

>  <r_i_glide_emodel>  (365) 
-35.8508

>  <r_i_glide_energy>  (365) 
-31.7423

>  <r_i_glide_einternal>  (365) 
1.42742

>  <r_i_glide_intrahb_reward>  (365) 
-0

>  <i_i_glide_confnum>  (365) 
3

>  <i_i_glide_posenum>  (365) 
34

>  <r_i_glide_eff_state_penalty>  (365) 
0

>  <ligand_id>  (365) 
115

>  <original_smiles>  (365) 
C=C(C)C1CCC2(C)CCC3(C)C(CCC4C5(C)CCC(O)C(C)(C)C5CCC43C)C12

>  <smiles>  (365) 
[H]OC1([H])C([H])([H])C([H])([H])C2(C([H])([H])[H])C([H])(C([H])([H])C([H])([H])C3(C([H])([H])[H])C2([H])C([H])([H])C([H])([H])C2([H])C4([H])C([H])(C(=C([H])[H])C([H])([H])[H])C([H])([H])C([H])([H])C4(C([H])([H])[H])C([H])([H])C([H])([H])C23C([H])([H])[H])C1(C([H])([H])[H])C([H])([H])[H]

$$$$
115:0:1
     RDKit          3D

 81 85  0  0  1  0  0  0  0  0999 V2000
    1.5834    0.8991    1.2980 C   0  0  0  0  0  0  0  0  0  0  0  0
    1.8085    0.6272    2.5942 C   0  0  0  0  0  0  0  0  0  0  0  0
    1.2432    1.5771    3.6267 C   0  0  0  0  0  0  0  0  0  0  0  0
    2.5785   -0.5995    3.1349 C   0  0  2  0  0  0  0  0  0  0  0  0
    3.8242   -0.2439    3.9780 C   0  0  0  0  0  0  0  0  0  0  0  0
    5.0602   -0.8105    3.2577 C   0  0  0  0  0  0  0  0  0  0  0  0
    4.5849   -1.2653    1.8649 C   0  0  1  0  0  0  0  0  0  0  0  0
    4.7052   -0.0701    0.9055 C   0  0  0  0  0  0  0  0  0  0  0  0
    5.4393   -2.3907    1.2338 C   0  0  0  0  0  0  0  0  0  0  0  0
    5.0425   -3.8375    1.5692 C   0  0  0  0  0  0  0  0  0  0  0  0
    3.5100   -4.1344    1.4775 C   0  0  2  0  0  0  0  0  0  0  0  0
    3.0081   -3.8006    0.0358 C   0  0  0  0  0  0  0  0  0  0  0  0
    2.8220   -3.1327    2.4697 C   0  0  1  0  0  0  0  0  0  0  0  0
    3.1301   -3.5194    3.9317 C   0  0  0  0  0  0  0  0  0  0  0  0
    2.6859   -4.9459    4.2247 C   0  0  0  0  0  0  0  0  0  0  0  0
    3.3883   -6.0345    3.3428 C   0  0  1  0  0  0  0  0  0  0  0  0
    2.9587   -7.5026    3.8151 C   0  0  2  0  0  0  0  0  0  0  0  0
    3.2068   -7.5373    5.3518 C   0  0  0  0  0  0  0  0  0  0  0  0
    3.8269   -8.6604    3.2291 C   0  0  0  0  0  0  0  0  0  0  0  0
    3.3510  -10.0799    3.6010 C   0  0  0  0  0  0  0  0  0  0  0  0
    1.8745  -10.2987    3.2360 C   0  0  1  0  0  0  0  0  0  0  0  0
    1.4666  -11.5798    3.6677 O   0  0  0  0  0  0  0  0  0  0  0  0
    0.9159   -9.2090    3.7956 C   0  0  0  0  0  0  0  0  0  0  0  0
   -0.4795   -9.4156    3.1679 C   0  0  0  0  0  0  0  0  0  0  0  0
    0.7206   -9.3805    5.3273 C   0  0  0  0  0  0  0  0  0  0  0  0
    1.4566   -7.7712    3.4230 C   0  0  2  0  0  0  0  0  0  0  0  0
    1.2473   -7.4373    1.9172 C   0  0  0  0  0  0  0  0  0  0  0  0
    1.7003   -6.0307    1.4931 C   0  0  0  0  0  0  0  0  0  0  0  0
    3.1834   -5.6774    1.8111 C   0  0  1  0  0  0  0  0  0  0  0  0
    4.1082   -6.5473    0.9065 C   0  0  0  0  0  0  0  0  0  0  0  0
    3.0922   -1.6311    2.0933 C   0  0  1  0  0  0  0  0  0  0  0  0
    0.9858    1.7650    1.0331 H   0  0  0  0  0  0  0  0  0  0  0  0
    1.9607    0.3046    0.4897 H   0  0  0  0  0  0  0  0  0  0  0  0
    0.6809    1.0445    4.3883 H   0  0  0  0  0  0  0  0  0  0  0  0
    0.5620    2.2846    3.1462 H   0  0  0  0  0  0  0  0  0  0  0  0
    2.0287    2.1630    4.1005 H   0  0  0  0  0  0  0  0  0  0  0  0
    1.8375   -1.0640    3.7779 H   0  0  0  0  0  0  0  0  0  0  0  0
    3.9159    0.8289    4.1395 H   0  0  0  0  0  0  0  0  0  0  0  0
    3.7617   -0.6932    4.9690 H   0  0  0  0  0  0  0  0  0  0  0  0
    5.8644   -0.0767    3.2027 H   0  0  0  0  0  0  0  0  0  0  0  0
    5.4719   -1.6476    3.8165 H   0  0  0  0  0  0  0  0  0  0  0  0
    4.2411   -0.2861   -0.0572 H   0  0  0  0  0  0  0  0  0  0  0  0
    5.7522    0.1715    0.7160 H   0  0  0  0  0  0  0  0  0  0  0  0
    4.2346    0.8262    1.3025 H   0  0  0  0  0  0  0  0  0  0  0  0
    5.4232   -2.2895    0.1486 H   0  0  0  0  0  0  0  0  0  0  0  0
    6.4831   -2.2469    1.5078 H   0  0  0  0  0  0  0  0  0  0  0  0
    5.6236   -4.4752    0.9063 H   0  0  0  0  0  0  0  0  0  0  0  0
    5.4279   -4.0692    2.5592 H   0  0  0  0  0  0  0  0  0  0  0  0
    1.9233   -3.7398   -0.0042 H   0  0  0  0  0  0  0  0  0  0  0  0
    3.3098   -4.5186   -0.7198 H   0  0  0  0  0  0  0  0  0  0  0  0
    3.3641   -2.8434   -0.3352 H   0  0  0  0  0  0  0  0  0  0  0  0
    1.7423   -3.2448    2.3665 H   0  0  0  0  0  0  0  0  0  0  0  0
    4.1815   -3.4135    4.1918 H   0  0  0  0  0  0  0  0  0  0  0  0
    2.5882   -2.8796    4.6255 H   0  0  0  0  0  0  0  0  0  0  0  0
    2.8886   -5.0837    5.2845 H   0  0  0  0  0  0  0  0  0  0  0  0
    1.6014   -5.0007    4.1226 H   0  0  0  0  0  0  0  0  0  0  0  0
    4.4587   -5.9466    3.5475 H   0  0  0  0  0  0  0  0  0  0  0  0
    3.3949   -8.5271    5.7524 H   0  0  0  0  0  0  0  0  0  0  0  0
    2.3700   -7.1212    5.9132 H   0  0  0  0  0  0  0  0  0  0  0  0
    4.1053   -6.9727    5.6139 H   0  0  0  0  0  0  0  0  0  0  0  0
    3.8047   -8.6678    2.1523 H   0  0  0  0  0  0  0  0  0  0  0  0
    4.8729   -8.5269    3.5044 H   0  0  0  0  0  0  0  0  0  0  0  0
    3.9495  -10.8028    3.0493 H   0  0  0  0  0  0  0  0  0  0  0  0
    3.5302  -10.3131    4.6455 H   0  0  0  0  0  0  0  0  0  0  0  0
    1.8032  -10.2996    2.1493 H   0  0  0  0  0  0  0  0  0  0  0  0
    1.5688  -11.6323    4.6077 H   0  0  0  0  0  0  0  0  0  0  0  0
   -1.1566   -8.5938    3.4135 H   0  0  0  0  0  0  0  0  0  0  0  0
   -0.9342  -10.3259    3.5466 H   0  0  0  0  0  0  0  0  0  0  0  0
   -0.4402   -9.5379    2.0848 H   0  0  0  0  0  0  0  0  0  0  0  0
    0.3371   -8.4709    5.7904 H   0  0  0  0  0  0  0  0  0  0  0  0
    1.6272   -9.6777    5.8451 H   0  0  0  0  0  0  0  0  0  0  0  0
    0.0030  -10.1708    5.5558 H   0  0  0  0  0  0  0  0  0  0  0  0
    0.8281   -7.0709    3.9754 H   0  0  0  0  0  0  0  0  0  0  0  0
    1.7190   -8.1875    1.2888 H   0  0  0  0  0  0  0  0  0  0  0  0
    0.1921   -7.4840    1.6622 H   0  0  0  0  0  0  0  0  0  0  0  0
    1.5177   -5.9419    0.4224 H   0  0  0  0  0  0  0  0  0  0  0  0
    1.0352   -5.3184    1.9749 H   0  0  0  0  0  0  0  0  0  0  0  0
    3.6141   -7.4300    0.5086 H   0  0  0  0  0  0  0  0  0  0  0  0
    5.0106   -6.8504    1.4367 H   0  0  0  0  0  0  0  0  0  0  0  0
    4.4586   -6.0528    0.0079 H   0  0  0  0  0  0  0  0  0  0  0  0
    2.5372   -1.4991    1.1727 H   0  0  0  0  0  0  0  0  0  0  0  0
  1  2  2  0
  1 32  1  0
  1 33  1  0
  2  3  1  0
  2  4  1  0
  3 34  1  0
  3 35  1  0
  3 36  1  0
  4 31  1  0
  4  5  1  0
  4 37  1  1
  5  6  1  0
  5 38  1  0
  5 39  1  0
  6  7  1  0
  6 40  1  0
  6 41  1  0
  7 31  1  0
  7  8  1  6
  7  9  1  0
  8 42  1  0
  8 43  1  0
  8 44  1  0
  9 10  1  0
  9 45  1  0
  9 46  1  0
 10 11  1  0
 10 47  1  0
 10 48  1  0
 11 29  1  0
 11 12  1  6
 11 13  1  0
 12 49  1  0
 12 50  1  0
 12 51  1  0
 13 14  1  0
 13 31  1  0
 13 52  1  1
 14 15  1  0
 14 53  1  0
 14 54  1  0
 15 16  1  0
 15 55  1  0
 15 56  1  0
 16 29  1  0
 16 17  1  0
 16 57  1  1
 17 26  1  0
 17 18  1  1
 17 19  1  0
 18 58  1  0
 18 59  1  0
 18 60  1  0
 19 20  1  0
 19 61  1  0
 19 62  1  0
 20 21  1  0
 20 63  1  0
 20 64  1  0
 21 22  1  0
 21 23  1  0
 21 65  1  6
 22 66  1  0
 23 24  1  0
 23 25  1  0
 23 26  1  0
 24 67  1  0
 24 68  1  0
 24 69  1  0
 25 70  1  0
 25 71  1  0
 25 72  1  0
 26 27  1  0
 26 73  1  1
 27 28  1  0
 27 74  1  0
 27 75  1  0
 28 29  1  0
 28 76  1  0
 28 77  1  0
 29 30  1  6
 30 78  1  0
 30 79  1  0
 30 80  1  0
 31 81  1  6
M  END
>  <i_m_ct_stereo_status>  (366) 
1

>  <s_m_source_file>  (366) 
/var/tmp/pbs.5076255.sched01/tmp1uy3qkd6/1269t22etaf.sdf

>  <i_m_source_file_index>  (366) 
40

>  <i_lp_mmshare_version>  (366) 
48012

>  <i_f3d_flags>  (366) 
0

>  <s_epik_input>  (366) 
W0NIMl09QyhbQ0gzXSlbQ0BIXShbQ0gyXVtDSDJdMSlbQ0BASF0oW0NAQF0xMltDSDNdKVtDQEhdM1tDQEBdKFtDSDNdKShbQ0gyXVtDSDJdMilbQ0BAXTQoW0NIM10pW0NAQEhdKFtDSDJdW0NIMl0zKVtDQEBdNShbQ0gzXSlbQ0BASF0oW0NIMl1bQ0gyXTQpQyhbQ0gzXSkoW0NIM10pW0NASF0oW09IXSlbQ0gyXVtDSDJdNQ==

>  <s_epik_cmdline>  (366) 
J2VwaWtfcHl0aG9uJywgJy1waHQnLCAnMi4wJywgJy1waCcsICc3LjAnLCAnLXRuJywgJzgnLCAnLW1hJywgJzIwMCcsICctaW1hZScsICc8aW5maWxlLm1hZT4nLCAnLW9tYWUnLCAnPG91dGZpbGUubWFlPic=

>  <r_lp_tautomer_probability>  (366) 
1

>  <r_epik_Ionization_Penalty>  (366) 
3.18421e-06

>  <r_epik_Ionization_Penalty_Charging>  (366) 
0

>  <r_epik_Ionization_Penalty_Neutral>  (366) 
3.18421e-06

>  <r_epik_State_Penalty>  (366) 
-0

>  <r_epik_Charging_Adjusted_Penalty>  (366) 
0

>  <i_epik_Tot_Q>  (366) 
0

>  <i_epik_Tot_abs_Q>  (366) 
0

>  <s_lp_Force_Field>  (366) 
OPLS3e

>  <r_lp_Energy>  (366) 
103.055

>  <b_lp_Chiralities_Consistent>  (366) 
1

>  <s_lp_Variant>  (366) 
115:0-1

>  <s_i_glide_gridfile>  (366) 
pfpi4k_grid

>  <i_i_glide_lignum>  (366) 
40

>  <i_i_glide_rotatable_bonds>  (366) 
2

>  <r_i_docking_score>  (366) 
-2.5339

>  <r_i_glide_ligand_efficiency>  (366) 
-0.0817387

>  <r_i_glide_ligand_efficiency_sa>  (366) 
-0.256772

>  <r_i_glide_ligand_efficiency_ln>  (366) 
-0.571472

>  <r_i_glide_gscore>  (366) 
-2.5339

>  <r_i_glide_lipo>  (366) 
-0.574799

>  <r_i_glide_hbond>  (366) 
0

>  <r_i_glide_metal>  (366) 
-0

>  <r_i_glide_rewards>  (366) 
-0.499654

>  <r_i_glide_evdw>  (366) 
-30.2229

>  <r_i_glide_ecoul>  (366) 
-0.382065

>  <r_i_glide_erotb>  (366) 
0.109005

>  <r_i_glide_esite>  (366) 
0

>  <r_i_glide_emodel>  (366) 
-34.9999

>  <r_i_glide_energy>  (366) 
-30.6049

>  <r_i_glide_einternal>  (366) 
0.918797

>  <r_i_glide_intrahb_reward>  (366) 
-0

>  <i_i_glide_confnum>  (366) 
3

>  <i_i_glide_posenum>  (366) 
1

>  <r_i_glide_eff_state_penalty>  (366) 
0

>  <ligand_id>  (366) 
115

>  <original_smiles>  (366) 
C=C(C)C1CCC2(C)CCC3(C)C(CCC4C5(C)CCC(O)C(C)(C)C5CCC43C)C12

>  <smiles>  (366) 
[H]OC1([H])C([H])([H])C([H])([H])C2(C([H])([H])[H])C([H])(C([H])([H])C([H])([H])C3(C([H])([H])[H])C2([H])C([H])([H])C([H])([H])C2([H])C4([H])C([H])(C(=C([H])[H])C([H])([H])[H])C([H])([H])C([H])([H])C4(C([H])([H])[H])C([H])([H])C([H])([H])C23C([H])([H])[H])C1(C([H])([H])[H])C([H])([H])[H]

$$$$
116:0:0
     RDKit          3D

 18 19  0  0  1  0  0  0  0  0999 V2000
    0.6154  -10.3410    2.9128 Br  0  0  0  0  0  0  0  0  0  0  0  0
    0.4638   -8.4629    3.1515 C   0  0  0  0  0  0  0  0  0  0  0  0
    0.4092   -7.4803    2.1352 C   0  0  0  0  0  0  0  0  0  0  0  0
    0.3032   -6.2669    2.6624 N   0  0  0  0  0  0  0  0  0  0  0  0
    0.3089   -6.4520    4.0133 N   0  0  0  0  0  0  0  0  0  0  0  0
    0.2293   -5.3473    4.9010 C   0  0  0  0  0  0  0  0  0  0  0  0
    0.6155   -4.0502    4.4960 C   0  0  0  0  0  0  0  0  0  0  0  0
    0.4861   -2.9876    5.4095 C   0  0  0  0  0  0  0  0  0  0  0  0
    0.0000   -3.1404    6.6598 N   0  0  0  0  0  0  0  0  0  0  0  0
   -0.3461   -4.3840    7.0509 C   0  0  0  0  0  0  0  0  0  0  0  0
   -0.2546   -5.5101    6.2141 C   0  0  0  0  0  0  0  0  0  0  0  0
    0.3983   -7.7958    4.3375 C   0  0  0  0  0  0  0  0  0  0  0  0
    0.4414   -7.6092    1.0600 H   0  0  0  0  0  0  0  0  0  0  0  0
    0.9987   -3.8639    3.5023 H   0  0  0  0  0  0  0  0  0  0  0  0
    0.7733   -1.9842    5.1297 H   0  0  0  0  0  0  0  0  0  0  0  0
   -0.7190   -4.4771    8.0598 H   0  0  0  0  0  0  0  0  0  0  0  0
   -0.5729   -6.4725    6.5807 H   0  0  0  0  0  0  0  0  0  0  0  0
    0.4179   -8.1636    5.3525 H   0  0  0  0  0  0  0  0  0  0  0  0
  1  2  1  0
  2 12  2  0
  2  3  1  0
  3  4  2  0
  3 13  1  0
  4  5  1  0
  5  6  1  0
  5 12  1  0
  6 11  1  0
  6  7  2  0
  7  8  1  0
  7 14  1  0
  8  9  2  0
  8 15  1  0
  9 10  1  0
 10 11  2  0
 10 16  1  0
 11 17  1  0
 12 18  1  0
M  END
>  <i_m_ct_stereo_status>  (367) 
1

>  <s_m_source_file>  (367) 
/var/tmp/pbs.5076255.sched01/tmp1uy3qkd6/1269t22etaf.sdf

>  <i_m_source_file_index>  (367) 
41

>  <i_lp_mmshare_version>  (367) 
48012

>  <i_f3d_flags>  (367) 
0

>  <s_epik_input>  (367) 
QnJjMVtjSF1ubihbY0hdMSktYzJbY0hdW2NIXW5bY0hdW2NIXTI=

>  <s_epik_cmdline>  (367) 
J2VwaWtfcHl0aG9uJywgJy1waHQnLCAnMi4wJywgJy1waCcsICc3LjAnLCAnLXRuJywgJzgnLCAnLW1hJywgJzIwMCcsICctaW1hZScsICc8aW5maWxlLm1hZT4nLCAnLW9tYWUnLCAnPG91dGZpbGUubWFlPic=

>  <r_lp_tautomer_probability>  (367) 
1

>  <r_epik_Ionization_Penalty>  (367) 
0.000147686

>  <r_epik_Ionization_Penalty_Charging>  (367) 
0

>  <r_epik_Ionization_Penalty_Neutral>  (367) 
0.000147686

>  <r_epik_State_Penalty>  (367) 
-0

>  <r_epik_Charging_Adjusted_Penalty>  (367) 
0

>  <i_epik_Tot_Q>  (367) 
0

>  <i_epik_Tot_abs_Q>  (367) 
0

>  <s_lp_Force_Field>  (367) 
OPLS3e

>  <r_lp_Energy>  (367) 
16.2282

>  <b_lp_Chiralities_Consistent>  (367) 
1

>  <s_lp_Variant>  (367) 
116:0-1

>  <s_i_glide_gridfile>  (367) 
pfpi4k_grid

>  <i_i_glide_lignum>  (367) 
41

>  <i_i_glide_rotatable_bonds>  (367) 
1

>  <r_i_docking_score>  (367) 
-2.89818

>  <r_i_glide_ligand_efficiency>  (367) 
-0.241515

>  <r_i_glide_ligand_efficiency_sa>  (367) 
-0.552931

>  <r_i_glide_ligand_efficiency_ln>  (367) 
-0.831637

>  <r_i_glide_gscore>  (367) 
-2.89818

>  <r_i_glide_lipo>  (367) 
-0.134308

>  <r_i_glide_hbond>  (367) 
-0.116924

>  <r_i_glide_metal>  (367) 
-0

>  <r_i_glide_rewards>  (367) 
-1.88143

>  <r_i_glide_evdw>  (367) 
-14.9218

>  <r_i_glide_ecoul>  (367) 
-2.14659

>  <r_i_glide_erotb>  (367) 
0.337431

>  <r_i_glide_esite>  (367) 
-0.0348738

>  <r_i_glide_emodel>  (367) 
-20.2667

>  <r_i_glide_energy>  (367) 
-17.0684

>  <r_i_glide_einternal>  (367) 
0.341135

>  <r_i_glide_intrahb_reward>  (367) 
-0

>  <i_i_glide_confnum>  (367) 
1

>  <i_i_glide_posenum>  (367) 
26

>  <r_i_glide_eff_state_penalty>  (367) 
0

>  <ligand_id>  (367) 
116

>  <original_smiles>  (367) 
Brc1cnn(-c2ccncc2)c1

>  <smiles>  (367) 
[H]c1nc([H])c([H])c(-n2nc([H])c(Br)c2[H])c1[H]

$$$$
116:0:1
     RDKit          3D

 18 19  0  0  1  0  0  0  0  0999 V2000
    1.3048   -6.9993    1.2768 Br  0  0  0  0  0  0  0  0  0  0  0  0
    0.6345   -6.5573    2.9982 C   0  0  0  0  0  0  0  0  0  0  0  0
   -0.2896   -7.3040    3.7705 C   0  0  0  0  0  0  0  0  0  0  0  0
   -0.5821   -6.6520    4.8875 N   0  0  0  0  0  0  0  0  0  0  0  0
    0.1721   -5.5163    4.8741 N   0  0  0  0  0  0  0  0  0  0  0  0
    0.1054   -4.5897    5.9499 C   0  0  0  0  0  0  0  0  0  0  0  0
    0.7027   -3.3144    5.8531 C   0  0  0  0  0  0  0  0  0  0  0  0
    0.5937   -2.4293    6.9424 C   0  0  0  0  0  0  0  0  0  0  0  0
   -0.0694   -2.7272    8.0793 N   0  0  0  0  0  0  0  0  0  0  0  0
   -0.6164   -3.9550    8.1816 C   0  0  0  0  0  0  0  0  0  0  0  0
   -0.5737   -4.9065    7.1480 C   0  0  0  0  0  0  0  0  0  0  0  0
    0.9262   -5.4367    3.7139 C   0  0  0  0  0  0  0  0  0  0  0  0
   -0.7631   -8.2540    3.5582 H   0  0  0  0  0  0  0  0  0  0  0  0
    1.2306   -2.9961    4.9688 H   0  0  0  0  0  0  0  0  0  0  0  0
    1.0463   -1.4507    6.8954 H   0  0  0  0  0  0  0  0  0  0  0  0
   -1.1259   -4.1753    9.1090 H   0  0  0  0  0  0  0  0  0  0  0  0
   -1.0569   -5.8587    7.2870 H   0  0  0  0  0  0  0  0  0  0  0  0
    1.5758   -4.6061    3.4833 H   0  0  0  0  0  0  0  0  0  0  0  0
  1  2  1  0
  2 12  2  0
  2  3  1  0
  3  4  2  0
  3 13  1  0
  4  5  1  0
  5  6  1  0
  5 12  1  0
  6 11  1  0
  6  7  2  0
  7  8  1  0
  7 14  1  0
  8  9  2  0
  8 15  1  0
  9 10  1  0
 10 11  2  0
 10 16  1  0
 11 17  1  0
 12 18  1  0
M  END
>  <i_m_ct_stereo_status>  (368) 
1

>  <s_m_source_file>  (368) 
/var/tmp/pbs.5076255.sched01/tmp1uy3qkd6/1269t22etaf.sdf

>  <i_m_source_file_index>  (368) 
41

>  <i_lp_mmshare_version>  (368) 
48012

>  <i_f3d_flags>  (368) 
0

>  <s_epik_input>  (368) 
QnJjMVtjSF1ubihbY0hdMSktYzJbY0hdW2NIXW5bY0hdW2NIXTI=

>  <s_epik_cmdline>  (368) 
J2VwaWtfcHl0aG9uJywgJy1waHQnLCAnMi4wJywgJy1waCcsICc3LjAnLCAnLXRuJywgJzgnLCAnLW1hJywgJzIwMCcsICctaW1hZScsICc8aW5maWxlLm1hZT4nLCAnLW9tYWUnLCAnPG91dGZpbGUubWFlPic=

>  <r_lp_tautomer_probability>  (368) 
1

>  <r_epik_Ionization_Penalty>  (368) 
0.000147686

>  <r_epik_Ionization_Penalty_Charging>  (368) 
0

>  <r_epik_Ionization_Penalty_Neutral>  (368) 
0.000147686

>  <r_epik_State_Penalty>  (368) 
-0

>  <r_epik_Charging_Adjusted_Penalty>  (368) 
0

>  <i_epik_Tot_Q>  (368) 
0

>  <i_epik_Tot_abs_Q>  (368) 
0

>  <s_lp_Force_Field>  (368) 
OPLS3e

>  <r_lp_Energy>  (368) 
16.2282

>  <b_lp_Chiralities_Consistent>  (368) 
1

>  <s_lp_Variant>  (368) 
116:0-1

>  <s_i_glide_gridfile>  (368) 
pfpi4k_grid

>  <i_i_glide_lignum>  (368) 
41

>  <i_i_glide_rotatable_bonds>  (368) 
1

>  <r_i_docking_score>  (368) 
-2.75963

>  <r_i_glide_ligand_efficiency>  (368) 
-0.22997

>  <r_i_glide_ligand_efficiency_sa>  (368) 
-0.526499

>  <r_i_glide_ligand_efficiency_ln>  (368) 
-0.791882

>  <r_i_glide_gscore>  (368) 
-2.75963

>  <r_i_glide_lipo>  (368) 
-0.0238903

>  <r_i_glide_hbond>  (368) 
-0.0863391

>  <r_i_glide_metal>  (368) 
-0

>  <r_i_glide_rewards>  (368) 
-1.88143

>  <r_i_glide_evdw>  (368) 
-13.1317

>  <r_i_glide_ecoul>  (368) 
-2.8895

>  <r_i_glide_erotb>  (368) 
0.337431

>  <r_i_glide_esite>  (368) 
-0.0154008

>  <r_i_glide_emodel>  (368) 
-19.1994

>  <r_i_glide_energy>  (368) 
-16.0212

>  <r_i_glide_einternal>  (368) 
0.0535508

>  <r_i_glide_intrahb_reward>  (368) 
-0

>  <i_i_glide_confnum>  (368) 
3

>  <i_i_glide_posenum>  (368) 
20

>  <r_i_glide_eff_state_penalty>  (368) 
0

>  <ligand_id>  (368) 
116

>  <original_smiles>  (368) 
Brc1cnn(-c2ccncc2)c1

>  <smiles>  (368) 
[H]c1nc([H])c([H])c(-n2nc([H])c(Br)c2[H])c1[H]

$$$$
116:0:2
     RDKit          3D

 18 19  0  0  1  0  0  0  0  0999 V2000
   -1.7830   -9.0523    2.4778 Br  0  0  0  0  0  0  0  0  0  0  0  0
   -0.7496   -7.7224    3.3491 C   0  0  0  0  0  0  0  0  0  0  0  0
    0.5190   -7.2337    2.9529 C   0  0  0  0  0  0  0  0  0  0  0  0
    0.9187   -6.2764    3.7803 N   0  0  0  0  0  0  0  0  0  0  0  0
   -0.0450   -6.1674    4.7351 N   0  0  0  0  0  0  0  0  0  0  0  0
    0.0902   -5.2446    5.8129 C   0  0  0  0  0  0  0  0  0  0  0  0
    1.3003   -4.5453    6.0348 C   0  0  0  0  0  0  0  0  0  0  0  0
    1.3720   -3.6260    7.1009 C   0  0  0  0  0  0  0  0  0  0  0  0
    0.3392   -3.3777    7.9327 N   0  0  0  0  0  0  0  0  0  0  0  0
   -0.8037   -4.0618    7.7340 C   0  0  0  0  0  0  0  0  0  0  0  0
   -0.9857   -4.9871    6.6912 C   0  0  0  0  0  0  0  0  0  0  0  0
   -1.0949   -7.0367    4.4730 C   0  0  0  0  0  0  0  0  0  0  0  0
    1.1397   -7.5194    2.1105 H   0  0  0  0  0  0  0  0  0  0  0  0
    2.1622   -4.6986    5.4028 H   0  0  0  0  0  0  0  0  0  0  0  0
    2.2833   -3.0822    7.2989 H   0  0  0  0  0  0  0  0  0  0  0  0
   -1.6108   -3.8411    8.4150 H   0  0  0  0  0  0  0  0  0  0  0  0
   -1.9471   -5.4555    6.5831 H   0  0  0  0  0  0  0  0  0  0  0  0
   -1.9866   -7.0959    5.0783 H   0  0  0  0  0  0  0  0  0  0  0  0
  1  2  1  0
  2 12  2  0
  2  3  1  0
  3  4  2  0
  3 13  1  0
  4  5  1  0
  5  6  1  0
  5 12  1  0
  6 11  1  0
  6  7  2  0
  7  8  1  0
  7 14  1  0
  8  9  2  0
  8 15  1  0
  9 10  1  0
 10 11  2  0
 10 16  1  0
 11 17  1  0
 12 18  1  0
M  END
>  <i_m_ct_stereo_status>  (369) 
1

>  <s_m_source_file>  (369) 
/var/tmp/pbs.5076255.sched01/tmp1uy3qkd6/1269t22etaf.sdf

>  <i_m_source_file_index>  (369) 
41

>  <i_lp_mmshare_version>  (369) 
48012

>  <i_f3d_flags>  (369) 
0

>  <s_epik_input>  (369) 
QnJjMVtjSF1ubihbY0hdMSktYzJbY0hdW2NIXW5bY0hdW2NIXTI=

>  <s_epik_cmdline>  (369) 
J2VwaWtfcHl0aG9uJywgJy1waHQnLCAnMi4wJywgJy1waCcsICc3LjAnLCAnLXRuJywgJzgnLCAnLW1hJywgJzIwMCcsICctaW1hZScsICc8aW5maWxlLm1hZT4nLCAnLW9tYWUnLCAnPG91dGZpbGUubWFlPic=

>  <r_lp_tautomer_probability>  (369) 
1

>  <r_epik_Ionization_Penalty>  (369) 
0.000147686

>  <r_epik_Ionization_Penalty_Charging>  (369) 
0

>  <r_epik_Ionization_Penalty_Neutral>  (369) 
0.000147686

>  <r_epik_State_Penalty>  (369) 
-0

>  <r_epik_Charging_Adjusted_Penalty>  (369) 
0

>  <i_epik_Tot_Q>  (369) 
0

>  <i_epik_Tot_abs_Q>  (369) 
0

>  <s_lp_Force_Field>  (369) 
OPLS3e

>  <r_lp_Energy>  (369) 
16.2282

>  <b_lp_Chiralities_Consistent>  (369) 
1

>  <s_lp_Variant>  (369) 
116:0-1

>  <s_i_glide_gridfile>  (369) 
pfpi4k_grid

>  <i_i_glide_lignum>  (369) 
41

>  <i_i_glide_rotatable_bonds>  (369) 
1

>  <r_i_docking_score>  (369) 
-2.5387

>  <r_i_glide_ligand_efficiency>  (369) 
-0.211559

>  <r_i_glide_ligand_efficiency_sa>  (369) 
-0.484349

>  <r_i_glide_ligand_efficiency_ln>  (369) 
-0.728486

>  <r_i_glide_gscore>  (369) 
-2.5387

>  <r_i_glide_lipo>  (369) 
-0.286052

>  <r_i_glide_hbond>  (369) 
0

>  <r_i_glide_metal>  (369) 
-0

>  <r_i_glide_rewards>  (369) 
-1.88143

>  <r_i_glide_evdw>  (369) 
-15.8186

>  <r_i_glide_ecoul>  (369) 
0.697133

>  <r_i_glide_erotb>  (369) 
0.337431

>  <r_i_glide_esite>  (369) 
-0.0222964

>  <r_i_glide_emodel>  (369) 
-18.0613

>  <r_i_glide_energy>  (369) 
-15.1215

>  <r_i_glide_einternal>  (369) 
0.031706

>  <r_i_glide_intrahb_reward>  (369) 
-0

>  <i_i_glide_confnum>  (369) 
3

>  <i_i_glide_posenum>  (369) 
33

>  <r_i_glide_eff_state_penalty>  (369) 
0

>  <ligand_id>  (369) 
116

>  <original_smiles>  (369) 
Brc1cnn(-c2ccncc2)c1

>  <smiles>  (369) 
[H]c1nc([H])c([H])c(-n2nc([H])c(Br)c2[H])c1[H]

$$$$
