0:0:0
     RDKit          3D

 61 66  0  0  1  0  0  0  0  0999 V2000
    2.6359    0.3426    2.9047 C   0  0  0  0  0  0  0  0  0  0  0  0
    2.5874   -0.9001    2.3831 C   0  0  0  0  0  0  0  0  0  0  0  0
    1.4360   -1.7974    2.7427 C   0  0  0  0  0  0  0  0  0  0  0  0
    1.8352   -2.8490    3.7281 C   0  0  1  0  0  0  0  0  0  0  0  0
    1.6894   -4.1737    3.2174 O   0  0  0  0  0  0  0  0  0  0  0  0
    3.0128   -3.8035    3.6231 C   0  0  2  0  0  0  0  0  0  0  0  0
    3.4775   -4.4693    4.9292 C   0  0  0  0  0  0  0  0  0  0  0  0
    4.1683   -5.8352    4.7419 C   0  0  0  0  0  0  0  0  0  0  0  0
    3.8356   -6.4575    3.3810 C   0  0  2  0  0  0  0  0  0  0  0  0
    2.3401   -6.9163    3.3758 C   0  0  0  0  0  0  0  0  0  0  0  0
    4.6320   -7.6446    3.2627 O   0  0  0  0  0  0  0  0  0  0  0  0
    4.7674   -8.2972    2.0777 C   0  0  0  0  0  0  0  0  0  0  0  0
    5.4675   -9.2916    1.9170 O   0  0  0  0  0  0  0  0  0  0  0  0
    3.9520   -7.7085    0.9248 C   0  0  0  0  0  0  0  0  0  0  0  0
    3.9579   -6.1603    0.8740 C   0  0  0  0  0  0  0  0  0  0  0  0
    4.3018   -5.4799    2.2350 C   0  0  1  0  0  0  0  0  0  0  0  0
    4.0730   -3.9040    2.4913 C   0  0  2  0  0  0  0  0  0  0  0  0
    5.3929   -3.3223    3.0390 C   0  0  0  0  0  0  0  0  0  0  0  0
    3.7446   -3.0230    1.1989 C   0  0  1  0  0  0  0  0  0  0  0  0
    3.5707   -1.4470    1.3354 C   0  0  2  0  0  0  0  0  0  0  0  0
    4.8447   -0.5690    1.1447 C   0  0  1  0  0  0  0  0  0  0  0  0
    5.5497   -0.3055    2.3465 O   0  0  0  0  0  0  0  0  0  0  0  0
    5.8667   -1.1099    0.1494 C   0  0  0  0  0  0  0  0  0  0  0  0
    5.3547   -2.1995   -0.7999 C   0  0  2  0  0  0  0  0  0  0  0  0
    6.5238   -2.6951   -1.4307 O   0  0  0  0  0  0  0  0  0  0  0  0
    4.3677   -1.8113   -1.8694 C   0  0  0  0  0  0  0  0  0  0  0  0
    4.2234   -0.6489   -2.5164 C   0  0  0  0  0  0  0  0  0  0  0  0
    3.4508   -2.9280   -2.0307 C   0  0  0  0  0  0  0  0  0  0  0  0
    2.6092   -3.0602   -2.9174 O   0  0  0  0  0  0  0  0  0  0  0  0
    3.7467   -3.8228   -1.0795 O   0  0  0  0  0  0  0  0  0  0  0  0
    4.6375   -3.3518   -0.0630 C   0  0  2  0  0  0  0  0  0  0  0  0
    3.3922    1.0607    2.6410 H   0  0  0  0  0  0  0  0  0  0  0  0
    1.8891    0.6708    3.6121 H   0  0  0  0  0  0  0  0  0  0  0  0
    0.6249   -1.2210    3.1862 H   0  0  0  0  0  0  0  0  0  0  0  0
    1.0227   -2.2483    1.8451 H   0  0  0  0  0  0  0  0  0  0  0  0
    1.4043   -2.7133    4.7171 H   0  0  0  0  0  0  0  0  0  0  0  0
    4.1281   -3.7876    5.4818 H   0  0  0  0  0  0  0  0  0  0  0  0
    2.6008   -4.6131    5.5638 H   0  0  0  0  0  0  0  0  0  0  0  0
    5.2501   -5.7186    4.8288 H   0  0  0  0  0  0  0  0  0  0  0  0
    3.8924   -6.5101    5.5554 H   0  0  0  0  0  0  0  0  0  0  0  0
    1.7625   -6.4876    4.1965 H   0  0  0  0  0  0  0  0  0  0  0  0
    2.2486   -7.9942    3.4972 H   0  0  0  0  0  0  0  0  0  0  0  0
    1.8185   -6.6530    2.4563 H   0  0  0  0  0  0  0  0  0  0  0  0
    4.3096   -8.1274   -0.0144 H   0  0  0  0  0  0  0  0  0  0  0  0
    2.9292   -8.0604    1.0460 H   0  0  0  0  0  0  0  0  0  0  0  0
    4.7267   -5.9410    0.1361 H   0  0  0  0  0  0  0  0  0  0  0  0
    3.0108   -5.8060    0.4698 H   0  0  0  0  0  0  0  0  0  0  0  0
    5.3870   -5.5740    2.2481 H   0  0  0  0  0  0  0  0  0  0  0  0
    6.1133   -3.1347    2.2454 H   0  0  0  0  0  0  0  0  0  0  0  0
    5.8787   -3.9862    3.7460 H   0  0  0  0  0  0  0  0  0  0  0  0
    5.2147   -2.3936    3.5776 H   0  0  0  0  0  0  0  0  0  0  0  0
    2.7484   -3.3759    0.9308 H   0  0  0  0  0  0  0  0  0  0  0  0
    2.9953   -1.2161    0.4373 H   0  0  0  0  0  0  0  0  0  0  0  0
    4.5203    0.3965    0.7523 H   0  0  0  0  0  0  0  0  0  0  0  0
    6.4175    0.0196    2.1376 H   0  0  0  0  0  0  0  0  0  0  0  0
    6.2778   -0.2710   -0.4004 H   0  0  0  0  0  0  0  0  0  0  0  0
    6.7086   -1.5397    0.6981 H   0  0  0  0  0  0  0  0  0  0  0  0
    6.2849   -3.4375   -1.9707 H   0  0  0  0  0  0  0  0  0  0  0  0
    4.9031    0.1658   -2.3308 H   0  0  0  0  0  0  0  0  0  0  0  0
    3.4224   -0.4837   -3.2272 H   0  0  0  0  0  0  0  0  0  0  0  0
    5.4016   -4.0783    0.2071 H   0  0  0  0  0  0  0  0  0  0  0  0
  1  2  2  0
  1 32  1  0
  1 33  1  0
  2 20  1  0
  2  3  1  0
  3  4  1  0
  3 34  1  0
  3 35  1  0
  4  6  1  0
  4  5  1  0
  4 36  1  1
  6  5  1  6
  6 17  1  0
  6  7  1  0
  7  8  1  0
  7 37  1  0
  7 38  1  0
  8  9  1  0
  8 39  1  0
  8 40  1  0
  9 16  1  0
  9 10  1  1
  9 11  1  0
 10 41  1  0
 10 42  1  0
 10 43  1  0
 11 12  1  0
 12 13  2  0
 12 14  1  0
 14 15  1  0
 14 44  1  0
 14 45  1  0
 15 16  1  0
 15 46  1  0
 15 47  1  0
 16 17  1  0
 16 48  1  6
 17 18  1  1
 17 19  1  0
 18 49  1  0
 18 50  1  0
 18 51  1  0
 19 31  1  0
 19 20  1  0
 19 52  1  6
 20 21  1  0
 20 53  1  6
 21 22  1  0
 21 23  1  0
 21 54  1  6
 22 55  1  0
 23 24  1  0
 23 56  1  0
 23 57  1  0
 24 31  1  0
 24 25  1  6
 24 26  1  0
 25 58  1  0
 26 27  2  0
 26 28  1  0
 27 59  1  0
 27 60  1  0
 28 29  2  0
 28 30  1  0
 30 31  1  0
 31 61  1  1
M  END
>  <i_m_ct_stereo_status>  (1) 
1

>  <s_m_source_file>  (1) 
/var/tmp/pbs.5076255.sched01/tmplremgrqo/0ygzoxw5b.sdf

>  <i_m_source_file_index>  (1) 
1

>  <i_lp_mmshare_version>  (1) 
48012

>  <i_f3d_flags>  (1) 
0

>  <s_epik_input>  (1) 
TzFbQ0BASF0oW0NAXTEyMylbQ0gyXUMoPVtDSDJdKVtDQEBIXTRbQ0BASF0oW0NAQEhdNVtDQEBdKFtPSF0pKEMoPVtDSDJdKUMoPU8pTzUpW0NIMl1bQ0BASF00W09IXSlbQ0BdMyhbQ0gzXSlbQ0BIXTZbQ0BdKFtDSDNdKShbQ0gyXVtDSDJdMilPQyg9TylbQ0gyXVtDSDJdNg==

>  <s_epik_cmdline>  (1) 
J2VwaWtfcHl0aG9uJywgJy1waHQnLCAnMi4wJywgJy1waCcsICc3LjAnLCAnLXRuJywgJzgnLCAnLW1hJywgJzIwMCcsICctaW1hZScsICc8aW5maWxlLm1hZT4nLCAnLW9tYWUnLCAnPG91dGZpbGUubWFlPic=

>  <r_lp_tautomer_probability>  (1) 
1

>  <r_epik_Ionization_Penalty>  (1) 
4.231e-05

>  <r_epik_Ionization_Penalty_Charging>  (1) 
0

>  <r_epik_Ionization_Penalty_Neutral>  (1) 
4.231e-05

>  <r_epik_State_Penalty>  (1) 
-0

>  <r_epik_Charging_Adjusted_Penalty>  (1) 
0

>  <i_epik_Tot_Q>  (1) 
0

>  <i_epik_Tot_abs_Q>  (1) 
0

>  <s_epik_Chemistry_Notes>  (1) 
This compound has an ester and may undergo hydrolysis at high or low pH.

>  <s_lp_Force_Field>  (1) 
OPLS3e

>  <r_lp_Energy>  (1) 
82.5518

>  <b_lp_Chiralities_Consistent>  (1) 
1

>  <s_lp_Variant>  (1) 
0:0-1

>  <s_i_glide_gridfile>  (1) 
pfpi4k_grid

>  <i_i_glide_lignum>  (1) 
1

>  <i_i_glide_rotatable_bonds>  (1) 
2

>  <r_i_docking_score>  (1) 
-3.3456

>  <r_i_glide_ligand_efficiency>  (1) 
-0.107922

>  <r_i_glide_ligand_efficiency_sa>  (1) 
-0.339026

>  <r_i_glide_ligand_efficiency_ln>  (1) 
-0.754535

>  <r_i_glide_gscore>  (1) 
-3.3456

>  <r_i_glide_lipo>  (1) 
-0.473715

>  <r_i_glide_hbond>  (1) 
-0.47977

>  <r_i_glide_metal>  (1) 
-0

>  <r_i_glide_rewards>  (1) 
-0.480676

>  <r_i_glide_evdw>  (1) 
-32.3442

>  <r_i_glide_ecoul>  (1) 
-1.8316

>  <r_i_glide_erotb>  (1) 
0

>  <r_i_glide_esite>  (1) 
-0.0194876

>  <r_i_glide_emodel>  (1) 
-40.2206

>  <r_i_glide_energy>  (1) 
-34.1758

>  <r_i_glide_einternal>  (1) 
0.794669

>  <r_i_glide_intrahb_reward>  (1) 
-0

>  <i_i_glide_confnum>  (1) 
2

>  <i_i_glide_posenum>  (1) 
8

>  <r_i_glide_eff_state_penalty>  (1) 
0

>  <ligand_id>  (1) 
0

>  <original_smiles>  (1) 
C=C1CC2OC23CCC2(C)OC(=O)CCC2C3(C)C2C1C(O)CC1(O)C(=C)C(=O)OC21

>  <smiles>  (1) 
[H]OC1([H])C([H])([H])C2(O[H])C(=C([H])[H])C(=O)OC2([H])C2([H])C1([H])C(=C([H])[H])C([H])([H])C1([H])OC13C([H])([H])C([H])([H])C1(C([H])([H])[H])OC(=O)C([H])([H])C([H])([H])C1([H])C23C([H])([H])[H]

$$$$
0:0:1
     RDKit          3D

 61 66  0  0  1  0  0  0  0  0999 V2000
    2.7561    0.9212    2.7808 C   0  0  0  0  0  0  0  0  0  0  0  0
    2.4824   -0.3393    2.3904 C   0  0  0  0  0  0  0  0  0  0  0  0
    1.1764   -0.9582    2.8056 C   0  0  0  0  0  0  0  0  0  0  0  0
    1.3691   -1.9337    3.9241 C   0  0  1  0  0  0  0  0  0  0  0  0
    0.9955   -3.2641    3.5707 O   0  0  0  0  0  0  0  0  0  0  0  0
    2.3561   -3.0899    3.9783 C   0  0  2  0  0  0  0  0  0  0  0  0
    2.6629   -3.6748    5.3659 C   0  0  0  0  0  0  0  0  0  0  0  0
    3.0830   -5.1585    5.3571 C   0  0  0  0  0  0  0  0  0  0  0  0
    2.6547   -5.8620    4.0638 C   0  0  2  0  0  0  0  0  0  0  0  0
    1.0994   -6.0312    4.0587 C   0  0  0  0  0  0  0  0  0  0  0  0
    3.2102   -7.1816    4.1057 O   0  0  0  0  0  0  0  0  0  0  0  0
    3.2256   -7.9855    3.0119 C   0  0  0  0  0  0  0  0  0  0  0  0
    3.7173   -9.1080    2.9957 O   0  0  0  0  0  0  0  0  0  0  0  0
    2.5515   -7.3961    1.7670 C   0  0  0  0  0  0  0  0  0  0  0  0
    2.8620   -5.8933    1.5441 C   0  0  0  0  0  0  0  0  0  0  0  0
    3.3138   -5.1340    2.8323 C   0  0  1  0  0  0  0  0  0  0  0  0
    3.3931   -3.5236    2.9032 C   0  0  2  0  0  0  0  0  0  0  0  0
    4.7984   -3.1396    3.4283 C   0  0  0  0  0  0  0  0  0  0  0  0
    3.2508   -2.7555    1.5066 C   0  0  1  0  0  0  0  0  0  0  0  0
    3.3737   -1.1711    1.4536 C   0  0  2  0  0  0  0  0  0  0  0  0
    4.7965   -0.5715    1.2048 C   0  0  1  0  0  0  0  0  0  0  0  0
    5.5205   -0.2991    2.3918 O   0  0  0  0  0  0  0  0  0  0  0  0
    5.7181   -1.4077    0.3134 C   0  0  0  0  0  0  0  0  0  0  0  0
    5.0128   -2.4842   -0.5174 C   0  0  2  0  0  0  0  0  0  0  0  0
    6.0625   -3.2790   -1.0412 O   0  0  0  0  0  0  0  0  0  0  0  0
    4.1390   -2.0375   -1.6590 C   0  0  0  0  0  0  0  0  0  0  0  0
    4.2268   -0.9377   -2.4255 C   0  0  0  0  0  0  0  0  0  0  0  0
    3.0332   -2.9824   -1.7342 C   0  0  0  0  0  0  0  0  0  0  0  0
    2.2010   -3.0541   -2.6361 O   0  0  0  0  0  0  0  0  0  0  0  0
    3.1281   -3.7998   -0.6738 O   0  0  0  0  0  0  0  0  0  0  0  0
    4.0775   -3.3877    0.3180 C   0  0  2  0  0  0  0  0  0  0  0  0
    3.6432    1.4358    2.4718 H   0  0  0  0  0  0  0  0  0  0  0  0
    2.0815    1.4698    3.4189 H   0  0  0  0  0  0  0  0  0  0  0  0
    0.4978   -0.1829    3.1650 H   0  0  0  0  0  0  0  0  0  0  0  0
    0.6730   -1.4276    1.9616 H   0  0  0  0  0  0  0  0  0  0  0  0
    0.9609   -1.5983    4.8749 H   0  0  0  0  0  0  0  0  0  0  0  0
    3.4214   -3.0672    5.8651 H   0  0  0  0  0  0  0  0  0  0  0  0
    1.7624   -3.5796    5.9758 H   0  0  0  0  0  0  0  0  0  0  0  0
    4.1662   -5.2349    5.4653 H   0  0  0  0  0  0  0  0  0  0  0  0
    2.6741   -5.6708    6.2312 H   0  0  0  0  0  0  0  0  0  0  0  0
    0.6027   -5.4102    4.8043 H   0  0  0  0  0  0  0  0  0  0  0  0
    0.8038   -7.0528    4.2956 H   0  0  0  0  0  0  0  0  0  0  0  0
    0.6508   -5.7835    3.0973 H   0  0  0  0  0  0  0  0  0  0  0  0
    2.8425   -7.9863    0.8973 H   0  0  0  0  0  0  0  0  0  0  0  0
    1.4790   -7.5338    1.8882 H   0  0  0  0  0  0  0  0  0  0  0  0
    3.6698   -5.9118    0.8138 H   0  0  0  0  0  0  0  0  0  0  0  0
    2.0082   -5.4120    1.0698 H   0  0  0  0  0  0  0  0  0  0  0  0
    4.3607   -5.4283    2.8926 H   0  0  0  0  0  0  0  0  0  0  0  0
    5.5452   -3.1781    2.6367 H   0  0  0  0  0  0  0  0  0  0  0  0
    5.1657   -3.7922    4.2171 H   0  0  0  0  0  0  0  0  0  0  0  0
    4.7866   -2.1354    3.8506 H   0  0  0  0  0  0  0  0  0  0  0  0
    2.2098   -2.9433    1.2446 H   0  0  0  0  0  0  0  0  0  0  0  0
    2.8646   -0.9475    0.5151 H   0  0  0  0  0  0  0  0  0  0  0  0
    4.6600    0.3840    0.6961 H   0  0  0  0  0  0  0  0  0  0  0  0
    6.4116   -0.0557    2.1690 H   0  0  0  0  0  0  0  0  0  0  0  0
    6.3114   -0.7543   -0.3221 H   0  0  0  0  0  0  0  0  0  0  0  0
    6.4453   -1.9267    0.9422 H   0  0  0  0  0  0  0  0  0  0  0  0
    5.6799   -3.9982   -1.5264 H   0  0  0  0  0  0  0  0  0  0  0  0
    5.0320   -0.2285   -2.3104 H   0  0  0  0  0  0  0  0  0  0  0  0
    3.4823   -0.7246   -3.1829 H   0  0  0  0  0  0  0  0  0  0  0  0
    4.6834   -4.2094    0.6950 H   0  0  0  0  0  0  0  0  0  0  0  0
  1  2  2  0
  1 32  1  0
  1 33  1  0
  2 20  1  0
  2  3  1  0
  3  4  1  0
  3 34  1  0
  3 35  1  0
  4  6  1  0
  4  5  1  0
  4 36  1  1
  6  5  1  6
  6 17  1  0
  6  7  1  0
  7  8  1  0
  7 37  1  0
  7 38  1  0
  8  9  1  0
  8 39  1  0
  8 40  1  0
  9 16  1  0
  9 10  1  6
  9 11  1  0
 10 41  1  0
 10 42  1  0
 10 43  1  0
 11 12  1  0
 12 13  2  0
 12 14  1  0
 14 15  1  0
 14 44  1  0
 14 45  1  0
 15 16  1  0
 15 46  1  0
 15 47  1  0
 16 17  1  0
 16 48  1  1
 17 18  1  1
 17 19  1  0
 18 49  1  0
 18 50  1  0
 18 51  1  0
 19 31  1  0
 19 20  1  0
 19 52  1  6
 20 21  1  0
 20 53  1  6
 21 22  1  0
 21 23  1  0
 21 54  1  6
 22 55  1  0
 23 24  1  0
 23 56  1  0
 23 57  1  0
 24 31  1  0
 24 25  1  6
 24 26  1  0
 25 58  1  0
 26 27  2  0
 26 28  1  0
 27 59  1  0
 27 60  1  0
 28 29  2  0
 28 30  1  0
 30 31  1  0
 31 61  1  1
M  END
>  <i_m_ct_stereo_status>  (2) 
1

>  <s_m_source_file>  (2) 
/var/tmp/pbs.5076255.sched01/tmplremgrqo/0ygzoxw5b.sdf

>  <i_m_source_file_index>  (2) 
1

>  <i_lp_mmshare_version>  (2) 
48012

>  <i_f3d_flags>  (2) 
0

>  <s_epik_input>  (2) 
TzFbQ0BASF0oW0NAXTEyMylbQ0gyXUMoPVtDSDJdKVtDQEBIXTRbQ0BASF0oW0NAQEhdNVtDQEBdKFtPSF0pKEMoPVtDSDJdKUMoPU8pTzUpW0NIMl1bQ0BASF00W09IXSlbQ0BdMyhbQ0gzXSlbQ0BIXTZbQ0BdKFtDSDNdKShbQ0gyXVtDSDJdMilPQyg9TylbQ0gyXVtDSDJdNg==

>  <s_epik_cmdline>  (2) 
J2VwaWtfcHl0aG9uJywgJy1waHQnLCAnMi4wJywgJy1waCcsICc3LjAnLCAnLXRuJywgJzgnLCAnLW1hJywgJzIwMCcsICctaW1hZScsICc8aW5maWxlLm1hZT4nLCAnLW9tYWUnLCAnPG91dGZpbGUubWFlPic=

>  <r_lp_tautomer_probability>  (2) 
1

>  <r_epik_Ionization_Penalty>  (2) 
4.231e-05

>  <r_epik_Ionization_Penalty_Charging>  (2) 
0

>  <r_epik_Ionization_Penalty_Neutral>  (2) 
4.231e-05

>  <r_epik_State_Penalty>  (2) 
-0

>  <r_epik_Charging_Adjusted_Penalty>  (2) 
0

>  <i_epik_Tot_Q>  (2) 
0

>  <i_epik_Tot_abs_Q>  (2) 
0

>  <s_epik_Chemistry_Notes>  (2) 
This compound has an ester and may undergo hydrolysis at high or low pH.

>  <s_lp_Force_Field>  (2) 
OPLS3e

>  <r_lp_Energy>  (2) 
82.5518

>  <b_lp_Chiralities_Consistent>  (2) 
1

>  <s_lp_Variant>  (2) 
0:0-1

>  <s_i_glide_gridfile>  (2) 
pfpi4k_grid

>  <i_i_glide_lignum>  (2) 
1

>  <i_i_glide_rotatable_bonds>  (2) 
2

>  <r_i_docking_score>  (2) 
-2.8547

>  <r_i_glide_ligand_efficiency>  (2) 
-0.0920872

>  <r_i_glide_ligand_efficiency_sa>  (2) 
-0.289281

>  <r_i_glide_ligand_efficiency_ln>  (2) 
-0.643823

>  <r_i_glide_gscore>  (2) 
-2.8547

>  <r_i_glide_lipo>  (2) 
-0.283748

>  <r_i_glide_hbond>  (2) 
-0.457347

>  <r_i_glide_metal>  (2) 
-0

>  <r_i_glide_rewards>  (2) 
-0.473926

>  <r_i_glide_evdw>  (2) 
-32.4883

>  <r_i_glide_ecoul>  (2) 
-0.0545274

>  <r_i_glide_erotb>  (2) 
0

>  <r_i_glide_esite>  (2) 
-0.00709032

>  <r_i_glide_emodel>  (2) 
-37.7844

>  <r_i_glide_energy>  (2) 
-32.5428

>  <r_i_glide_einternal>  (2) 
0.585923

>  <r_i_glide_intrahb_reward>  (2) 
-0

>  <i_i_glide_confnum>  (2) 
1

>  <i_i_glide_posenum>  (2) 
15

>  <r_i_glide_eff_state_penalty>  (2) 
0

>  <ligand_id>  (2) 
0

>  <original_smiles>  (2) 
C=C1CC2OC23CCC2(C)OC(=O)CCC2C3(C)C2C1C(O)CC1(O)C(=C)C(=O)OC21

>  <smiles>  (2) 
[H]OC1([H])C([H])([H])C2(O[H])C(=C([H])[H])C(=O)OC2([H])C2([H])C1([H])C(=C([H])[H])C([H])([H])C1([H])OC13C([H])([H])C([H])([H])C1(C([H])([H])[H])OC(=O)C([H])([H])C([H])([H])C1([H])C23C([H])([H])[H]

$$$$
0:0:2
     RDKit          3D

 61 66  0  0  1  0  0  0  0  0999 V2000
    2.6347    0.8592    2.7914 C   0  0  0  0  0  0  0  0  0  0  0  0
    2.3979   -0.4104    2.4069 C   0  0  0  0  0  0  0  0  0  0  0  0
    1.1167   -1.0713    2.8377 C   0  0  0  0  0  0  0  0  0  0  0  0
    1.3493   -2.0436    3.9490 C   0  0  1  0  0  0  0  0  0  0  0  0
    1.0128   -3.3845    3.5939 O   0  0  0  0  0  0  0  0  0  0  0  0
    2.3717   -3.1729    3.9896 C   0  0  2  0  0  0  0  0  0  0  0  0
    2.7092   -3.7486    5.3715 C   0  0  0  0  0  0  0  0  0  0  0  0
    3.1741   -5.2184    5.3555 C   0  0  0  0  0  0  0  0  0  0  0  0
    2.7536   -5.9335    4.0655 C   0  0  2  0  0  0  0  0  0  0  0  0
    1.2044   -6.1500    4.0764 C   0  0  0  0  0  0  0  0  0  0  0  0
    3.3502   -7.2351    4.0996 O   0  0  0  0  0  0  0  0  0  0  0  0
    3.3803   -8.0365    3.0032 C   0  0  0  0  0  0  0  0  0  0  0  0
    3.9059   -9.1420    2.9798 O   0  0  0  0  0  0  0  0  0  0  0  0
    2.6759   -7.4658    1.7664 C   0  0  0  0  0  0  0  0  0  0  0  0
    2.9357   -5.9536    1.5447 C   0  0  0  0  0  0  0  0  0  0  0  0
    3.3784   -5.1820    2.8288 C   0  0  1  0  0  0  0  0  0  0  0  0
    3.4085   -3.5715    2.9023 C   0  0  2  0  0  0  0  0  0  0  0  0
    4.8065   -3.1442    3.4141 C   0  0  0  0  0  0  0  0  0  0  0  0
    3.2271   -2.8050    1.5099 C   0  0  1  0  0  0  0  0  0  0  0  0
    3.2985   -1.2176    1.4575 C   0  0  2  0  0  0  0  0  0  0  0  0
    4.6978   -0.5734    1.1974 C   0  0  1  0  0  0  0  0  0  0  0  0
    5.4153   -0.2554    2.3737 O   0  0  0  0  0  0  0  0  0  0  0  0
    5.6400   -1.3779    0.2952 C   0  0  0  0  0  0  0  0  0  0  0  0
    4.9653   -2.4772   -0.5303 C   0  0  2  0  0  0  0  0  0  0  0  0
    6.0311   -3.2440   -1.0643 O   0  0  0  0  0  0  0  0  0  0  0  0
    4.0746   -2.0554   -1.6674 C   0  0  0  0  0  0  0  0  0  0  0  0
    4.1221   -0.9530   -2.4329 C   0  0  0  0  0  0  0  0  0  0  0  0
    2.9922   -3.0269   -1.7320 C   0  0  0  0  0  0  0  0  0  0  0  0
    2.1472   -3.1096   -2.6202 O   0  0  0  0  0  0  0  0  0  0  0  0
    3.1144   -3.8444   -0.6739 O   0  0  0  0  0  0  0  0  0  0  0  0
    4.0608   -3.4101    0.3107 C   0  0  2  0  0  0  0  0  0  0  0  0
    3.4967    1.4113    2.4694 H   0  0  0  0  0  0  0  0  0  0  0  0
    1.9506    1.3813    3.4411 H   0  0  0  0  0  0  0  0  0  0  0  0
    0.4151   -0.3185    3.2035 H   0  0  0  0  0  0  0  0  0  0  0  0
    0.6254   -1.5534    1.9940 H   0  0  0  0  0  0  0  0  0  0  0  0
    0.9385   -1.7267    4.9047 H   0  0  0  0  0  0  0  0  0  0  0  0
    3.4539   -3.1194    5.8653 H   0  0  0  0  0  0  0  0  0  0  0  0
    1.8124   -3.6828    5.9910 H   0  0  0  0  0  0  0  0  0  0  0  0
    4.2604   -5.2630    5.4529 H   0  0  0  0  0  0  0  0  0  0  0  0
    2.7907   -5.7449    6.2328 H   0  0  0  0  0  0  0  0  0  0  0  0
    0.6973   -5.5461    4.8287 H   0  0  0  0  0  0  0  0  0  0  0  0
    0.9438   -7.1808    4.3149 H   0  0  0  0  0  0  0  0  0  0  0  0
    0.7387   -5.9161    3.1203 H   0  0  0  0  0  0  0  0  0  0  0  0
    2.9732   -8.0452    0.8947 H   0  0  0  0  0  0  0  0  0  0  0  0
    1.6097   -7.6368    1.8995 H   0  0  0  0  0  0  0  0  0  0  0  0
    3.7352   -5.9469    0.8059 H   0  0  0  0  0  0  0  0  0  0  0  0
    2.0618   -5.4987    1.0784 H   0  0  0  0  0  0  0  0  0  0  0  0
    4.4350   -5.4460    2.8778 H   0  0  0  0  0  0  0  0  0  0  0  0
    5.5459   -3.1603    2.6148 H   0  0  0  0  0  0  0  0  0  0  0  0
    5.2016   -3.7912    4.1946 H   0  0  0  0  0  0  0  0  0  0  0  0
    4.7633   -2.1470    3.8487 H   0  0  0  0  0  0  0  0  0  0  0  0
    2.1904   -3.0273    1.2588 H   0  0  0  0  0  0  0  0  0  0  0  0
    2.7722   -1.0102    0.5242 H   0  0  0  0  0  0  0  0  0  0  0  0
    4.5232    0.3744    0.6872 H   0  0  0  0  0  0  0  0  0  0  0  0
    5.5804   -1.0562    2.8506 H   0  0  0  0  0  0  0  0  0  0  0  0
    6.2040   -0.7024   -0.3453 H   0  0  0  0  0  0  0  0  0  0  0  0
    6.3933   -1.8695    0.9134 H   0  0  0  0  0  0  0  0  0  0  0  0
    5.6632   -3.9744   -1.5412 H   0  0  0  0  0  0  0  0  0  0  0  0
    4.9026   -0.2157   -2.3223 H   0  0  0  0  0  0  0  0  0  0  0  0
    3.3583   -0.7603   -3.1777 H   0  0  0  0  0  0  0  0  0  0  0  0
    4.6945   -4.2146    0.6776 H   0  0  0  0  0  0  0  0  0  0  0  0
  1  2  2  0
  1 32  1  0
  1 33  1  0
  2 20  1  0
  2  3  1  0
  3  4  1  0
  3 34  1  0
  3 35  1  0
  4  6  1  0
  4  5  1  0
  4 36  1  1
  6  5  1  6
  6 17  1  0
  6  7  1  0
  7  8  1  0
  7 37  1  0
  7 38  1  0
  8  9  1  0
  8 39  1  0
  8 40  1  0
  9 16  1  0
  9 10  1  6
  9 11  1  0
 10 41  1  0
 10 42  1  0
 10 43  1  0
 11 12  1  0
 12 13  2  0
 12 14  1  0
 14 15  1  0
 14 44  1  0
 14 45  1  0
 15 16  1  0
 15 46  1  0
 15 47  1  0
 16 17  1  0
 16 48  1  1
 17 18  1  1
 17 19  1  0
 18 49  1  0
 18 50  1  0
 18 51  1  0
 19 31  1  0
 19 20  1  0
 19 52  1  6
 20 21  1  0
 20 53  1  6
 21 22  1  0
 21 23  1  0
 21 54  1  6
 22 55  1  0
 23 24  1  0
 23 56  1  0
 23 57  1  0
 24 31  1  0
 24 25  1  6
 24 26  1  0
 25 58  1  0
 26 27  2  0
 26 28  1  0
 27 59  1  0
 27 60  1  0
 28 29  2  0
 28 30  1  0
 30 31  1  0
 31 61  1  1
M  END
>  <i_m_ct_stereo_status>  (3) 
1

>  <s_m_source_file>  (3) 
/var/tmp/pbs.5076255.sched01/tmplremgrqo/0ygzoxw5b.sdf

>  <i_m_source_file_index>  (3) 
1

>  <i_lp_mmshare_version>  (3) 
48012

>  <i_f3d_flags>  (3) 
0

>  <s_epik_input>  (3) 
TzFbQ0BASF0oW0NAXTEyMylbQ0gyXUMoPVtDSDJdKVtDQEBIXTRbQ0BASF0oW0NAQEhdNVtDQEBdKFtPSF0pKEMoPVtDSDJdKUMoPU8pTzUpW0NIMl1bQ0BASF00W09IXSlbQ0BdMyhbQ0gzXSlbQ0BIXTZbQ0BdKFtDSDNdKShbQ0gyXVtDSDJdMilPQyg9TylbQ0gyXVtDSDJdNg==

>  <s_epik_cmdline>  (3) 
J2VwaWtfcHl0aG9uJywgJy1waHQnLCAnMi4wJywgJy1waCcsICc3LjAnLCAnLXRuJywgJzgnLCAnLW1hJywgJzIwMCcsICctaW1hZScsICc8aW5maWxlLm1hZT4nLCAnLW9tYWUnLCAnPG91dGZpbGUubWFlPic=

>  <r_lp_tautomer_probability>  (3) 
1

>  <r_epik_Ionization_Penalty>  (3) 
4.231e-05

>  <r_epik_Ionization_Penalty_Charging>  (3) 
0

>  <r_epik_Ionization_Penalty_Neutral>  (3) 
4.231e-05

>  <r_epik_State_Penalty>  (3) 
-0

>  <r_epik_Charging_Adjusted_Penalty>  (3) 
0

>  <i_epik_Tot_Q>  (3) 
0

>  <i_epik_Tot_abs_Q>  (3) 
0

>  <s_epik_Chemistry_Notes>  (3) 
This compound has an ester and may undergo hydrolysis at high or low pH.

>  <s_lp_Force_Field>  (3) 
OPLS3e

>  <r_lp_Energy>  (3) 
82.5518

>  <b_lp_Chiralities_Consistent>  (3) 
1

>  <s_lp_Variant>  (3) 
0:0-1

>  <s_i_glide_gridfile>  (3) 
pfpi4k_grid

>  <i_i_glide_lignum>  (3) 
1

>  <i_i_glide_rotatable_bonds>  (3) 
2

>  <r_i_docking_score>  (3) 
-2.45794

>  <r_i_glide_ligand_efficiency>  (3) 
-0.0792883

>  <r_i_glide_ligand_efficiency_sa>  (3) 
-0.249075

>  <r_i_glide_ligand_efficiency_ln>  (3) 
-0.55434

>  <r_i_glide_gscore>  (3) 
-2.45794

>  <r_i_glide_lipo>  (3) 
-0.275678

>  <r_i_glide_hbond>  (3) 
-0.16581

>  <r_i_glide_metal>  (3) 
-0

>  <r_i_glide_rewards>  (3) 
-0.473926

>  <r_i_glide_evdw>  (3) 
-32.5751

>  <r_i_glide_ecoul>  (3) 
0.590817

>  <r_i_glide_erotb>  (3) 
0

>  <r_i_glide_esite>  (3) 
-0.00238913

>  <r_i_glide_emodel>  (3) 
-36.6776

>  <r_i_glide_energy>  (3) 
-31.9843

>  <r_i_glide_einternal>  (3) 
0.0857467

>  <r_i_glide_intrahb_reward>  (3) 
-0

>  <i_i_glide_confnum>  (3) 
1

>  <i_i_glide_posenum>  (3) 
17

>  <r_i_glide_eff_state_penalty>  (3) 
0

>  <ligand_id>  (3) 
0

>  <original_smiles>  (3) 
C=C1CC2OC23CCC2(C)OC(=O)CCC2C3(C)C2C1C(O)CC1(O)C(=C)C(=O)OC21

>  <smiles>  (3) 
[H]OC1([H])C([H])([H])C2(O[H])C(=C([H])[H])C(=O)OC2([H])C2([H])C1([H])C(=C([H])[H])C([H])([H])C1([H])OC13C([H])([H])C([H])([H])C1(C([H])([H])[H])OC(=O)C([H])([H])C([H])([H])C1([H])C23C([H])([H])[H]

$$$$
1:0:0
     RDKit          3D

 46 50  0  0  1  0  0  0  0  0999 V2000
    3.1472    0.2908   -5.0150 C   0  0  0  0  0  0  0  0  0  0  0  0
    3.7899   -0.7935   -4.1744 C   0  0  2  0  0  0  0  0  0  0  0  0
    3.0484   -2.0693   -3.8683 C   0  0  0  0  0  0  0  0  0  0  0  0
    3.3114   -1.0649   -2.7555 C   0  0  1  0  0  0  0  0  0  0  0  0
    4.3208   -1.4427   -1.7103 C   0  0  0  0  0  0  0  0  0  0  0  0
    5.5324   -1.4811   -1.9234 O   0  0  0  0  0  0  0  0  0  0  0  0
    3.8024   -1.7515   -0.5141 N   0  0  0  0  0  0  0  0  0  0  0  0
    4.5766   -2.2604    0.6281 C   0  0  2  0  0  0  0  0  0  0  0  0
    5.1996   -3.6649    0.3473 C   0  0  1  0  0  0  0  0  0  0  0  0
    6.1020   -4.0829    1.5308 C   0  0  0  0  0  0  0  0  0  0  0  0
    5.2495   -4.1805    2.8130 C   0  0  2  0  0  0  0  0  0  0  0  0
    4.1407   -5.2322    2.6255 C   0  0  0  0  0  0  0  0  0  0  0  0
    3.2454   -4.8089    1.4450 C   0  0  2  0  0  0  0  0  0  0  0  0
    4.0913   -4.7263    0.1587 C   0  0  0  0  0  0  0  0  0  0  0  0
    2.6118   -3.4299    1.7279 C   0  0  0  0  0  0  0  0  0  0  0  0
    3.7130   -2.3458    1.9248 C   0  0  2  0  0  0  0  0  0  0  0  0
    3.1182   -1.0454    2.2455 N   0  0  0  0  0  0  0  0  0  0  0  0
    1.8785   -0.5699    2.0818 C   0  0  0  0  0  0  0  0  0  0  0  0
    1.7244    0.6895    2.4612 N   0  0  0  0  0  0  0  0  0  0  0  0
    3.0036    0.9709    2.8407 C   0  0  0  0  0  0  0  0  0  0  0  0
    3.8809   -0.0275    2.7227 N   0  0  0  0  0  0  0  0  0  0  0  0
    4.6208   -2.8061    3.1077 C   0  0  0  0  0  0  0  0  0  0  0  0
    2.0819    0.3725   -4.7939 H   0  0  0  0  0  0  0  0  0  0  0  0
    3.2625    0.0618   -6.0742 H   0  0  0  0  0  0  0  0  0  0  0  0
    3.6171    1.2526   -4.8098 H   0  0  0  0  0  0  0  0  0  0  0  0
    4.8492   -0.9143   -4.3778 H   0  0  0  0  0  0  0  0  0  0  0  0
    2.0360   -2.1573   -4.2619 H   0  0  0  0  0  0  0  0  0  0  0  0
    3.6179   -2.9966   -3.8730 H   0  0  0  0  0  0  0  0  0  0  0  0
    2.4454   -0.5096   -2.4036 H   0  0  0  0  0  0  0  0  0  0  0  0
    2.8012   -1.6315   -0.4097 H   0  0  0  0  0  0  0  0  0  0  0  0
    5.3882   -1.5492    0.7979 H   0  0  0  0  0  0  0  0  0  0  0  0
    5.8189   -3.6431   -0.5480 H   0  0  0  0  0  0  0  0  0  0  0  0
    6.5790   -5.0411    1.3280 H   0  0  0  0  0  0  0  0  0  0  0  0
    6.9065   -3.3619    1.6668 H   0  0  0  0  0  0  0  0  0  0  0  0
    5.8783   -4.4732    3.6565 H   0  0  0  0  0  0  0  0  0  0  0  0
    4.5850   -6.2108    2.4314 H   0  0  0  0  0  0  0  0  0  0  0  0
    3.5562   -5.3304    3.5419 H   0  0  0  0  0  0  0  0  0  0  0  0
    2.4561   -5.5502    1.3160 H   0  0  0  0  0  0  0  0  0  0  0  0
    3.4581   -4.4785   -0.6941 H   0  0  0  0  0  0  0  0  0  0  0  0
    4.5295   -5.7001   -0.0658 H   0  0  0  0  0  0  0  0  0  0  0  0
    1.9796   -3.1688    0.8824 H   0  0  0  0  0  0  0  0  0  0  0  0
    1.9690   -3.4930    2.6037 H   0  0  0  0  0  0  0  0  0  0  0  0
    1.0684   -1.1587    1.6765 H   0  0  0  0  0  0  0  0  0  0  0  0
    3.2980    1.9398    3.2121 H   0  0  0  0  0  0  0  0  0  0  0  0
    4.0436   -2.8560    4.0326 H   0  0  0  0  0  0  0  0  0  0  0  0
    5.4281   -2.0953    3.2880 H   0  0  0  0  0  0  0  0  0  0  0  0
  1  2  1  0
  1 23  1  0
  1 24  1  0
  1 25  1  0
  2  4  1  0
  2  3  1  0
  2 26  1  1
  3  4  1  0
  3 27  1  0
  3 28  1  0
  4  5  1  0
  4 29  1  1
  5  6  2  0
  5  7  1  0
  7  8  1  0
  7 30  1  0
  8 16  1  0
  8  9  1  0
  8 31  1  1
  9 14  1  0
  9 10  1  0
  9 32  1  6
 10 11  1  0
 10 33  1  0
 10 34  1  0
 11 22  1  0
 11 12  1  0
 11 35  1  1
 12 13  1  0
 12 36  1  0
 12 37  1  0
 13 14  1  0
 13 15  1  0
 13 38  1  6
 14 39  1  0
 14 40  1  0
 15 16  1  0
 15 41  1  0
 15 42  1  0
 16 17  1  1
 16 22  1  0
 17 21  1  0
 17 18  1  0
 18 19  2  0
 18 43  1  0
 19 20  1  0
 20 21  2  0
 20 44  1  0
 22 45  1  0
 22 46  1  0
M  END
>  <i_m_ct_stereo_status>  (4) 
1

>  <s_m_source_file>  (4) 
/var/tmp/pbs.5076255.sched01/tmplremgrqo/0ygzoxw5b.sdf

>  <i_m_source_file_index>  (4) 
2

>  <i_lp_mmshare_version>  (4) 
48012

>  <i_f3d_flags>  (4) 
0

>  <s_epik_input>  (4) 
W0NIM11bQ0BASF0xW0NIMl1bQ0BIXTFDKD1PKVtOSF1bQ0BASF0oW0NAQF0yM240W2NIXW5bY0hdbjQpW0NASF01W0NIMl1bQ0BASF0oW0NIMl0zKVtDSDJdW0NASF0oW0NIMl01KVtDSDJdMg==

>  <s_epik_cmdline>  (4) 
J2VwaWtfcHl0aG9uJywgJy1waHQnLCAnMi4wJywgJy1waCcsICc3LjAnLCAnLXRuJywgJzgnLCAnLW1hJywgJzIwMCcsICctaW1hZScsICc8aW5maWxlLm1hZT4nLCAnLW9tYWUnLCAnPG91dGZpbGUubWFlPic=

>  <r_lp_tautomer_probability>  (4) 
1

>  <r_epik_Ionization_Penalty>  (4) 
0.00017395

>  <r_epik_Ionization_Penalty_Charging>  (4) 
0

>  <r_epik_Ionization_Penalty_Neutral>  (4) 
0.00017395

>  <r_epik_State_Penalty>  (4) 
-0

>  <r_epik_Charging_Adjusted_Penalty>  (4) 
0

>  <i_epik_Tot_Q>  (4) 
0

>  <i_epik_Tot_abs_Q>  (4) 
0

>  <s_lp_Force_Field>  (4) 
OPLS3e

>  <r_lp_Energy>  (4) 
26.1334

>  <b_lp_Chiralities_Consistent>  (4) 
1

>  <s_lp_Variant>  (4) 
1:0-1

>  <s_i_glide_gridfile>  (4) 
pfpi4k_grid

>  <i_i_glide_lignum>  (4) 
2

>  <i_i_glide_rotatable_bonds>  (4) 
4

>  <r_i_docking_score>  (4) 
-3.67815

>  <r_i_glide_ligand_efficiency>  (4) 
-0.167188

>  <r_i_glide_ligand_efficiency_sa>  (4) 
-0.468469

>  <r_i_glide_ligand_efficiency_ln>  (4) 
-0.899073

>  <r_i_glide_gscore>  (4) 
-3.67815

>  <r_i_glide_lipo>  (4) 
-0.564488

>  <r_i_glide_hbond>  (4) 
-0.0996898

>  <r_i_glide_metal>  (4) 
-0

>  <r_i_glide_rewards>  (4) 
-1.37243

>  <r_i_glide_evdw>  (4) 
-30.4163

>  <r_i_glide_ecoul>  (4) 
-5.08614

>  <r_i_glide_erotb>  (4) 
0.814771

>  <r_i_glide_esite>  (4) 
-0.172568

>  <r_i_glide_emodel>  (4) 
-42.7381

>  <r_i_glide_energy>  (4) 
-35.5025

>  <r_i_glide_einternal>  (4) 
2.08546

>  <r_i_glide_intrahb_reward>  (4) 
-0

>  <i_i_glide_confnum>  (4) 
4

>  <i_i_glide_posenum>  (4) 
39

>  <r_i_glide_eff_state_penalty>  (4) 
0

>  <ligand_id>  (4) 
1

>  <original_smiles>  (4) 
CC1CC1C(=O)NC1C2CC3CC(C2)CC1(n1cncn1)C3

>  <smiles>  (4) 
[H]c1nc([H])n(C23C([H])([H])C4([H])C([H])([H])C([H])(C([H])([H])C([H])(C4([H])[H])C2([H])N([H])C(=O)C2([H])C([H])([H])C2([H])C([H])([H])[H])C3([H])[H])n1

$$$$
1:0:1
     RDKit          3D

 46 50  0  0  1  0  0  0  0  0999 V2000
    3.0830    0.1955   -5.1191 C   0  0  0  0  0  0  0  0  0  0  0  0
    3.7917   -0.7432   -4.1676 C   0  0  2  0  0  0  0  0  0  0  0  0
    3.2398   -2.1174   -3.8757 C   0  0  0  0  0  0  0  0  0  0  0  0
    3.2061   -1.0495   -2.7996 C   0  0  1  0  0  0  0  0  0  0  0  0
    4.1353   -1.2197   -1.6438 C   0  0  0  0  0  0  0  0  0  0  0  0
    5.3598   -1.2501   -1.7741 O   0  0  0  0  0  0  0  0  0  0  0  0
    3.5201   -1.3564   -0.4562 N   0  0  0  0  0  0  0  0  0  0  0  0
    4.1995   -1.5935    0.8246 C   0  0  2  0  0  0  0  0  0  0  0  0
    5.0103   -2.9248    0.8289 C   0  0  1  0  0  0  0  0  0  0  0  0
    5.8049   -3.0340    2.1412 C   0  0  0  0  0  0  0  0  0  0  0  0
    4.8325   -3.0584    3.3395 C   0  0  2  0  0  0  0  0  0  0  0  0
    3.8922   -4.2738    3.2096 C   0  0  0  0  0  0  0  0  0  0  0  0
    3.1020   -4.1535    1.8934 C   0  0  2  0  0  0  0  0  0  0  0  0
    4.0696   -4.1402    0.6967 C   0  0  0  0  0  0  0  0  0  0  0  0
    2.2903   -2.8473    1.9011 C   0  0  0  0  0  0  0  0  0  0  0  0
    3.2058   -1.6009    2.0386 C   0  0  2  0  0  0  0  0  0  0  0  0
    2.4195   -0.3645    2.0962 N   0  0  0  0  0  0  0  0  0  0  0  0
    2.7894    0.9022    1.8966 C   0  0  0  0  0  0  0  0  0  0  0  0
    1.8255    1.7877    2.0882 N   0  0  0  0  0  0  0  0  0  0  0  0
    0.8068    0.9478    2.4287 C   0  0  0  0  0  0  0  0  0  0  0  0
    1.1186   -0.3465    2.4945 N   0  0  0  0  0  0  0  0  0  0  0  0
    4.0102   -1.7527    3.3567 C   0  0  0  0  0  0  0  0  0  0  0  0
    1.9996    0.0983   -5.0295 H   0  0  0  0  0  0  0  0  0  0  0  0
    3.3628   -0.0440   -6.1444 H   0  0  0  0  0  0  0  0  0  0  0  0
    3.3635    1.2269   -4.9105 H   0  0  0  0  0  0  0  0  0  0  0  0
    4.8696   -0.6813   -4.2468 H   0  0  0  0  0  0  0  0  0  0  0  0
    2.2864   -2.3968   -4.3201 H   0  0  0  0  0  0  0  0  0  0  0  0
    3.9520   -2.9350   -3.7752 H   0  0  0  0  0  0  0  0  0  0  0  0
    2.2414   -0.6055   -2.5734 H   0  0  0  0  0  0  0  0  0  0  0  0
    2.5029   -1.2779   -0.4597 H   0  0  0  0  0  0  0  0  0  0  0  0
    4.9076   -0.7716    0.9509 H   0  0  0  0  0  0  0  0  0  0  0  0
    5.7336   -2.9525    0.0179 H   0  0  0  0  0  0  0  0  0  0  0  0
    6.4127   -3.9380    2.1338 H   0  0  0  0  0  0  0  0  0  0  0  0
    6.4912   -2.1949    2.2301 H   0  0  0  0  0  0  0  0  0  0  0  0
    5.3940   -3.1418    4.2715 H   0  0  0  0  0  0  0  0  0  0  0  0
    4.4685   -5.2009    3.2125 H   0  0  0  0  0  0  0  0  0  0  0  0
    3.2151   -4.3236    4.0648 H   0  0  0  0  0  0  0  0  0  0  0  0
    2.4191   -5.0001    1.8030 H   0  0  0  0  0  0  0  0  0  0  0  0
    3.5112   -4.0977   -0.2398 H   0  0  0  0  0  0  0  0  0  0  0  0
    4.6441   -5.0660    0.6708 H   0  0  0  0  0  0  0  0  0  0  0  0
    1.7648   -2.7576    0.9561 H   0  0  0  0  0  0  0  0  0  0  0  0
    1.5497   -2.9088    2.6989 H   0  0  0  0  0  0  0  0  0  0  0  0
    3.7947    1.1765    1.6074 H   0  0  0  0  0  0  0  0  0  0  0  0
   -0.1843    1.3019    2.6617 H   0  0  0  0  0  0  0  0  0  0  0  0
    3.3356   -1.7567    4.2128 H   0  0  0  0  0  0  0  0  0  0  0  0
    4.6795   -0.9037    3.4980 H   0  0  0  0  0  0  0  0  0  0  0  0
  1  2  1  0
  1 23  1  0
  1 24  1  0
  1 25  1  0
  2  4  1  0
  2  3  1  0
  2 26  1  1
  3  4  1  0
  3 27  1  0
  3 28  1  0
  4  5  1  0
  4 29  1  1
  5  6  2  0
  5  7  1  0
  7  8  1  0
  7 30  1  0
  8 16  1  0
  8  9  1  0
  8 31  1  1
  9 14  1  0
  9 10  1  0
  9 32  1  6
 10 11  1  0
 10 33  1  0
 10 34  1  0
 11 22  1  0
 11 12  1  0
 11 35  1  1
 12 13  1  0
 12 36  1  0
 12 37  1  0
 13 14  1  0
 13 15  1  0
 13 38  1  6
 14 39  1  0
 14 40  1  0
 15 16  1  0
 15 41  1  0
 15 42  1  0
 16 17  1  1
 16 22  1  0
 17 21  1  0
 17 18  1  0
 18 19  2  0
 18 43  1  0
 19 20  1  0
 20 21  2  0
 20 44  1  0
 22 45  1  0
 22 46  1  0
M  END
>  <i_m_ct_stereo_status>  (5) 
1

>  <s_m_source_file>  (5) 
/var/tmp/pbs.5076255.sched01/tmplremgrqo/0ygzoxw5b.sdf

>  <i_m_source_file_index>  (5) 
2

>  <i_lp_mmshare_version>  (5) 
48012

>  <i_f3d_flags>  (5) 
0

>  <s_epik_input>  (5) 
W0NIM11bQ0BASF0xW0NIMl1bQ0BIXTFDKD1PKVtOSF1bQ0BASF0oW0NAQF0yM240W2NIXW5bY0hdbjQpW0NASF01W0NIMl1bQ0BASF0oW0NIMl0zKVtDSDJdW0NASF0oW0NIMl01KVtDSDJdMg==

>  <s_epik_cmdline>  (5) 
J2VwaWtfcHl0aG9uJywgJy1waHQnLCAnMi4wJywgJy1waCcsICc3LjAnLCAnLXRuJywgJzgnLCAnLW1hJywgJzIwMCcsICctaW1hZScsICc8aW5maWxlLm1hZT4nLCAnLW9tYWUnLCAnPG91dGZpbGUubWFlPic=

>  <r_lp_tautomer_probability>  (5) 
1

>  <r_epik_Ionization_Penalty>  (5) 
0.00017395

>  <r_epik_Ionization_Penalty_Charging>  (5) 
0

>  <r_epik_Ionization_Penalty_Neutral>  (5) 
0.00017395

>  <r_epik_State_Penalty>  (5) 
-0

>  <r_epik_Charging_Adjusted_Penalty>  (5) 
0

>  <i_epik_Tot_Q>  (5) 
0

>  <i_epik_Tot_abs_Q>  (5) 
0

>  <s_lp_Force_Field>  (5) 
OPLS3e

>  <r_lp_Energy>  (5) 
26.1334

>  <b_lp_Chiralities_Consistent>  (5) 
1

>  <s_lp_Variant>  (5) 
1:0-1

>  <s_i_glide_gridfile>  (5) 
pfpi4k_grid

>  <i_i_glide_lignum>  (5) 
2

>  <i_i_glide_rotatable_bonds>  (5) 
4

>  <r_i_docking_score>  (5) 
-3.49336

>  <r_i_glide_ligand_efficiency>  (5) 
-0.158789

>  <r_i_glide_ligand_efficiency_sa>  (5) 
-0.444933

>  <r_i_glide_ligand_efficiency_ln>  (5) 
-0.853904

>  <r_i_glide_gscore>  (5) 
-3.49336

>  <r_i_glide_lipo>  (5) 
-0.535422

>  <r_i_glide_hbond>  (5) 
-0.16

>  <r_i_glide_metal>  (5) 
-0

>  <r_i_glide_rewards>  (5) 
-1.4206

>  <r_i_glide_evdw>  (5) 
-28.6407

>  <r_i_glide_ecoul>  (5) 
-3.55937

>  <r_i_glide_erotb>  (5) 
0.814771

>  <r_i_glide_esite>  (5) 
-0.226162

>  <r_i_glide_emodel>  (5) 
-39.1015

>  <r_i_glide_energy>  (5) 
-32.2

>  <r_i_glide_einternal>  (5) 
1.80396

>  <r_i_glide_intrahb_reward>  (5) 
-0

>  <i_i_glide_confnum>  (5) 
4

>  <i_i_glide_posenum>  (5) 
1

>  <r_i_glide_eff_state_penalty>  (5) 
0

>  <ligand_id>  (5) 
1

>  <original_smiles>  (5) 
CC1CC1C(=O)NC1C2CC3CC(C2)CC1(n1cncn1)C3

>  <smiles>  (5) 
[H]c1nc([H])n(C23C([H])([H])C4([H])C([H])([H])C([H])(C([H])([H])C([H])(C4([H])[H])C2([H])N([H])C(=O)C2([H])C([H])([H])C2([H])C([H])([H])[H])C3([H])[H])n1

$$$$
1:0:2
     RDKit          3D

 46 50  0  0  1  0  0  0  0  0999 V2000
   -0.8059    0.9063    3.2377 C   0  0  0  0  0  0  0  0  0  0  0  0
    0.7050    0.8223    3.2783 C   0  0  2  0  0  0  0  0  0  0  0  0
    1.5280    1.9582    2.7289 C   0  0  0  0  0  0  0  0  0  0  0  0
    1.5157    0.6262    2.0018 C   0  0  1  0  0  0  0  0  0  0  0  0
    2.7960   -0.1427    2.0617 C   0  0  0  0  0  0  0  0  0  0  0  0
    3.5594   -0.0798    3.0222 O   0  0  0  0  0  0  0  0  0  0  0  0
    3.0334   -0.9340    0.9980 N   0  0  0  0  0  0  0  0  0  0  0  0
    4.2054   -1.8018    0.8266 C   0  0  2  0  0  0  0  0  0  0  0  0
    5.0971   -1.3153   -0.3453 C   0  0  1  0  0  0  0  0  0  0  0  0
    6.3820   -2.1756   -0.4101 C   0  0  0  0  0  0  0  0  0  0  0  0
    5.9995   -3.6425   -0.6576 C   0  0  2  0  0  0  0  0  0  0  0  0
    5.2432   -3.7622   -1.9959 C   0  0  0  0  0  0  0  0  0  0  0  0
    3.9595   -2.9142   -1.9188 C   0  0  2  0  0  0  0  0  0  0  0  0
    4.3360   -1.4380   -1.6849 C   0  0  0  0  0  0  0  0  0  0  0  0
    3.0680   -3.4145   -0.7593 C   0  0  0  0  0  0  0  0  0  0  0  0
    3.8153   -3.3056    0.6037 C   0  0  2  0  0  0  0  0  0  0  0  0
    3.0003   -3.8433    1.7083 N   0  0  0  0  0  0  0  0  0  0  0  0
    2.8335   -3.4365    2.9672 C   0  0  0  0  0  0  0  0  0  0  0  0
    2.0260   -4.1888    3.6987 N   0  0  0  0  0  0  0  0  0  0  0  0
    1.7795   -5.1838    2.7942 C   0  0  0  0  0  0  0  0  0  0  0  0
    2.3281   -5.0287    1.5910 N   0  0  0  0  0  0  0  0  0  0  0  0
    5.1145   -4.1529    0.4947 C   0  0  0  0  0  0  0  0  0  0  0  0
   -1.1363    1.3657    2.3045 H   0  0  0  0  0  0  0  0  0  0  0  0
   -1.1759    1.5058    4.0687 H   0  0  0  0  0  0  0  0  0  0  0  0
   -1.2354   -0.0909    3.3093 H   0  0  0  0  0  0  0  0  0  0  0  0
    1.0807    0.3630    4.1904 H   0  0  0  0  0  0  0  0  0  0  0  0
    1.0081    2.7927    2.2624 H   0  0  0  0  0  0  0  0  0  0  0  0
    2.4280    2.2314    3.2797 H   0  0  0  0  0  0  0  0  0  0  0  0
    0.9478    0.5601    1.0747 H   0  0  0  0  0  0  0  0  0  0  0  0
    2.3231   -0.9367    0.2712 H   0  0  0  0  0  0  0  0  0  0  0  0
    4.8276   -1.7530    1.7213 H   0  0  0  0  0  0  0  0  0  0  0  0
    5.3764   -0.2758   -0.1811 H   0  0  0  0  0  0  0  0  0  0  0  0
    7.0307   -1.8523   -1.2218 H   0  0  0  0  0  0  0  0  0  0  0  0
    6.9587   -2.0875    0.5094 H   0  0  0  0  0  0  0  0  0  0  0  0
    6.9059   -4.2496   -0.6954 H   0  0  0  0  0  0  0  0  0  0  0  0
    5.8709   -3.4232   -2.8242 H   0  0  0  0  0  0  0  0  0  0  0  0
    5.0153   -4.8098   -2.2023 H   0  0  0  0  0  0  0  0  0  0  0  0
    3.4087   -3.0102   -2.8570 H   0  0  0  0  0  0  0  0  0  0  0  0
    3.4342   -0.8250   -1.6841 H   0  0  0  0  0  0  0  0  0  0  0  0
    4.9509   -1.0731   -2.5090 H   0  0  0  0  0  0  0  0  0  0  0  0
    2.1599   -2.8190   -0.7349 H   0  0  0  0  0  0  0  0  0  0  0  0
    2.7615   -4.4370   -0.9762 H   0  0  0  0  0  0  0  0  0  0  0  0
    3.3149   -2.5631    3.3891 H   0  0  0  0  0  0  0  0  0  0  0  0
    1.1505   -6.0331    3.0360 H   0  0  0  0  0  0  0  0  0  0  0  0
    4.8821   -5.2065    0.3206 H   0  0  0  0  0  0  0  0  0  0  0  0
    5.6826   -4.1140    1.4250 H   0  0  0  0  0  0  0  0  0  0  0  0
  1  2  1  0
  1 23  1  0
  1 24  1  0
  1 25  1  0
  2  4  1  0
  2  3  1  0
  2 26  1  1
  3  4  1  0
  3 27  1  0
  3 28  1  0
  4  5  1  0
  4 29  1  6
  5  6  2  0
  5  7  1  0
  7  8  1  0
  7 30  1  0
  8 16  1  0
  8  9  1  0
  8 31  1  1
  9 14  1  0
  9 10  1  0
  9 32  1  1
 10 11  1  0
 10 33  1  0
 10 34  1  0
 11 22  1  0
 11 12  1  0
 11 35  1  6
 12 13  1  0
 12 36  1  0
 12 37  1  0
 13 14  1  0
 13 15  1  0
 13 38  1  6
 14 39  1  0
 14 40  1  0
 15 16  1  0
 15 41  1  0
 15 42  1  0
 16 17  1  1
 16 22  1  0
 17 21  1  0
 17 18  1  0
 18 19  2  0
 18 43  1  0
 19 20  1  0
 20 21  2  0
 20 44  1  0
 22 45  1  0
 22 46  1  0
M  END
>  <i_m_ct_stereo_status>  (6) 
1

>  <s_m_source_file>  (6) 
/var/tmp/pbs.5076255.sched01/tmplremgrqo/0ygzoxw5b.sdf

>  <i_m_source_file_index>  (6) 
2

>  <i_lp_mmshare_version>  (6) 
48012

>  <i_f3d_flags>  (6) 
0

>  <s_epik_input>  (6) 
W0NIM11bQ0BASF0xW0NIMl1bQ0BIXTFDKD1PKVtOSF1bQ0BASF0oW0NAQF0yM240W2NIXW5bY0hdbjQpW0NASF01W0NIMl1bQ0BASF0oW0NIMl0zKVtDSDJdW0NASF0oW0NIMl01KVtDSDJdMg==

>  <s_epik_cmdline>  (6) 
J2VwaWtfcHl0aG9uJywgJy1waHQnLCAnMi4wJywgJy1waCcsICc3LjAnLCAnLXRuJywgJzgnLCAnLW1hJywgJzIwMCcsICctaW1hZScsICc8aW5maWxlLm1hZT4nLCAnLW9tYWUnLCAnPG91dGZpbGUubWFlPic=

>  <r_lp_tautomer_probability>  (6) 
1

>  <r_epik_Ionization_Penalty>  (6) 
0.00017395

>  <r_epik_Ionization_Penalty_Charging>  (6) 
0

>  <r_epik_Ionization_Penalty_Neutral>  (6) 
0.00017395

>  <r_epik_State_Penalty>  (6) 
-0

>  <r_epik_Charging_Adjusted_Penalty>  (6) 
0

>  <i_epik_Tot_Q>  (6) 
0

>  <i_epik_Tot_abs_Q>  (6) 
0

>  <s_lp_Force_Field>  (6) 
OPLS3e

>  <r_lp_Energy>  (6) 
26.1334

>  <b_lp_Chiralities_Consistent>  (6) 
1

>  <s_lp_Variant>  (6) 
1:0-1

>  <s_i_glide_gridfile>  (6) 
pfpi4k_grid

>  <i_i_glide_lignum>  (6) 
2

>  <i_i_glide_rotatable_bonds>  (6) 
4

>  <r_i_docking_score>  (6) 
-2.82511

>  <r_i_glide_ligand_efficiency>  (6) 
-0.128414

>  <r_i_glide_ligand_efficiency_sa>  (6) 
-0.359821

>  <r_i_glide_ligand_efficiency_ln>  (6) 
-0.69056

>  <r_i_glide_gscore>  (6) 
-2.82511

>  <r_i_glide_lipo>  (6) 
-0.215296

>  <r_i_glide_hbond>  (6) 
-0.16

>  <r_i_glide_metal>  (6) 
-0

>  <r_i_glide_rewards>  (6) 
-1.36092

>  <r_i_glide_evdw>  (6) 
-27.1966

>  <r_i_glide_ecoul>  (6) 
-2.96007

>  <r_i_glide_erotb>  (6) 
0.814771

>  <r_i_glide_esite>  (6) 
-0.0998261

>  <r_i_glide_emodel>  (6) 
-35.8276

>  <r_i_glide_energy>  (6) 
-30.1566

>  <r_i_glide_einternal>  (6) 
0.782071

>  <r_i_glide_intrahb_reward>  (6) 
-0

>  <i_i_glide_confnum>  (6) 
4

>  <i_i_glide_posenum>  (6) 
2

>  <r_i_glide_eff_state_penalty>  (6) 
0

>  <ligand_id>  (6) 
1

>  <original_smiles>  (6) 
CC1CC1C(=O)NC1C2CC3CC(C2)CC1(n1cncn1)C3

>  <smiles>  (6) 
[H]c1nc([H])n(C23C([H])([H])C4([H])C([H])([H])C([H])(C([H])([H])C([H])(C4([H])[H])C2([H])N([H])C(=O)C2([H])C([H])([H])C2([H])C([H])([H])[H])C3([H])[H])n1

$$$$
2:0:0
     RDKit          3D

 13 14  0  0  1  0  0  0  0  0999 V2000
   -0.4326   -1.0707    4.5072 C   0  0  0  0  0  0  0  0  0  0  0  0
    0.0225   -0.0109    3.6807 C   0  0  0  0  0  0  0  0  0  0  0  0
   -0.2416    1.2793    3.8865 N   0  0  0  0  0  0  0  0  0  0  0  0
   -0.9998    1.4479    5.0037 N   0  0  0  0  0  0  0  0  0  0  0  0
   -1.4542    2.6406    5.5337 C   0  0  0  0  0  0  0  0  0  0  0  0
   -2.1639    2.3183    6.6592 C   0  0  0  0  0  0  0  0  0  0  0  0
   -2.1733    0.9434    6.8663 N   0  0  0  0  0  0  0  0  0  0  0  0
   -1.4710    0.4195    5.8572 C   0  0  0  0  0  0  0  0  0  0  0  0
   -1.1822   -0.8698    5.5887 N   0  0  0  0  0  0  0  0  0  0  0  0
   -0.1823   -2.1001    4.2637 H   0  0  0  0  0  0  0  0  0  0  0  0
    0.6167   -0.2410    2.8015 H   0  0  0  0  0  0  0  0  0  0  0  0
   -1.2060    3.5673    5.0421 H   0  0  0  0  0  0  0  0  0  0  0  0
   -2.6756    2.9687    7.3523 H   0  0  0  0  0  0  0  0  0  0  0  0
  1  9  2  0
  1  2  1  0
  1 10  1  0
  2  3  2  0
  2 11  1  0
  3  4  1  0
  4  8  1  0
  4  5  1  0
  5  6  2  0
  5 12  1  0
  6  7  1  0
  6 13  1  0
  7  8  2  0
  8  9  1  0
M  END
>  <i_m_ct_stereo_status>  (7) 
1

>  <s_m_source_file>  (7) 
/var/tmp/pbs.5076255.sched01/tmplremgrqo/0ygzoxw5b.sdf

>  <i_m_source_file_index>  (7) 
3

>  <i_lp_mmshare_version>  (7) 
48012

>  <i_f3d_flags>  (7) 
0

>  <s_epik_input>  (7) 
bjFbY0hdW2NIXW5jKG4xMiluW2NIXVtjSF0y

>  <s_epik_cmdline>  (7) 
J2VwaWtfcHl0aG9uJywgJy1waHQnLCAnMi4wJywgJy1waCcsICc3LjAnLCAnLXRuJywgJzgnLCAnLW1hJywgJzIwMCcsICctaW1hZScsICc8aW5maWxlLm1hZT4nLCAnLW9tYWUnLCAnPG91dGZpbGUubWFlPic=

>  <r_lp_tautomer_probability>  (7) 
1

>  <r_epik_Ionization_Penalty>  (7) 
1.07212e-06

>  <r_epik_Ionization_Penalty_Charging>  (7) 
1.07123e-06

>  <r_epik_Ionization_Penalty_Neutral>  (7) 
8.93947e-10

>  <r_epik_State_Penalty>  (7) 
-0

>  <r_epik_Charging_Adjusted_Penalty>  (7) 
1.07123e-06

>  <i_epik_Tot_Q>  (7) 
0

>  <i_epik_Tot_abs_Q>  (7) 
0

>  <s_lp_Force_Field>  (7) 
OPLS3e

>  <r_lp_Energy>  (7) 
16.7755

>  <b_lp_Chiralities_Consistent>  (7) 
1

>  <s_lp_Variant>  (7) 
2:0-1

>  <s_i_glide_gridfile>  (7) 
pfpi4k_grid

>  <i_i_glide_lignum>  (7) 
3

>  <i_i_glide_rotatable_bonds>  (7) 
0

>  <r_i_docking_score>  (7) 
-3.87484

>  <r_i_glide_ligand_efficiency>  (7) 
-0.430538

>  <r_i_glide_ligand_efficiency_sa>  (7) 
-0.895555

>  <r_i_glide_ligand_efficiency_ln>  (7) 
-1.21194

>  <r_i_glide_gscore>  (7) 
-3.87484

>  <r_i_glide_lipo>  (7) 
-0.0677929

>  <r_i_glide_hbond>  (7) 
-0.16

>  <r_i_glide_metal>  (7) 
-0

>  <r_i_glide_rewards>  (7) 
-2.25

>  <r_i_glide_evdw>  (7) 
-10.1643

>  <r_i_glide_ecoul>  (7) 
-5.42292

>  <r_i_glide_erotb>  (7) 
0

>  <r_i_glide_esite>  (7) 
-0.0753952

>  <r_i_glide_emodel>  (7) 
-20.6603

>  <r_i_glide_energy>  (7) 
-15.5872

>  <r_i_glide_einternal>  (7) 
0

>  <r_i_glide_intrahb_reward>  (7) 
-0

>  <i_i_glide_confnum>  (7) 
2

>  <i_i_glide_posenum>  (7) 
35

>  <r_i_glide_eff_state_penalty>  (7) 
0

>  <ligand_id>  (7) 
2

>  <original_smiles>  (7) 
c1cnn2ccnc2n1

>  <smiles>  (7) 
[H]c1nc2nc([H])c([H])n2nc1[H]

$$$$
2:0:1
     RDKit          3D

 13 14  0  0  1  0  0  0  0  0999 V2000
   -1.2651    1.7073    3.4234 C   0  0  0  0  0  0  0  0  0  0  0  0
   -1.4698    3.1078    3.5158 C   0  0  0  0  0  0  0  0  0  0  0  0
   -1.7917    3.7557    4.6384 N   0  0  0  0  0  0  0  0  0  0  0  0
   -1.8951    2.8865    5.6834 N   0  0  0  0  0  0  0  0  0  0  0  0
   -2.2090    3.1961    6.9942 C   0  0  0  0  0  0  0  0  0  0  0  0
   -2.1932    2.0149    7.6828 C   0  0  0  0  0  0  0  0  0  0  0  0
   -1.8986    0.9436    6.8423 N   0  0  0  0  0  0  0  0  0  0  0  0
   -1.7003    1.4806    5.6336 C   0  0  0  0  0  0  0  0  0  0  0  0
   -1.3789    0.8896    4.4681 N   0  0  0  0  0  0  0  0  0  0  0  0
   -1.0073    1.2564    2.4693 H   0  0  0  0  0  0  0  0  0  0  0  0
   -1.3546    3.7148    2.6213 H   0  0  0  0  0  0  0  0  0  0  0  0
   -2.4013    4.2126    7.2926 H   0  0  0  0  0  0  0  0  0  0  0  0
   -2.3874    1.8523    8.7336 H   0  0  0  0  0  0  0  0  0  0  0  0
  1  9  2  0
  1  2  1  0
  1 10  1  0
  2  3  2  0
  2 11  1  0
  3  4  1  0
  4  8  1  0
  4  5  1  0
  5  6  2  0
  5 12  1  0
  6  7  1  0
  6 13  1  0
  7  8  2  0
  8  9  1  0
M  END
>  <i_m_ct_stereo_status>  (8) 
1

>  <s_m_source_file>  (8) 
/var/tmp/pbs.5076255.sched01/tmplremgrqo/0ygzoxw5b.sdf

>  <i_m_source_file_index>  (8) 
3

>  <i_lp_mmshare_version>  (8) 
48012

>  <i_f3d_flags>  (8) 
0

>  <s_epik_input>  (8) 
bjFbY0hdW2NIXW5jKG4xMiluW2NIXVtjSF0y

>  <s_epik_cmdline>  (8) 
J2VwaWtfcHl0aG9uJywgJy1waHQnLCAnMi4wJywgJy1waCcsICc3LjAnLCAnLXRuJywgJzgnLCAnLW1hJywgJzIwMCcsICctaW1hZScsICc8aW5maWxlLm1hZT4nLCAnLW9tYWUnLCAnPG91dGZpbGUubWFlPic=

>  <r_lp_tautomer_probability>  (8) 
1

>  <r_epik_Ionization_Penalty>  (8) 
1.07212e-06

>  <r_epik_Ionization_Penalty_Charging>  (8) 
1.07123e-06

>  <r_epik_Ionization_Penalty_Neutral>  (8) 
8.93947e-10

>  <r_epik_State_Penalty>  (8) 
-0

>  <r_epik_Charging_Adjusted_Penalty>  (8) 
1.07123e-06

>  <i_epik_Tot_Q>  (8) 
0

>  <i_epik_Tot_abs_Q>  (8) 
0

>  <s_lp_Force_Field>  (8) 
OPLS3e

>  <r_lp_Energy>  (8) 
16.7755

>  <b_lp_Chiralities_Consistent>  (8) 
1

>  <s_lp_Variant>  (8) 
2:0-1

>  <s_i_glide_gridfile>  (8) 
pfpi4k_grid

>  <i_i_glide_lignum>  (8) 
3

>  <i_i_glide_rotatable_bonds>  (8) 
0

>  <r_i_docking_score>  (8) 
-3.82934

>  <r_i_glide_ligand_efficiency>  (8) 
-0.425482

>  <r_i_glide_ligand_efficiency_sa>  (8) 
-0.885039

>  <r_i_glide_ligand_efficiency_ln>  (8) 
-1.19771

>  <r_i_glide_gscore>  (8) 
-3.82934

>  <r_i_glide_lipo>  (8) 
-0.0907193

>  <r_i_glide_hbond>  (8) 
-0.16

>  <r_i_glide_metal>  (8) 
-0

>  <r_i_glide_rewards>  (8) 
-2.30455

>  <r_i_glide_evdw>  (8) 
-12.2718

>  <r_i_glide_ecoul>  (8) 
-4.23155

>  <r_i_glide_erotb>  (8) 
0

>  <r_i_glide_esite>  (8) 
-0.0257475

>  <r_i_glide_emodel>  (8) 
-21.5167

>  <r_i_glide_energy>  (8) 
-16.5034

>  <r_i_glide_einternal>  (8) 
0

>  <r_i_glide_intrahb_reward>  (8) 
-0

>  <i_i_glide_confnum>  (8) 
1

>  <i_i_glide_posenum>  (8) 
30

>  <r_i_glide_eff_state_penalty>  (8) 
0

>  <ligand_id>  (8) 
2

>  <original_smiles>  (8) 
c1cnn2ccnc2n1

>  <smiles>  (8) 
[H]c1nc2nc([H])c([H])n2nc1[H]

$$$$
2:0:2
     RDKit          3D

 13 14  0  0  1  0  0  0  0  0999 V2000
   -1.3141    2.5700    3.8631 C   0  0  0  0  0  0  0  0  0  0  0  0
   -0.4919    1.9208    2.9069 C   0  0  0  0  0  0  0  0  0  0  0  0
   -0.1052    0.6464    2.9782 N   0  0  0  0  0  0  0  0  0  0  0  0
   -0.6146    0.0503    4.0896 N   0  0  0  0  0  0  0  0  0  0  0  0
   -0.4279   -1.2601    4.4875 C   0  0  0  0  0  0  0  0  0  0  0  0
   -1.1233   -1.4109    5.6543 C   0  0  0  0  0  0  0  0  0  0  0  0
   -1.7647   -0.2271    6.0152 N   0  0  0  0  0  0  0  0  0  0  0  0
   -1.4407    0.6608    5.0697 C   0  0  0  0  0  0  0  0  0  0  0  0
   -1.7847    1.9560    4.9446 N   0  0  0  0  0  0  0  0  0  0  0  0
   -1.5825    3.6139    3.7314 H   0  0  0  0  0  0  0  0  0  0  0  0
   -0.1298    2.4895    2.0558 H   0  0  0  0  0  0  0  0  0  0  0  0
    0.1813   -1.9227    3.8910 H   0  0  0  0  0  0  0  0  0  0  0  0
   -1.2138   -2.2943    6.2667 H   0  0  0  0  0  0  0  0  0  0  0  0
  1  9  2  0
  1  2  1  0
  1 10  1  0
  2  3  2  0
  2 11  1  0
  3  4  1  0
  4  8  1  0
  4  5  1  0
  5  6  2  0
  5 12  1  0
  6  7  1  0
  6 13  1  0
  7  8  2  0
  8  9  1  0
M  END
>  <i_m_ct_stereo_status>  (9) 
1

>  <s_m_source_file>  (9) 
/var/tmp/pbs.5076255.sched01/tmplremgrqo/0ygzoxw5b.sdf

>  <i_m_source_file_index>  (9) 
3

>  <i_lp_mmshare_version>  (9) 
48012

>  <i_f3d_flags>  (9) 
0

>  <s_epik_input>  (9) 
bjFbY0hdW2NIXW5jKG4xMiluW2NIXVtjSF0y

>  <s_epik_cmdline>  (9) 
J2VwaWtfcHl0aG9uJywgJy1waHQnLCAnMi4wJywgJy1waCcsICc3LjAnLCAnLXRuJywgJzgnLCAnLW1hJywgJzIwMCcsICctaW1hZScsICc8aW5maWxlLm1hZT4nLCAnLW9tYWUnLCAnPG91dGZpbGUubWFlPic=

>  <r_lp_tautomer_probability>  (9) 
1

>  <r_epik_Ionization_Penalty>  (9) 
1.07212e-06

>  <r_epik_Ionization_Penalty_Charging>  (9) 
1.07123e-06

>  <r_epik_Ionization_Penalty_Neutral>  (9) 
8.93947e-10

>  <r_epik_State_Penalty>  (9) 
-0

>  <r_epik_Charging_Adjusted_Penalty>  (9) 
1.07123e-06

>  <i_epik_Tot_Q>  (9) 
0

>  <i_epik_Tot_abs_Q>  (9) 
0

>  <s_lp_Force_Field>  (9) 
OPLS3e

>  <r_lp_Energy>  (9) 
16.7755

>  <b_lp_Chiralities_Consistent>  (9) 
1

>  <s_lp_Variant>  (9) 
2:0-1

>  <s_i_glide_gridfile>  (9) 
pfpi4k_grid

>  <i_i_glide_lignum>  (9) 
3

>  <i_i_glide_rotatable_bonds>  (9) 
0

>  <r_i_docking_score>  (9) 
-3.70182

>  <r_i_glide_ligand_efficiency>  (9) 
-0.411314

>  <r_i_glide_ligand_efficiency_sa>  (9) 
-0.855567

>  <r_i_glide_ligand_efficiency_ln>  (9) 
-1.15782

>  <r_i_glide_gscore>  (9) 
-3.70182

>  <r_i_glide_lipo>  (9) 
0

>  <r_i_glide_hbond>  (9) 
-0.144178

>  <r_i_glide_metal>  (9) 
-0

>  <r_i_glide_rewards>  (9) 
-2.25

>  <r_i_glide_evdw>  (9) 
-11.5454

>  <r_i_glide_ecoul>  (9) 
-4.49659

>  <r_i_glide_erotb>  (9) 
0

>  <r_i_glide_esite>  (9) 
-0.0558834

>  <r_i_glide_emodel>  (9) 
-20.8889

>  <r_i_glide_energy>  (9) 
-16.042

>  <r_i_glide_einternal>  (9) 
0

>  <r_i_glide_intrahb_reward>  (9) 
-0

>  <i_i_glide_confnum>  (9) 
1

>  <i_i_glide_posenum>  (9) 
14

>  <r_i_glide_eff_state_penalty>  (9) 
0

>  <ligand_id>  (9) 
2

>  <original_smiles>  (9) 
c1cnn2ccnc2n1

>  <smiles>  (9) 
[H]c1nc2nc([H])c([H])n2nc1[H]

$$$$
3:0:0
     RDKit          3D

 92100  0  0  1  0  0  0  0  0999 V2000
   -0.9652   -2.9626   10.8893 C   0  0  0  0  0  0  0  0  0  0  0  0
   -0.4327   -2.8221    9.5661 O   0  0  0  0  0  0  0  0  0  0  0  0
    0.3054   -1.6213    9.4448 C   0  0  0  0  0  0  0  0  0  0  0  0
    0.9721   -1.4357    8.0712 C   0  0  2  0  0  0  0  0  0  0  0  0
    2.5728   -2.0015    7.9955 C   0  0  0  0  0  0  0  0  0  0  0  0
    3.6059   -1.4104    6.7839 C   0  0  2  0  0  0  0  0  0  0  0  0
    4.7126   -0.4069    7.2458 C   0  0  1  0  0  0  0  0  0  0  0  0
    5.9029   -0.6711    6.5098 O   0  0  0  0  0  0  0  0  0  0  0  0
    7.0932   -0.1341    7.0623 C   0  0  0  0  0  0  0  0  0  0  0  0
    4.3533    1.1232    7.1199 C   0  0  0  0  0  0  0  0  0  0  0  0
    2.8331    1.5265    7.0266 C   0  0  2  0  0  0  0  0  0  0  0  0
    2.2214    0.7712    8.1668 C   0  0  1  0  0  0  0  0  0  0  0  0
    1.6511    1.6894    9.1200 O   0  0  0  0  0  0  0  0  0  0  0  0
    1.4507    1.2498   10.4542 C   0  0  0  0  0  0  0  0  0  0  0  0
    1.2155   -0.1963    7.5646 C   0  0  1  0  0  0  0  0  0  0  0  0
    1.0934   -1.3531    6.2248 C   0  0  1  0  0  0  0  0  0  0  0  0
   -0.1497   -1.2195    6.7325 C   0  0  2  0  0  0  0  0  0  0  0  0
   -0.6782    0.1575    6.0123 C   0  0  0  0  0  0  0  0  0  0  0  0
    0.4050    1.2030    5.3359 C   0  0  1  0  0  0  0  0  0  0  0  0
   -0.2566    2.3812    4.6506 C   0  0  2  0  0  0  0  0  0  0  0  0
   -0.8857    2.6436    3.2785 C   0  0  1  0  0  0  0  0  0  0  0  0
   -1.2037    3.9682    2.9049 O   0  0  0  0  0  0  0  0  0  0  0  0
    0.5718    2.4519    3.3207 C   0  0  1  0  0  0  0  0  0  0  0  0
    1.6673    3.3912    3.6579 N   0  0  2  0  0  0  0  0  0  0  0  0
    2.6753    3.5238    2.5615 C   0  0  0  0  0  0  0  0  0  0  0  0
    2.2726    3.0917    5.0499 C   0  0  1  0  0  0  0  0  0  0  0  0
    1.7482    4.3380    5.8402 C   0  0  2  0  0  0  0  0  0  0  0  0
    1.6150    4.5530    7.3569 C   0  0  1  0  0  0  0  0  0  0  0  0
    2.6980    5.1445    8.0410 O   0  0  0  0  0  0  0  0  0  0  0  0
    0.4095    5.4381    7.0489 C   0  0  0  0  0  0  0  0  0  0  0  0
    0.2652    4.6413    5.7549 C   0  0  2  0  0  0  0  0  0  0  0  0
   -0.6500    3.4279    5.7277 C   0  0  1  0  0  0  0  0  0  0  0  0
   -1.9807    3.9241    5.5884 O   0  0  0  0  0  0  0  0  0  0  0  0
   -2.9810    2.9365    5.7425 C   0  0  0  0  0  0  0  0  0  0  0  0
    2.0518    1.5597    5.5877 C   0  0  1  0  0  0  0  0  0  0  0  0
    2.9574    0.5412    4.7459 C   0  0  1  0  0  0  0  0  0  0  0  0
    4.1981    1.0552    4.2922 O   0  0  0  0  0  0  0  0  0  0  0  0
    3.1382   -0.9709    5.2617 C   0  0  1  0  0  0  0  0  0  0  0  0
    4.1050   -1.5417    4.3926 O   0  0  0  0  0  0  0  0  0  0  0  0
    1.7808   -1.5373    4.8890 C   0  0  1  0  0  0  0  0  0  0  0  0
    1.8658   -2.9159    4.4847 O   0  0  0  0  0  0  0  0  0  0  0  0
    1.8920   -3.1434    3.0766 C   0  0  0  0  0  0  0  0  0  0  0  0
   -1.6128   -3.8296   10.9527 H   0  0  0  0  0  0  0  0  0  0  0  0
   -1.5466   -2.0912   11.2039 H   0  0  0  0  0  0  0  0  0  0  0  0
   -0.1624   -3.0778   11.6179 H   0  0  0  0  0  0  0  0  0  0  0  0
   -0.3302   -0.7834    9.6618 H   0  0  0  0  0  0  0  0  0  0  0  0
    1.0489   -1.6045   10.2149 H   0  0  0  0  0  0  0  0  0  0  0  0
    3.0448   -1.8615    8.9721 H   0  0  0  0  0  0  0  0  0  0  0  0
    2.5290   -3.0896    7.8992 H   0  0  0  0  0  0  0  0  0  0  0  0
    4.1692   -2.3276    6.6206 H   0  0  0  0  0  0  0  0  0  0  0  0
    4.9371   -0.6390    8.2868 H   0  0  0  0  0  0  0  0  0  0  0  0
    7.9307   -0.4269    6.4347 H   0  0  0  0  0  0  0  0  0  0  0  0
    7.2838   -0.5198    8.0628 H   0  0  0  0  0  0  0  0  0  0  0  0
    7.0816    0.9540    7.0954 H   0  0  0  0  0  0  0  0  0  0  0  0
    4.7339    1.5692    8.0386 H   0  0  0  0  0  0  0  0  0  0  0  0
    4.9675    1.6407    6.3811 H   0  0  0  0  0  0  0  0  0  0  0  0
    2.9245    2.5465    7.3649 H   0  0  0  0  0  0  0  0  0  0  0  0
    2.9671    0.2926    8.7933 H   0  0  0  0  0  0  0  0  0  0  0  0
    1.2673    2.1472   11.0708 H   0  0  0  0  0  0  0  0  0  0  0  0
    2.3951    0.8883   10.8814 H   0  0  0  0  0  0  0  0  0  0  0  0
    0.6494    0.5854   10.5614 H   0  0  0  0  0  0  0  0  0  0  0  0
    0.3855    0.3800    7.9908 H   0  0  0  0  0  0  0  0  0  0  0  0
    1.0158   -2.4733    6.3019 H   0  0  0  0  0  0  0  0  0  0  0  0
   -0.8207   -2.0626    6.6160 H   0  0  0  0  0  0  0  0  0  0  0  0
   -1.3662   -0.1350    5.2218 H   0  0  0  0  0  0  0  0  0  0  0  0
   -1.3393    0.7042    6.6989 H   0  0  0  0  0  0  0  0  0  0  0  0
    0.4563    0.5879    4.4798 H   0  0  0  0  0  0  0  0  0  0  0  0
   -1.5098    1.8661    2.8444 H   0  0  0  0  0  0  0  0  0  0  0  0
   -0.8763    4.1120    2.0070 H   0  0  0  0  0  0  0  0  0  0  0  0
    0.9428    1.6057    2.7468 H   0  0  0  0  0  0  0  0  0  0  0  0
    3.0798    2.5510    2.3613 H   0  0  0  0  0  0  0  0  0  0  0  0
    3.4555    4.2040    2.8701 H   0  0  0  0  0  0  0  0  0  0  0  0
    2.1943    3.9069    1.6739 H   0  0  0  0  0  0  0  0  0  0  0  0
    3.3378    3.2417    4.9599 H   0  0  0  0  0  0  0  0  0  0  0  0
    2.2796    5.2196    5.4724 H   0  0  0  0  0  0  0  0  0  0  0  0
    1.2273    3.6891    7.8969 H   0  0  0  0  0  0  0  0  0  0  0  0
    2.8968    5.9670    7.6027 H   0  0  0  0  0  0  0  0  0  0  0  0
   -0.4338    5.3059    7.7310 H   0  0  0  0  0  0  0  0  0  0  0  0
    0.6620    6.4917    6.8784 H   0  0  0  0  0  0  0  0  0  0  0  0
    0.0910    5.3213    4.9327 H   0  0  0  0  0  0  0  0  0  0  0  0
   -0.6127    2.9163    6.6971 H   0  0  0  0  0  0  0  0  0  0  0  0
   -3.9790    3.3569    5.6801 H   0  0  0  0  0  0  0  0  0  0  0  0
   -2.8962    2.4214    6.7006 H   0  0  0  0  0  0  0  0  0  0  0  0
   -2.9114    2.2145    4.9347 H   0  0  0  0  0  0  0  0  0  0  0  0
    2.5021    0.4755    3.7634 H   0  0  0  0  0  0  0  0  0  0  0  0
    4.0575    1.7107    3.6225 H   0  0  0  0  0  0  0  0  0  0  0  0
    3.8099   -1.4143    3.4983 H   0  0  0  0  0  0  0  0  0  0  0  0
    1.2373   -1.0851    4.0759 H   0  0  0  0  0  0  0  0  0  0  0  0
    1.9718   -4.2121    2.8651 H   0  0  0  0  0  0  0  0  0  0  0  0
    2.7447   -2.6609    2.6001 H   0  0  0  0  0  0  0  0  0  0  0  0
    0.9926   -2.7694    2.5886 H   0  0  0  0  0  0  0  0  0  0  0  0
    1.2237    4.3093    3.7388 H   0  0  0  0  0  0  0  0  0  0  0  0
  1  2  1  0
  1 43  1  0
  1 44  1  0
  1 45  1  0
  2  3  1  0
  4  3  1  1
  3 46  1  0
  3 47  1  0
  4 15  1  0
  4 17  1  0
  4  5  1  0
  5  6  1  0
  5 48  1  0
  5 49  1  0
  6 38  1  0
  6  7  1  0
  6 50  1  6
  7  8  1  0
  7 10  1  0
  7 51  1  1
  8  9  1  0
  9 52  1  0
  9 53  1  0
  9 54  1  0
 10 11  1  0
 10 55  1  0
 10 56  1  0
 11 35  1  0
 11 12  1  0
 11 57  1  1
 12 13  1  0
 12 15  1  0
 12 58  1  1
 13 14  1  0
 14 59  1  0
 14 60  1  0
 14 61  1  0
 15 16  1  0
 15 62  1  6
 16 40  1  0
 16 17  1  0
 16 63  1  1
 17 18  1  0
 17 64  1  6
 18 19  1  0
 18 65  1  0
 18 66  1  0
 19 35  1  0
 19 20  1  0
 19 67  1  6
 20 23  1  0
 20 32  1  0
 20 21  1  6
 21 22  1  0
 21 23  1  0
 21 68  1  6
 22 69  1  0
 23 24  1  0
 23 70  1  6
 24 25  1  0
 24 26  1  0
 24 92  1  1
 25 71  1  0
 25 72  1  0
 25 73  1  0
 26 27  1  0
 26 35  1  0
 26 74  1  6
 27 31  1  0
 27 28  1  0
 27 75  1  6
 28 29  1  0
 28 30  1  0
 28 76  1  1
 29 77  1  0
 30 31  1  0
 30 78  1  0
 30 79  1  0
 31 32  1  0
 31 80  1  6
 32 33  1  0
 32 81  1  1
 33 34  1  0
 34 82  1  0
 34 83  1  0
 34 84  1  0
 35 36  1  6
 36 37  1  0
 36 38  1  0
 36 85  1  6
 37 86  1  0
 38 39  1  6
 38 40  1  0
 39 87  1  0
 40 41  1  0
 40 88  1  6
 41 42  1  0
 42 89  1  0
 42 90  1  0
 42 91  1  0
M  CHG  1  24   1
M  END
>  <i_m_ct_stereo_status>  (10) 
1

>  <s_m_source_file>  (10) 
/var/tmp/pbs.5076255.sched01/tmplremgrqo/0ygzoxw5b.sdf

>  <i_m_source_file_index>  (10) 
4

>  <i_lp_mmshare_version>  (10) 
48012

>  <i_f3d_flags>  (10) 
0

>  <s_epik_input>  (10) 
W0NIM11PW0NIMl1bQ0BAXShbQ0gyXTEpKFtDQEhdMltDSDJdMylbQ0BASF0oW0NAQEhdNE9bQ0gzXSlbQ0BASF0yW0NASF0oT1tDSDNdKVtDQEBdKFtPSF0pKFtDQEBIXTVbT0hdKVtDQEhdMVtDQEBIXShPW0NIM10pW0NIMl1bQ0BIXTRbQ0BAXTUoW0NAQEhdM1tDQF02NzgpW0NAQEhdKE4oW0NIM10pW0NAQEhdN1tDQEBIXTZbT0hdKVtDQEhdOVtDQEhdKFtDSDJdW0NAQEhdOVtPSF0pW0NASF04T1tDSDNd

>  <s_epik_cmdline>  (10) 
J2VwaWtfcHl0aG9uJywgJy1waHQnLCAnMi4wJywgJy1waCcsICc3LjAnLCAnLXRuJywgJzgnLCAnLW1hJywgJzIwMCcsICctaW1hZScsICc8aW5maWxlLm1hZT4nLCAnLW9tYWUnLCAnPG91dGZpbGUubWFlPic=

>  <r_epik_Ionization_Penalty>  (10) 
0.386862

>  <r_epik_Ionization_Penalty_Charging>  (10) 
0.386861

>  <r_epik_Ionization_Penalty_Neutral>  (10) 
3.08446e-07

>  <r_epik_State_Penalty>  (10) 
0.385299

>  <r_epik_Charging_Adjusted_Penalty>  (10) 
0.772161

>  <i_epik_Tot_Q>  (10) 
1

>  <i_epik_Tot_abs_Q>  (10) 
1

>  <s_lp_Force_Field>  (10) 
OPLS3e

>  <r_lp_Energy>  (10) 
482.208

>  <b_lp_Chiralities_Consistent>  (10) 
1

>  <s_lp_Variant>  (10) 
3:0-1

>  <s_i_glide_gridfile>  (10) 
pfpi4k_grid

>  <i_i_glide_lignum>  (10) 
4

>  <i_i_glide_rotatable_bonds>  (10) 
10

>  <r_i_docking_score>  (10) 
-3.11383

>  <r_i_glide_ligand_efficiency>  (10) 
-0.0741388

>  <r_i_glide_ligand_efficiency_sa>  (10) 
-0.257708

>  <r_i_glide_ligand_efficiency_ln>  (10) 
-0.657249

>  <r_i_glide_gscore>  (10) 
-3.11383

>  <r_i_glide_lipo>  (10) 
-0.134209

>  <r_i_glide_hbond>  (10) 
-0.16

>  <r_i_glide_metal>  (10) 
-0

>  <r_i_glide_rewards>  (10) 
0

>  <r_i_glide_evdw>  (10) 
-15.4111

>  <r_i_glide_ecoul>  (10) 
-13.7596

>  <r_i_glide_erotb>  (10) 
0.0596665

>  <r_i_glide_esite>  (10) 
-0.0447843

>  <r_i_glide_emodel>  (10) 
-32.5516

>  <r_i_glide_energy>  (10) 
-29.1708

>  <r_i_glide_einternal>  (10) 
5.733

>  <r_i_glide_intrahb_reward>  (10) 
-0

>  <i_i_glide_confnum>  (10) 
1

>  <i_i_glide_posenum>  (10) 
11

>  <r_i_glide_eff_state_penalty>  (10) 
0

>  <ligand_id>  (10) 
3

>  <original_smiles>  (10) 
COCC12CC3C(OC)CC4C(OC)C1C1C2CC2C56C(O)C5N(C)C(C5C(O)CC5C6OC)C42C(O)C3(O)C1OC

>  <smiles>  (10) 
[H]OC1([H])C([H])([H])C2([H])C([H])(OC([H])([H])[H])C34C([H])(O[H])C3([H])[N+]([H])(C([H])([H])[H])C([H])(C12[H])C12C([H])(O[H])C3(O[H])C([H])(OC([H])([H])[H])C5([H])C([H])(C([H])([H])C41[H])C1(C([H])([H])OC([H])([H])[H])C([H])([H])C3([H])C([H])(OC([H])([H])[H])C([H])([H])C2([H])C([H])(OC([H])([H])[H])C51[H]

$$$$
3:0:1
     RDKit          3D

 92100  0  0  1  0  0  0  0  0999 V2000
    1.1193  -11.7515    4.5793 C   0  0  0  0  0  0  0  0  0  0  0  0
    2.5152  -11.5723    4.4399 O   0  0  0  0  0  0  0  0  0  0  0  0
    3.0247  -10.3466    4.9656 C   0  0  0  0  0  0  0  0  0  0  0  0
    2.4433   -9.1381    4.2575 C   0  0  2  0  0  0  0  0  0  0  0  0
    3.0522   -8.9664    2.6831 C   0  0  0  0  0  0  0  0  0  0  0  0
    2.9884   -7.4410    1.9214 C   0  0  2  0  0  0  0  0  0  0  0  0
    4.3412   -6.6658    1.8235 C   0  0  1  0  0  0  0  0  0  0  0  0
    4.3522   -5.9380    0.5926 O   0  0  0  0  0  0  0  0  0  0  0  0
    5.6312   -5.4645    0.1906 C   0  0  0  0  0  0  0  0  0  0  0  0
    4.6833   -5.6606    2.9866 C   0  0  0  0  0  0  0  0  0  0  0  0
    3.9059   -5.7959    4.3434 C   0  0  2  0  0  0  0  0  0  0  0  0
    4.0765   -7.2488    4.6339 C   0  0  1  0  0  0  0  0  0  0  0  0
    4.7672   -7.4294    5.8751 O   0  0  0  0  0  0  0  0  0  0  0  0
    6.1839   -7.3425    5.7957 C   0  0  0  0  0  0  0  0  0  0  0  0
    2.7108   -7.8669    4.6840 C   0  0  1  0  0  0  0  0  0  0  0  0
    1.2206   -7.8517    3.7556 C   0  0  1  0  0  0  0  0  0  0  0  0
    0.9242   -8.5005    4.9107 C   0  0  2  0  0  0  0  0  0  0  0  0
    0.6694   -7.2469    5.9301 C   0  0  0  0  0  0  0  0  0  0  0  0
    1.1999   -5.7532    5.5327 C   0  0  1  0  0  0  0  0  0  0  0  0
    0.8064   -4.7259    6.5700 C   0  0  2  0  0  0  0  0  0  0  0  0
   -0.4417   -3.8918    6.8534 C   0  0  1  0  0  0  0  0  0  0  0  0
   -0.3891   -2.7845    7.7287 O   0  0  0  0  0  0  0  0  0  0  0  0
    0.3473   -3.5446    5.6446 C   0  0  1  0  0  0  0  0  0  0  0  0
    1.5979   -2.7634    5.4715 N   0  0  2  0  0  0  0  0  0  0  0  0
    1.4425   -1.6499    4.4961 C   0  0  0  0  0  0  0  0  0  0  0  0
    2.7851   -3.6518    5.1921 C   0  0  1  0  0  0  0  0  0  0  0  0
    3.5687   -3.5023    6.5463 C   0  0  2  0  0  0  0  0  0  0  0  0
    4.6648   -4.3902    7.1752 C   0  0  1  0  0  0  0  0  0  0  0  0
    6.0153   -4.0586    6.8837 O   0  0  0  0  0  0  0  0  0  0  0  0
    4.1162   -3.9831    8.5337 C   0  0  0  0  0  0  0  0  0  0  0  0
    2.7898   -3.7386    7.8338 C   0  0  2  0  0  0  0  0  0  0  0  0
    1.7552   -4.8559    7.7774 C   0  0  1  0  0  0  0  0  0  0  0  0
    1.0857   -4.8366    9.0303 O   0  0  0  0  0  0  0  0  0  0  0  0
    0.4502   -6.0711    9.3314 C   0  0  0  0  0  0  0  0  0  0  0  0
    2.4556   -5.1293    4.5668 C   0  0  1  0  0  0  0  0  0  0  0  0
    1.9448   -5.0066    3.0597 C   0  0  1  0  0  0  0  0  0  0  0  0
    2.5197   -3.9312    2.3344 O   0  0  0  0  0  0  0  0  0  0  0  0
    1.7911   -6.3228    2.1534 C   0  0  1  0  0  0  0  0  0  0  0  0
    1.4103   -5.8386    0.8702 O   0  0  0  0  0  0  0  0  0  0  0  0
    0.5531   -6.9443    2.7481 C   0  0  1  0  0  0  0  0  0  0  0  0
   -0.2068   -7.6387    1.7323 O   0  0  0  0  0  0  0  0  0  0  0  0
   -1.4149   -8.2565    2.1752 C   0  0  0  0  0  0  0  0  0  0  0  0
    0.8182  -12.7873    4.3769 H   0  0  0  0  0  0  0  0  0  0  0  0
    0.5880  -11.1073    3.8776 H   0  0  0  0  0  0  0  0  0  0  0  0
    0.7743  -11.5152    5.5881 H   0  0  0  0  0  0  0  0  0  0  0  0
    2.8315  -10.2977    6.0383 H   0  0  0  0  0  0  0  0  0  0  0  0
    4.1015  -10.3441    4.8479 H   0  0  0  0  0  0  0  0  0  0  0  0
    4.0667   -9.3582    2.6343 H   0  0  0  0  0  0  0  0  0  0  0  0
    2.4932   -9.6568    2.0548 H   0  0  0  0  0  0  0  0  0  0  0  0
    2.8241   -7.7939    0.8964 H   0  0  0  0  0  0  0  0  0  0  0  0
    5.1298   -7.4285    1.7502 H   0  0  0  0  0  0  0  0  0  0  0  0
    5.5422   -5.0158   -0.7974 H   0  0  0  0  0  0  0  0  0  0  0  0
    6.3702   -6.2668    0.1329 H   0  0  0  0  0  0  0  0  0  0  0  0
    6.0222   -4.6947    0.8586 H   0  0  0  0  0  0  0  0  0  0  0  0
    5.7334   -5.8577    3.2092 H   0  0  0  0  0  0  0  0  0  0  0  0
    4.7295   -4.6214    2.6716 H   0  0  0  0  0  0  0  0  0  0  0  0
    4.6003   -5.2702    4.9708 H   0  0  0  0  0  0  0  0  0  0  0  0
    4.7372   -7.7840    3.9604 H   0  0  0  0  0  0  0  0  0  0  0  0
    6.5903   -7.4940    6.7942 H   0  0  0  0  0  0  0  0  0  0  0  0
    6.4969   -6.3604    5.4454 H   0  0  0  0  0  0  0  0  0  0  0  0
    6.6129   -8.0987    5.1353 H   0  0  0  0  0  0  0  0  0  0  0  0
    2.7671   -8.0512    5.7805 H   0  0  0  0  0  0  0  0  0  0  0  0
    0.8059   -8.7122    3.1750 H   0  0  0  0  0  0  0  0  0  0  0  0
    0.0521   -9.1445    4.8452 H   0  0  0  0  0  0  0  0  0  0  0  0
   -0.4085   -7.1368    6.0273 H   0  0  0  0  0  0  0  0  0  0  0  0
    0.9784   -7.5322    6.9338 H   0  0  0  0  0  0  0  0  0  0  0  0
    0.3751   -5.6229    4.8794 H   0  0  0  0  0  0  0  0  0  0  0  0
   -1.4149   -4.3841    6.7260 H   0  0  0  0  0  0  0  0  0  0  0  0
    0.3994   -2.8940    8.2677 H   0  0  0  0  0  0  0  0  0  0  0  0
   -0.1829   -3.6572    4.7126 H   0  0  0  0  0  0  0  0  0  0  0  0
    1.1551   -2.0256    3.5164 H   0  0  0  0  0  0  0  0  0  0  0  0
    2.3895   -1.1156    4.4125 H   0  0  0  0  0  0  0  0  0  0  0  0
    0.6838   -0.9560    4.8479 H   0  0  0  0  0  0  0  0  0  0  0  0
    3.4173   -3.1464    4.4572 H   0  0  0  0  0  0  0  0  0  0  0  0
    3.9572   -2.4835    6.5974 H   0  0  0  0  0  0  0  0  0  0  0  0
    4.4928   -5.4627    7.0837 H   0  0  0  0  0  0  0  0  0  0  0  0
    6.1459   -3.1697    7.1971 H   0  0  0  0  0  0  0  0  0  0  0  0
    4.0885   -4.7914    9.2723 H   0  0  0  0  0  0  0  0  0  0  0  0
    4.5532   -3.0512    8.9314 H   0  0  0  0  0  0  0  0  0  0  0  0
    2.3730   -2.7942    8.1683 H   0  0  0  0  0  0  0  0  0  0  0  0
    2.2762   -5.8198    7.6995 H   0  0  0  0  0  0  0  0  0  0  0  0
    0.0400   -6.0316   10.3398 H   0  0  0  0  0  0  0  0  0  0  0  0
    1.1558   -6.9034    9.2952 H   0  0  0  0  0  0  0  0  0  0  0  0
   -0.3630   -6.2674    8.6341 H   0  0  0  0  0  0  0  0  0  0  0  0
    0.9546   -4.5644    3.1043 H   0  0  0  0  0  0  0  0  0  0  0  0
    3.3928   -4.1918    2.0619 H   0  0  0  0  0  0  0  0  0  0  0  0
    2.2139   -5.5897    0.4201 H   0  0  0  0  0  0  0  0  0  0  0  0
   -0.1871   -6.2665    3.1493 H   0  0  0  0  0  0  0  0  0  0  0  0
   -1.9265   -8.6530    1.3051 H   0  0  0  0  0  0  0  0  0  0  0  0
   -2.0761   -7.5470    2.6794 H   0  0  0  0  0  0  0  0  0  0  0  0
   -1.2614   -9.1104    2.8404 H   0  0  0  0  0  0  0  0  0  0  0  0
    1.7778   -2.3466    6.3566 H   0  0  0  0  0  0  0  0  0  0  0  0
  1  2  1  0
  1 43  1  0
  1 44  1  0
  1 45  1  0
  2  3  1  0
  4  3  1  1
  3 46  1  0
  3 47  1  0
  4 15  1  0
  4 17  1  0
  4  5  1  0
  5  6  1  0
  5 48  1  0
  5 49  1  0
  6 38  1  0
  6  7  1  0
  6 50  1  6
  7  8  1  0
  7 10  1  0
  7 51  1  6
  8  9  1  0
  9 52  1  0
  9 53  1  0
  9 54  1  0
 10 11  1  0
 10 55  1  0
 10 56  1  0
 11 35  1  0
 11 12  1  0
 11 57  1  1
 12 13  1  0
 12 15  1  0
 12 58  1  6
 13 14  1  0
 14 59  1  0
 14 60  1  0
 14 61  1  0
 15 16  1  0
 15 62  1  1
 16 40  1  0
 16 17  1  0
 16 63  1  6
 17 18  1  0
 17 64  1  6
 18 19  1  0
 18 65  1  0
 18 66  1  0
 19 35  1  0
 19 20  1  0
 19 67  1  6
 20 23  1  0
 20 32  1  0
 20 21  1  1
 21 22  1  0
 21 23  1  0
 21 68  1  6
 22 69  1  0
 23 24  1  0
 23 70  1  6
 24 25  1  0
 24 26  1  0
 24 92  1  1
 25 71  1  0
 25 72  1  0
 25 73  1  0
 26 27  1  0
 26 35  1  0
 26 74  1  6
 27 31  1  0
 27 28  1  0
 27 75  1  1
 28 29  1  0
 28 30  1  0
 28 76  1  6
 29 77  1  0
 30 31  1  0
 30 78  1  0
 30 79  1  0
 31 32  1  0
 31 80  1  1
 32 33  1  0
 32 81  1  6
 33 34  1  0
 34 82  1  0
 34 83  1  0
 34 84  1  0
 35 36  1  6
 36 37  1  0
 36 38  1  0
 36 85  1  1
 37 86  1  0
 38 39  1  6
 38 40  1  0
 39 87  1  0
 40 41  1  0
 40 88  1  1
 41 42  1  0
 42 89  1  0
 42 90  1  0
 42 91  1  0
M  CHG  1  24   1
M  END
>  <i_m_ct_stereo_status>  (11) 
1

>  <s_m_source_file>  (11) 
/var/tmp/pbs.5076255.sched01/tmplremgrqo/0ygzoxw5b.sdf

>  <i_m_source_file_index>  (11) 
4

>  <i_lp_mmshare_version>  (11) 
48012

>  <i_f3d_flags>  (11) 
0

>  <s_epik_input>  (11) 
W0NIM11PW0NIMl1bQ0BAXShbQ0gyXTEpKFtDQEhdMltDSDJdMylbQ0BASF0oW0NAQEhdNE9bQ0gzXSlbQ0BASF0yW0NASF0oT1tDSDNdKVtDQEBdKFtPSF0pKFtDQEBIXTVbT0hdKVtDQEhdMVtDQEBIXShPW0NIM10pW0NIMl1bQ0BIXTRbQ0BAXTUoW0NAQEhdM1tDQF02NzgpW0NAQEhdKE4oW0NIM10pW0NAQEhdN1tDQEBIXTZbT0hdKVtDQEhdOVtDQEhdKFtDSDJdW0NAQEhdOVtPSF0pW0NASF04T1tDSDNd

>  <s_epik_cmdline>  (11) 
J2VwaWtfcHl0aG9uJywgJy1waHQnLCAnMi4wJywgJy1waCcsICc3LjAnLCAnLXRuJywgJzgnLCAnLW1hJywgJzIwMCcsICctaW1hZScsICc8aW5maWxlLm1hZT4nLCAnLW9tYWUnLCAnPG91dGZpbGUubWFlPic=

>  <r_epik_Ionization_Penalty>  (11) 
0.386862

>  <r_epik_Ionization_Penalty_Charging>  (11) 
0.386861

>  <r_epik_Ionization_Penalty_Neutral>  (11) 
3.08446e-07

>  <r_epik_State_Penalty>  (11) 
0.385299

>  <r_epik_Charging_Adjusted_Penalty>  (11) 
0.772161

>  <i_epik_Tot_Q>  (11) 
1

>  <i_epik_Tot_abs_Q>  (11) 
1

>  <s_lp_Force_Field>  (11) 
OPLS3e

>  <r_lp_Energy>  (11) 
482.208

>  <b_lp_Chiralities_Consistent>  (11) 
1

>  <s_lp_Variant>  (11) 
3:0-1

>  <s_i_glide_gridfile>  (11) 
pfpi4k_grid

>  <i_i_glide_lignum>  (11) 
4

>  <i_i_glide_rotatable_bonds>  (11) 
10

>  <r_i_docking_score>  (11) 
-2.46049

>  <r_i_glide_ligand_efficiency>  (11) 
-0.0585831

>  <r_i_glide_ligand_efficiency_sa>  (11) 
-0.203636

>  <r_i_glide_ligand_efficiency_ln>  (11) 
-0.519346

>  <r_i_glide_gscore>  (11) 
-2.46049

>  <r_i_glide_lipo>  (11) 
-0.14563

>  <r_i_glide_hbond>  (11) 
0

>  <r_i_glide_metal>  (11) 
-0

>  <r_i_glide_rewards>  (11) 
-0.5

>  <r_i_glide_evdw>  (11) 
-21.8612

>  <r_i_glide_ecoul>  (11) 
-5.2097

>  <r_i_glide_erotb>  (11) 
0.0596665

>  <r_i_glide_esite>  (11) 
-1.23123e-05

>  <r_i_glide_emodel>  (11) 
-36.0264

>  <r_i_glide_energy>  (11) 
-27.0709

>  <r_i_glide_einternal>  (11) 
2.31224

>  <r_i_glide_intrahb_reward>  (11) 
-0.5

>  <i_i_glide_confnum>  (11) 
4

>  <i_i_glide_posenum>  (11) 
2

>  <r_i_glide_eff_state_penalty>  (11) 
0

>  <ligand_id>  (11) 
3

>  <original_smiles>  (11) 
COCC12CC3C(OC)CC4C(OC)C1C1C2CC2C56C(O)C5N(C)C(C5C(O)CC5C6OC)C42C(O)C3(O)C1OC

>  <smiles>  (11) 
[H]OC1([H])C([H])([H])C2([H])C([H])(OC([H])([H])[H])C34C([H])(O[H])C3([H])[N+]([H])(C([H])([H])[H])C([H])(C12[H])C12C([H])(O[H])C3(O[H])C([H])(OC([H])([H])[H])C5([H])C([H])(C([H])([H])C41[H])C1(C([H])([H])OC([H])([H])[H])C([H])([H])C3([H])C([H])(OC([H])([H])[H])C([H])([H])C2([H])C([H])(OC([H])([H])[H])C51[H]

$$$$
3:0:2
     RDKit          3D

 92100  0  0  1  0  0  0  0  0999 V2000
    1.9881  -10.7577    5.3808 C   0  0  0  0  0  0  0  0  0  0  0  0
    3.2274  -10.2523    5.8638 O   0  0  0  0  0  0  0  0  0  0  0  0
    3.1824   -8.9083    6.2972 C   0  0  0  0  0  0  0  0  0  0  0  0
    2.8157   -7.9661    5.1497 C   0  0  2  0  0  0  0  0  0  0  0  0
    3.7907   -8.2101    3.8044 C   0  0  0  0  0  0  0  0  0  0  0  0
    3.9655   -6.9643    2.6677 C   0  0  2  0  0  0  0  0  0  0  0  0
    5.3366   -6.2259    2.6934 C   0  0  1  0  0  0  0  0  0  0  0  0
    5.6815   -5.8783    1.3565 O   0  0  0  0  0  0  0  0  0  0  0  0
    7.0724   -5.6302    1.1590 C   0  0  0  0  0  0  0  0  0  0  0  0
    5.4150   -4.9220    3.5746 C   0  0  0  0  0  0  0  0  0  0  0  0
    4.3292   -4.6976    4.6837 C   0  0  2  0  0  0  0  0  0  0  0  0
    4.3605   -6.0020    5.3978 C   0  0  1  0  0  0  0  0  0  0  0  0
    4.7219   -5.8206    6.7722 O   0  0  0  0  0  0  0  0  0  0  0  0
    6.1225   -5.6921    7.0233 C   0  0  0  0  0  0  0  0  0  0  0  0
    2.9941   -6.6247    5.2623 C   0  0  1  0  0  0  0  0  0  0  0  0
    1.7925   -6.9350    4.0144 C   0  0  1  0  0  0  0  0  0  0  0  0
    1.2139   -7.2405    5.2146 C   0  0  2  0  0  0  0  0  0  0  0  0
    0.7308   -5.7888    5.7633 C   0  0  0  0  0  0  0  0  0  0  0  0
    1.4114   -4.4154    5.1500 C   0  0  1  0  0  0  0  0  0  0  0  0
    0.8111   -3.1465    5.7256 C   0  0  2  0  0  0  0  0  0  0  0  0
   -0.4349   -2.3092    5.4668 C   0  0  1  0  0  0  0  0  0  0  0  0
   -0.6856   -1.0602    6.0801 O   0  0  0  0  0  0  0  0  0  0  0  0
    0.6357   -2.2726    4.4199 C   0  0  1  0  0  0  0  0  0  0  0  0
    1.9271   -1.5464    4.3455 N   0  0  2  0  0  0  0  0  0  0  0  0
    2.0525   -0.7592    3.1031 C   0  0  0  0  0  0  0  0  0  0  0  0
    3.1028   -2.4365    4.6246 C   0  0  1  0  0  0  0  0  0  0  0  0
    3.5441   -1.8926    6.0267 C   0  0  2  0  0  0  0  0  0  0  0  0
    4.4349   -2.5250    7.1259 C   0  0  1  0  0  0  0  0  0  0  0  0
    5.8136   -2.2482    7.0958 O   0  0  0  0  0  0  0  0  0  0  0  0
    3.5786   -1.7712    8.1516 C   0  0  0  0  0  0  0  0  0  0  0  0
    2.4690   -1.7904    7.1011 C   0  0  2  0  0  0  0  0  0  0  0  0
    1.4406   -2.9011    7.1171 C   0  0  1  0  0  0  0  0  0  0  0  0
    0.4909   -2.5831    8.1250 O   0  0  0  0  0  0  0  0  0  0  0  0
   -0.1946   -3.7191    8.6246 C   0  0  0  0  0  0  0  0  0  0  0  0
    2.8803   -4.0400    4.3731 C   0  0  1  0  0  0  0  0  0  0  0  0
    2.7719   -4.3426    2.8097 C   0  0  1  0  0  0  0  0  0  0  0  0
    3.5518   -3.4851    1.9951 O   0  0  0  0  0  0  0  0  0  0  0  0
    2.8039   -5.8519    2.2805 C   0  0  1  0  0  0  0  0  0  0  0  0
    2.7964   -5.7182    0.8687 O   0  0  0  0  0  0  0  0  0  0  0  0
    1.4226   -6.3095    2.6946 C   0  0  1  0  0  0  0  0  0  0  0  0
    0.8590   -7.2679    1.7721 O   0  0  0  0  0  0  0  0  0  0  0  0
   -0.0654   -6.7240    0.8235 C   0  0  0  0  0  0  0  0  0  0  0  0
    2.1036  -11.8107    5.1211 H   0  0  0  0  0  0  0  0  0  0  0  0
    1.6728  -10.2390    4.4787 H   0  0  0  0  0  0  0  0  0  0  0  0
    1.1919  -10.6559    6.1157 H   0  0  0  0  0  0  0  0  0  0  0  0
    2.4801   -8.8044    7.1249 H   0  0  0  0  0  0  0  0  0  0  0  0
    4.1607   -8.6532    6.7039 H   0  0  0  0  0  0  0  0  0  0  0  0
    4.7728   -8.5722    4.1221 H   0  0  0  0  0  0  0  0  0  0  0  0
    3.3966   -9.0733    3.2633 H   0  0  0  0  0  0  0  0  0  0  0  0
    4.0347   -7.5909    1.7714 H   0  0  0  0  0  0  0  0  0  0  0  0
    6.0768   -6.9519    3.0444 H   0  0  0  0  0  0  0  0  0  0  0  0
    7.2494   -5.4320    0.1062 H   0  0  0  0  0  0  0  0  0  0  0  0
    7.6902   -6.4848    1.4411 H   0  0  0  0  0  0  0  0  0  0  0  0
    7.4123   -4.7521    1.7115 H   0  0  0  0  0  0  0  0  0  0  0  0
    6.3734   -5.0249    4.0915 H   0  0  0  0  0  0  0  0  0  0  0  0
    5.6053   -4.0226    2.9929 H   0  0  0  0  0  0  0  0  0  0  0  0
    4.8666   -3.9983    5.2950 H   0  0  0  0  0  0  0  0  0  0  0  0
    5.1505   -6.6825    5.0924 H   0  0  0  0  0  0  0  0  0  0  0  0
    6.2809   -5.5444    8.0917 H   0  0  0  0  0  0  0  0  0  0  0  0
    6.5472   -4.8323    6.5094 H   0  0  0  0  0  0  0  0  0  0  0  0
    6.6937   -6.5744    6.7253 H   0  0  0  0  0  0  0  0  0  0  0  0
    2.7735   -6.5100    6.3463 H   0  0  0  0  0  0  0  0  0  0  0  0
    1.4892   -7.9392    3.6171 H   0  0  0  0  0  0  0  0  0  0  0  0
    0.4178   -7.9957    5.1845 H   0  0  0  0  0  0  0  0  0  0  0  0
   -0.3486   -5.7185    5.5902 H   0  0  0  0  0  0  0  0  0  0  0  0
    0.7843   -5.7899    6.8530 H   0  0  0  0  0  0  0  0  0  0  0  0
    0.7553   -4.4737    4.3164 H   0  0  0  0  0  0  0  0  0  0  0  0
   -1.3559   -2.8630    5.2849 H   0  0  0  0  0  0  0  0  0  0  0  0
    0.1038   -0.5337    6.1313 H   0  0  0  0  0  0  0  0  0  0  0  0
    0.3348   -2.6584    3.4607 H   0  0  0  0  0  0  0  0  0  0  0  0
    1.9974   -1.3797    2.2129 H   0  0  0  0  0  0  0  0  0  0  0  0
    3.0040   -0.2257    3.0864 H   0  0  0  0  0  0  0  0  0  0  0  0
    1.2633   -0.0110    3.0387 H   0  0  0  0  0  0  0  0  0  0  0  0
    3.9178   -2.1396    3.9601 H   0  0  0  0  0  0  0  0  0  0  0  0
    3.9567   -0.8906    5.8895 H   0  0  0  0  0  0  0  0  0  0  0  0
    4.2403   -3.5846    7.2889 H   0  0  0  0  0  0  0  0  0  0  0  0
    5.9122   -1.3052    7.1650 H   0  0  0  0  0  0  0  0  0  0  0  0
    3.3391   -2.3566    9.0427 H   0  0  0  0  0  0  0  0  0  0  0  0
    3.9496   -0.7651    8.3722 H   0  0  0  0  0  0  0  0  0  0  0  0
    2.0249   -0.7954    7.0578 H   0  0  0  0  0  0  0  0  0  0  0  0
    1.9434   -3.8246    7.4217 H   0  0  0  0  0  0  0  0  0  0  0  0
   -0.8421   -3.4242    9.4474 H   0  0  0  0  0  0  0  0  0  0  0  0
    0.5003   -4.4685    9.0042 H   0  0  0  0  0  0  0  0  0  0  0  0
   -0.8113   -4.1691    7.8440 H   0  0  0  0  0  0  0  0  0  0  0  0
    1.8176   -3.9321    2.4863 H   0  0  0  0  0  0  0  0  0  0  0  0
    4.4474   -3.7919    2.0110 H   0  0  0  0  0  0  0  0  0  0  0  0
    3.6717   -5.4731    0.5972 H   0  0  0  0  0  0  0  0  0  0  0  0
    0.6387   -5.5706    2.7723 H   0  0  0  0  0  0  0  0  0  0  0  0
   -0.4311   -7.4887    0.1467 H   0  0  0  0  0  0  0  0  0  0  0  0
    0.3880   -5.9538    0.2012 H   0  0  0  0  0  0  0  0  0  0  0  0
   -0.9401   -6.2998    1.3138 H   0  0  0  0  0  0  0  0  0  0  0  0
    1.9260   -0.8867    5.0876 H   0  0  0  0  0  0  0  0  0  0  0  0
  1  2  1  0
  1 43  1  0
  1 44  1  0
  1 45  1  0
  2  3  1  0
  4  3  1  1
  3 46  1  0
  3 47  1  0
  4 15  1  0
  4 17  1  0
  4  5  1  0
  5  6  1  0
  5 48  1  0
  5 49  1  0
  6 38  1  0
  6  7  1  0
  6 50  1  6
  7  8  1  0
  7 10  1  0
  7 51  1  1
  8  9  1  0
  9 52  1  0
  9 53  1  0
  9 54  1  0
 10 11  1  0
 10 55  1  0
 10 56  1  0
 11 35  1  0
 11 12  1  0
 11 57  1  1
 12 13  1  0
 12 15  1  0
 12 58  1  6
 13 14  1  0
 14 59  1  0
 14 60  1  0
 14 61  1  0
 15 16  1  0
 15 62  1  1
 16 40  1  0
 16 17  1  0
 16 63  1  6
 17 18  1  0
 17 64  1  6
 18 19  1  0
 18 65  1  0
 18 66  1  0
 19 35  1  0
 19 20  1  0
 19 67  1  6
 20 23  1  0
 20 32  1  0
 20 21  1  1
 21 22  1  0
 21 23  1  0
 21 68  1  6
 22 69  1  0
 23 24  1  0
 23 70  1  6
 24 25  1  0
 24 26  1  0
 24 92  1  1
 25 71  1  0
 25 72  1  0
 25 73  1  0
 26 27  1  0
 26 35  1  0
 26 74  1  6
 27 31  1  0
 27 28  1  0
 27 75  1  6
 28 29  1  0
 28 30  1  0
 28 76  1  1
 29 77  1  0
 30 31  1  0
 30 78  1  0
 30 79  1  0
 31 32  1  0
 31 80  1  6
 32 33  1  0
 32 81  1  1
 33 34  1  0
 34 82  1  0
 34 83  1  0
 34 84  1  0
 35 36  1  6
 36 37  1  0
 36 38  1  0
 36 85  1  6
 37 86  1  0
 38 39  1  6
 38 40  1  0
 39 87  1  0
 40 41  1  0
 40 88  1  1
 41 42  1  0
 42 89  1  0
 42 90  1  0
 42 91  1  0
M  CHG  1  24   1
M  END
>  <i_m_ct_stereo_status>  (12) 
1

>  <s_m_source_file>  (12) 
/var/tmp/pbs.5076255.sched01/tmplremgrqo/0ygzoxw5b.sdf

>  <i_m_source_file_index>  (12) 
4

>  <i_lp_mmshare_version>  (12) 
48012

>  <i_f3d_flags>  (12) 
0

>  <s_epik_input>  (12) 
W0NIM11PW0NIMl1bQ0BAXShbQ0gyXTEpKFtDQEhdMltDSDJdMylbQ0BASF0oW0NAQEhdNE9bQ0gzXSlbQ0BASF0yW0NASF0oT1tDSDNdKVtDQEBdKFtPSF0pKFtDQEBIXTVbT0hdKVtDQEhdMVtDQEBIXShPW0NIM10pW0NIMl1bQ0BIXTRbQ0BAXTUoW0NAQEhdM1tDQF02NzgpW0NAQEhdKE4oW0NIM10pW0NAQEhdN1tDQEBIXTZbT0hdKVtDQEhdOVtDQEhdKFtDSDJdW0NAQEhdOVtPSF0pW0NASF04T1tDSDNd

>  <s_epik_cmdline>  (12) 
J2VwaWtfcHl0aG9uJywgJy1waHQnLCAnMi4wJywgJy1waCcsICc3LjAnLCAnLXRuJywgJzgnLCAnLW1hJywgJzIwMCcsICctaW1hZScsICc8aW5maWxlLm1hZT4nLCAnLW9tYWUnLCAnPG91dGZpbGUubWFlPic=

>  <r_epik_Ionization_Penalty>  (12) 
0.386862

>  <r_epik_Ionization_Penalty_Charging>  (12) 
0.386861

>  <r_epik_Ionization_Penalty_Neutral>  (12) 
3.08446e-07

>  <r_epik_State_Penalty>  (12) 
0.385299

>  <r_epik_Charging_Adjusted_Penalty>  (12) 
0.772161

>  <i_epik_Tot_Q>  (12) 
1

>  <i_epik_Tot_abs_Q>  (12) 
1

>  <s_lp_Force_Field>  (12) 
OPLS3e

>  <r_lp_Energy>  (12) 
482.208

>  <b_lp_Chiralities_Consistent>  (12) 
1

>  <s_lp_Variant>  (12) 
3:0-1

>  <s_i_glide_gridfile>  (12) 
pfpi4k_grid

>  <i_i_glide_lignum>  (12) 
4

>  <i_i_glide_rotatable_bonds>  (12) 
10

>  <r_i_docking_score>  (12) 
-2.11563

>  <r_i_glide_ligand_efficiency>  (12) 
-0.0503721

>  <r_i_glide_ligand_efficiency_sa>  (12) 
-0.175095

>  <r_i_glide_ligand_efficiency_ln>  (12) 
-0.446555

>  <r_i_glide_gscore>  (12) 
-2.11563

>  <r_i_glide_lipo>  (12) 
-0.135972

>  <r_i_glide_hbond>  (12) 
0

>  <r_i_glide_metal>  (12) 
-0

>  <r_i_glide_rewards>  (12) 
-0.5

>  <r_i_glide_evdw>  (12) 
-20.7958

>  <r_i_glide_ecoul>  (12) 
-3.33008

>  <r_i_glide_erotb>  (12) 
0.0596665

>  <r_i_glide_esite>  (12) 
-1.79109e-05

>  <r_i_glide_emodel>  (12) 
-30.9175

>  <r_i_glide_energy>  (12) 
-24.1259

>  <r_i_glide_einternal>  (12) 
4.27937

>  <r_i_glide_intrahb_reward>  (12) 
-0.5

>  <i_i_glide_confnum>  (12) 
4

>  <i_i_glide_posenum>  (12) 
37

>  <r_i_glide_eff_state_penalty>  (12) 
0

>  <ligand_id>  (12) 
3

>  <original_smiles>  (12) 
COCC12CC3C(OC)CC4C(OC)C1C1C2CC2C56C(O)C5N(C)C(C5C(O)CC5C6OC)C42C(O)C3(O)C1OC

>  <smiles>  (12) 
[H]OC1([H])C([H])([H])C2([H])C([H])(OC([H])([H])[H])C34C([H])(O[H])C3([H])[N+]([H])(C([H])([H])[H])C([H])(C12[H])C12C([H])(O[H])C3(O[H])C([H])(OC([H])([H])[H])C5([H])C([H])(C([H])([H])C41[H])C1(C([H])([H])OC([H])([H])[H])C([H])([H])C3([H])C([H])(OC([H])([H])[H])C([H])([H])C2([H])C([H])(OC([H])([H])[H])C51[H]

$$$$
3:1:0
     RDKit          3D

 91 99  0  0  1  0  0  0  0  0999 V2000
    2.1039    5.9464    3.2653 C   0  0  0  0  0  0  0  0  0  0  0  0
    2.6707    5.3736    4.4194 O   0  0  0  0  0  0  0  0  0  0  0  0
    3.1634    4.0537    4.2245 C   0  0  0  0  0  0  0  0  0  0  0  0
    2.0476    3.0258    4.1388 C   0  0  2  0  0  0  0  0  0  0  0  0
    0.7202    3.4184    5.1293 C   0  0  0  0  0  0  0  0  0  0  0  0
   -0.3580    2.2029    5.6614 C   0  0  2  0  0  0  0  0  0  0  0  0
   -0.2532    1.8028    7.1651 C   0  0  1  0  0  0  0  0  0  0  0  0
   -1.5371    1.4485    7.7020 O   0  0  0  0  0  0  0  0  0  0  0  0
   -2.3701    2.5463    8.0676 C   0  0  0  0  0  0  0  0  0  0  0  0
    0.7055    0.5991    7.4989 C   0  0  0  0  0  0  0  0  0  0  0  0
    1.7866    0.1810    6.4167 C   0  0  2  0  0  0  0  0  0  0  0  0
    2.4449    1.4862    6.0991 C   0  0  1  0  0  0  0  0  0  0  0  0
    3.8370    1.4628    6.4389 O   0  0  0  0  0  0  0  0  0  0  0  0
    4.1281    1.6726    7.8132 C   0  0  0  0  0  0  0  0  0  0  0  0
    2.2364    1.7618    4.6193 C   0  0  1  0  0  0  0  0  0  0  0  0
    0.9266    1.7158    3.4655 C   0  0  1  0  0  0  0  0  0  0  0  0
    2.0696    1.9320    2.7306 C   0  0  2  0  0  0  0  0  0  0  0  0
    2.6610    0.4155    2.5997 C   0  0  0  0  0  0  0  0  0  0  0  0
    2.0996   -0.7751    3.5905 C   0  0  1  0  0  0  0  0  0  0  0  0
    2.7328   -2.1217    3.2840 C   0  0  2  0  0  0  0  0  0  0  0  0
    2.3966   -3.2586    2.3104 C   0  0  1  0  0  0  0  0  0  0  0  0
    3.0565   -4.4919    2.3954 O   0  0  0  0  0  0  0  0  0  0  0  0
    1.4924   -3.0763    3.4978 C   0  0  1  0  0  0  0  0  0  0  0  0
    1.5171   -3.4767    4.8899 N   0  0  0  0  0  0  0  0  0  0  0  0
    0.3629   -4.2688    5.2963 C   0  0  0  0  0  0  0  0  0  0  0  0
    1.7972   -2.3101    5.7711 C   0  0  1  0  0  0  0  0  0  0  0  0
    3.2544   -2.6579    6.2385 C   0  0  2  0  0  0  0  0  0  0  0  0
    4.3558   -1.7608    6.8382 C   0  0  1  0  0  0  0  0  0  0  0  0
    4.4321   -1.6639    8.2485 O   0  0  0  0  0  0  0  0  0  0  0  0
    5.3734   -2.6574    6.1446 C   0  0  0  0  0  0  0  0  0  0  0  0
    4.2657   -2.9926    5.1417 C   0  0  2  0  0  0  0  0  0  0  0  0
    4.1605   -2.1737    3.8549 C   0  0  1  0  0  0  0  0  0  0  0  0
    5.1386   -2.6910    2.9608 O   0  0  0  0  0  0  0  0  0  0  0  0
    5.4692   -1.7940    1.9186 C   0  0  0  0  0  0  0  0  0  0  0  0
    1.4486   -0.8150    5.1817 C   0  0  1  0  0  0  0  0  0  0  0  0
   -0.1329   -0.6316    5.0885 C   0  0  1  0  0  0  0  0  0  0  0  0
   -0.8533   -1.3423    6.0896 O   0  0  0  0  0  0  0  0  0  0  0  0
   -0.7383    0.8409    4.8093 C   0  0  1  0  0  0  0  0  0  0  0  0
   -2.1380    0.6152    4.8738 O   0  0  0  0  0  0  0  0  0  0  0  0
   -0.4447    1.0589    3.3529 C   0  0  1  0  0  0  0  0  0  0  0  0
   -1.4911    1.7763    2.6207 O   0  0  0  0  0  0  0  0  0  0  0  0
   -2.0549    3.0180    3.0082 C   0  0  0  0  0  0  0  0  0  0  0  0
    1.7135    6.9384    3.4957 H   0  0  0  0  0  0  0  0  0  0  0  0
    1.2835    5.3409    2.8735 H   0  0  0  0  0  0  0  0  0  0  0  0
    2.8587    6.0542    2.4781 H   0  0  0  0  0  0  0  0  0  0  0  0
    3.7887    4.0123    3.3357 H   0  0  0  0  0  0  0  0  0  0  0  0
    3.8190    3.8391    5.0682 H   0  0  0  0  0  0  0  0  0  0  0  0
    1.0921    3.9609    5.9996 H   0  0  0  0  0  0  0  0  0  0  0  0
    0.1300    4.1668    4.6043 H   0  0  0  0  0  0  0  0  0  0  0  0
   -1.2724    2.7948    5.6429 H   0  0  0  0  0  0  0  0  0  0  0  0
    0.1112    2.6758    7.7245 H   0  0  0  0  0  0  0  0  0  0  0  0
   -3.2784    2.1719    8.5270 H   0  0  0  0  0  0  0  0  0  0  0  0
   -2.6753    3.1584    7.2207 H   0  0  0  0  0  0  0  0  0  0  0  0
   -1.8722    3.1847    8.7965 H   0  0  0  0  0  0  0  0  0  0  0  0
    1.2555    0.9228    8.3841 H   0  0  0  0  0  0  0  0  0  0  0  0
    0.1628   -0.2564    7.8978 H   0  0  0  0  0  0  0  0  0  0  0  0
    2.4522   -0.3506    7.0733 H   0  0  0  0  0  0  0  0  0  0  0  0
    2.1294    2.2996    6.7266 H   0  0  0  0  0  0  0  0  0  0  0  0
    5.2099    1.6196    7.9497 H   0  0  0  0  0  0  0  0  0  0  0  0
    3.6683    0.9033    8.4409 H   0  0  0  0  0  0  0  0  0  0  0  0
    3.7870    2.6520    8.1694 H   0  0  0  0  0  0  0  0  0  0  0  0
    3.3236    1.6054    4.3822 H   0  0  0  0  0  0  0  0  0  0  0  0
    0.4663    2.5870    2.9341 H   0  0  0  0  0  0  0  0  0  0  0  0
    2.0216    2.4485    1.7785 H   0  0  0  0  0  0  0  0  0  0  0  0
    2.4469    0.0857    1.5810 H   0  0  0  0  0  0  0  0  0  0  0  0
    3.7512    0.4547    2.6017 H   0  0  0  0  0  0  0  0  0  0  0  0
    1.2171   -0.8892    3.0023 H   0  0  0  0  0  0  0  0  0  0  0  0
    2.0452   -2.9929    1.3118 H   0  0  0  0  0  0  0  0  0  0  0  0
    3.8735   -4.4043    1.9095 H   0  0  0  0  0  0  0  0  0  0  0  0
    0.4952   -2.7933    3.2144 H   0  0  0  0  0  0  0  0  0  0  0  0
    0.4582   -4.5605    6.3396 H   0  0  0  0  0  0  0  0  0  0  0  0
    0.2977   -5.1865    4.7127 H   0  0  0  0  0  0  0  0  0  0  0  0
   -0.5724   -3.7266    5.1741 H   0  0  0  0  0  0  0  0  0  0  0  0
    1.2053   -2.4118    6.6739 H   0  0  0  0  0  0  0  0  0  0  0  0
    3.1800   -3.5329    6.8949 H   0  0  0  0  0  0  0  0  0  0  0  0
    4.4309   -0.7739    6.3854 H   0  0  0  0  0  0  0  0  0  0  0  0
    4.4943   -2.5606    8.5751 H   0  0  0  0  0  0  0  0  0  0  0  0
    6.2287   -2.1350    5.7208 H   0  0  0  0  0  0  0  0  0  0  0  0
    5.6626   -3.5297    6.7418 H   0  0  0  0  0  0  0  0  0  0  0  0
    4.2238   -4.0700    4.9532 H   0  0  0  0  0  0  0  0  0  0  0  0
    4.4653   -1.1445    4.0857 H   0  0  0  0  0  0  0  0  0  0  0  0
    6.2534   -2.2243    1.2989 H   0  0  0  0  0  0  0  0  0  0  0  0
    5.8425   -0.8498    2.3243 H   0  0  0  0  0  0  0  0  0  0  0  0
    4.6048   -1.5853    1.2826 H   0  0  0  0  0  0  0  0  0  0  0  0
   -0.4634   -1.2571    4.2650 H   0  0  0  0  0  0  0  0  0  0  0  0
   -0.5644   -2.2575    6.0807 H   0  0  0  0  0  0  0  0  0  0  0  0
   -2.4850    0.6280    3.9862 H   0  0  0  0  0  0  0  0  0  0  0  0
   -0.4041    0.1576    2.7611 H   0  0  0  0  0  0  0  0  0  0  0  0
   -2.7791    3.2954    2.2382 H   0  0  0  0  0  0  0  0  0  0  0  0
   -1.3382    3.8286    3.0658 H   0  0  0  0  0  0  0  0  0  0  0  0
   -2.5980    2.9331    3.9510 H   0  0  0  0  0  0  0  0  0  0  0  0
  1  2  1  0
  1 43  1  0
  1 44  1  0
  1 45  1  0
  2  3  1  0
  4  3  1  6
  3 46  1  0
  3 47  1  0
  4 15  1  0
  4 17  1  0
  4  5  1  0
  5  6  1  0
  5 48  1  0
  5 49  1  0
  6 38  1  0
  6  7  1  0
  6 50  1  1
  7  8  1  0
  7 10  1  0
  7 51  1  1
  8  9  1  0
  9 52  1  0
  9 53  1  0
  9 54  1  0
 10 11  1  0
 10 55  1  0
 10 56  1  0
 11 35  1  0
 11 12  1  0
 11 57  1  1
 12 13  1  0
 12 15  1  0
 12 58  1  1
 13 14  1  0
 14 59  1  0
 14 60  1  0
 14 61  1  0
 15 16  1  0
 15 62  1  6
 16 40  1  0
 16 17  1  0
 16 63  1  1
 17 18  1  0
 17 64  1  6
 18 19  1  0
 18 65  1  0
 18 66  1  0
 19 35  1  0
 19 20  1  0
 19 67  1  6
 20 23  1  0
 20 32  1  0
 20 21  1  6
 21 22  1  0
 21 23  1  0
 21 68  1  6
 22 69  1  0
 23 24  1  0
 23 70  1  6
 24 25  1  0
 24 26  1  0
 25 71  1  0
 25 72  1  0
 25 73  1  0
 26 27  1  0
 26 35  1  0
 26 74  1  1
 27 31  1  0
 27 28  1  0
 27 75  1  1
 28 29  1  0
 28 30  1  0
 28 76  1  6
 29 77  1  0
 30 31  1  0
 30 78  1  0
 30 79  1  0
 31 32  1  0
 31 80  1  6
 32 33  1  0
 32 81  1  1
 33 34  1  0
 34 82  1  0
 34 83  1  0
 34 84  1  0
 35 36  1  6
 36 37  1  0
 36 38  1  0
 36 85  1  6
 37 86  1  0
 38 39  1  6
 38 40  1  0
 39 87  1  0
 40 41  1  0
 40 88  1  6
 41 42  1  0
 42 89  1  0
 42 90  1  0
 42 91  1  0
M  END
>  <i_m_ct_stereo_status>  (13) 
1

>  <s_m_source_file>  (13) 
/var/tmp/pbs.5076255.sched01/tmplremgrqo/0ygzoxw5b.sdf

>  <i_m_source_file_index>  (13) 
5

>  <i_lp_mmshare_version>  (13) 
48012

>  <i_f3d_flags>  (13) 
0

>  <s_epik_input>  (13) 
W0NIM11PW0NIMl1bQ0BAXShbQ0gyXTEpKFtDQEhdMltDSDJdMylbQ0BASF0oW0NAQEhdNE9bQ0gzXSlbQ0BASF0yW0NASF0oT1tDSDNdKVtDQEBdKFtPSF0pKFtDQEBIXTVbT0hdKVtDQEhdMVtDQEBIXShPW0NIM10pW0NIMl1bQ0BIXTRbQ0BAXTUoW0NAQEhdM1tDQF02NzgpW0NAQEhdKE4oW0NIM10pW0NAQEhdN1tDQEBIXTZbT0hdKVtDQEhdOVtDQEhdKFtDSDJdW0NAQEhdOVtPSF0pW0NASF04T1tDSDNd

>  <s_epik_cmdline>  (13) 
J2VwaWtfcHl0aG9uJywgJy1waHQnLCAnMi4wJywgJy1waCcsICc3LjAnLCAnLXRuJywgJzgnLCAnLW1hJywgJzIwMCcsICctaW1hZScsICc8aW5maWxlLm1hZT4nLCAnLW9tYWUnLCAnPG91dGZpbGUubWFlPic=

>  <r_epik_Ionization_Penalty>  (13) 
0.435498

>  <r_epik_Ionization_Penalty_Charging>  (13) 
0

>  <r_epik_Ionization_Penalty_Neutral>  (13) 
0.435498

>  <r_epik_State_Penalty>  (13) 
0.437197

>  <r_epik_Charging_Adjusted_Penalty>  (13) 
0.437197

>  <i_epik_Tot_Q>  (13) 
0

>  <i_epik_Tot_abs_Q>  (13) 
0

>  <s_lp_Force_Field>  (13) 
OPLS3e

>  <r_lp_Energy>  (13) 
481.906

>  <b_lp_Chiralities_Consistent>  (13) 
1

>  <s_lp_Variant>  (13) 
3:0-2

>  <s_i_glide_gridfile>  (13) 
pfpi4k_grid

>  <i_i_glide_lignum>  (13) 
5

>  <i_i_glide_rotatable_bonds>  (13) 
10

>  <r_i_docking_score>  (13) 
-2.53318

>  <r_i_glide_ligand_efficiency>  (13) 
-0.0603138

>  <r_i_glide_ligand_efficiency_sa>  (13) 
-0.209652

>  <r_i_glide_ligand_efficiency_ln>  (13) 
-0.534689

>  <r_i_glide_gscore>  (13) 
-2.53318

>  <r_i_glide_lipo>  (13) 
-0.187882

>  <r_i_glide_hbond>  (13) 
-0.0412326

>  <r_i_glide_metal>  (13) 
-0

>  <r_i_glide_rewards>  (13) 
0

>  <r_i_glide_evdw>  (13) 
-24.334

>  <r_i_glide_ecoul>  (13) 
-7.64813

>  <r_i_glide_erotb>  (13) 
0.0598552

>  <r_i_glide_esite>  (13) 
0

>  <r_i_glide_emodel>  (13) 
-29.3867

>  <r_i_glide_energy>  (13) 
-31.9822

>  <r_i_glide_einternal>  (13) 
14.249

>  <r_i_glide_intrahb_reward>  (13) 
-0

>  <i_i_glide_confnum>  (13) 
4

>  <i_i_glide_posenum>  (13) 
5

>  <r_i_glide_eff_state_penalty>  (13) 
0

>  <ligand_id>  (13) 
3

>  <original_smiles>  (13) 
COCC12CC3C(OC)CC4C(OC)C1C1C2CC2C56C(O)C5N(C)C(C5C(O)CC5C6OC)C42C(O)C3(O)C1OC

>  <smiles>  (13) 
[H]OC1([H])C([H])([H])C2([H])C([H])(OC([H])([H])[H])C34C([H])(O[H])C3([H])N(C([H])([H])[H])C([H])(C12[H])C12C([H])(O[H])C3(O[H])C([H])(OC([H])([H])[H])C5([H])C([H])(C([H])([H])C41[H])C1(C([H])([H])OC([H])([H])[H])C([H])([H])C3([H])C([H])(OC([H])([H])[H])C([H])([H])C2([H])C([H])(OC([H])([H])[H])C51[H]

$$$$
3:1:1
     RDKit          3D

 91 99  0  0  1  0  0  0  0  0999 V2000
    1.1253    7.0164    4.2857 C   0  0  0  0  0  0  0  0  0  0  0  0
    1.7830    6.5650    5.4492 O   0  0  0  0  0  0  0  0  0  0  0  0
    2.3874    5.2909    5.3054 C   0  0  0  0  0  0  0  0  0  0  0  0
    1.3523    4.1677    5.3100 C   0  0  2  0  0  0  0  0  0  0  0  0
    0.3661    4.2204    6.6857 C   0  0  0  0  0  0  0  0  0  0  0  0
   -0.4157    2.7965    7.2036 C   0  0  2  0  0  0  0  0  0  0  0  0
    0.1817    2.1171    8.4758 C   0  0  1  0  0  0  0  0  0  0  0  0
   -0.8360    1.4947    9.2606 O   0  0  0  0  0  0  0  0  0  0  0  0
   -1.4999    2.3426   10.1957 C   0  0  0  0  0  0  0  0  0  0  0  0
    1.2528    0.9926    8.2342 C   0  0  0  0  0  0  0  0  0  0  0  0
    1.9721    0.9285    6.8353 C   0  0  2  0  0  0  0  0  0  0  0  0
    2.4130    2.3384    6.6544 C   0  0  1  0  0  0  0  0  0  0  0  0
    3.8414    2.4263    6.5506 O   0  0  0  0  0  0  0  0  0  0  0  0
    4.5537    2.3777    7.7822 C   0  0  0  0  0  0  0  0  0  0  0  0
    1.7475    2.8690    5.4189 C   0  0  1  0  0  0  0  0  0  0  0  0
    0.1392    2.9118    4.6889 C   0  0  1  0  0  0  0  0  0  0  0  0
    0.9953    3.3986    3.7608 C   0  0  2  0  0  0  0  0  0  0  0  0
    1.5973    2.0376    3.0924 C   0  0  0  0  0  0  0  0  0  0  0  0
    1.4614    0.6041    3.9114 C   0  0  1  0  0  0  0  0  0  0  0  0
    2.0068   -0.5722    3.1190 C   0  0  2  0  0  0  0  0  0  0  0  0
    1.4343   -1.5339    2.0969 C   0  0  1  0  0  0  0  0  0  0  0  0
    2.2122   -2.6451    1.6798 O   0  0  0  0  0  0  0  0  0  0  0  0
    0.9800   -1.6894    3.4854 C   0  0  1  0  0  0  0  0  0  0  0  0
    1.4455   -2.3642    4.6711 N   0  0  0  0  0  0  0  0  0  0  0  0
    0.5258   -3.3545    5.1940 C   0  0  0  0  0  0  0  0  0  0  0  0
    1.9208   -1.3611    5.6729 C   0  0  1  0  0  0  0  0  0  0  0  0
    3.4537   -1.6063    5.5862 C   0  0  2  0  0  0  0  0  0  0  0  0
    4.6384   -0.7179    6.0300 C   0  0  1  0  0  0  0  0  0  0  0  0
    5.1724   -0.9244    7.3289 O   0  0  0  0  0  0  0  0  0  0  0  0
    5.4153   -1.3386    4.8781 C   0  0  0  0  0  0  0  0  0  0  0  0
    4.0813   -1.5809    4.1917 C   0  0  2  0  0  0  0  0  0  0  0  0
    3.5532   -0.5498    3.1953 C   0  0  1  0  0  0  0  0  0  0  0  0
    4.2164   -0.7730    1.9521 O   0  0  0  0  0  0  0  0  0  0  0  0
    3.8835    0.1497    0.9344 C   0  0  0  0  0  0  0  0  0  0  0  0
    1.3195    0.1658    5.5576 C   0  0  1  0  0  0  0  0  0  0  0  0
   -0.2159    0.1982    5.9607 C   0  0  1  0  0  0  0  0  0  0  0  0
   -0.5680   -0.7753    6.9289 O   0  0  0  0  0  0  0  0  0  0  0  0
   -0.9492    1.5921    6.2025 C   0  0  1  0  0  0  0  0  0  0  0  0
   -2.2457    1.2257    6.6571 O   0  0  0  0  0  0  0  0  0  0  0  0
   -1.1187    2.0833    4.7938 C   0  0  1  0  0  0  0  0  0  0  0  0
   -2.3265    2.8653    4.6611 O   0  0  0  0  0  0  0  0  0  0  0  0
   -2.6671    3.1652    3.3031 C   0  0  0  0  0  0  0  0  0  0  0  0
    0.6753    7.9900    4.4764 H   0  0  0  0  0  0  0  0  0  0  0  0
    0.3249    6.3359    3.9920 H   0  0  0  0  0  0  0  0  0  0  0  0
    1.8151    7.1311    3.4442 H   0  0  0  0  0  0  0  0  0  0  0  0
    2.9796    5.2579    4.3978 H   0  0  0  0  0  0  0  0  0  0  0  0
    3.0791    5.1602    6.1276 H   0  0  0  0  0  0  0  0  0  0  0  0
    0.9157    4.6545    7.5116 H   0  0  0  0  0  0  0  0  0  0  0  0
   -0.4149    4.9558    6.5014 H   0  0  0  0  0  0  0  0  0  0  0  0
   -1.3313    3.2542    7.5663 H   0  0  0  0  0  0  0  0  0  0  0  0
    0.6476    2.8966    9.0888 H   0  0  0  0  0  0  0  0  0  0  0  0
   -2.1948    1.7502   10.7855 H   0  0  0  0  0  0  0  0  0  0  0  0
   -2.0685    3.1258    9.6975 H   0  0  0  0  0  0  0  0  0  0  0  0
   -0.7957    2.8027   10.8922 H   0  0  0  0  0  0  0  0  0  0  0  0
    2.0263    1.1896    8.9752 H   0  0  0  0  0  0  0  0  0  0  0  0
    0.9101    0.0157    8.5669 H   0  0  0  0  0  0  0  0  0  0  0  0
    2.8368    0.3689    7.1280 H   0  0  0  0  0  0  0  0  0  0  0  0
    2.2661    2.9769    7.5146 H   0  0  0  0  0  0  0  0  0  0  0  0
    5.6242    2.4276    7.5830 H   0  0  0  0  0  0  0  0  0  0  0  0
    4.3680    1.4467    8.3245 H   0  0  0  0  0  0  0  0  0  0  0  0
    4.3032    3.2075    8.4515 H   0  0  0  0  0  0  0  0  0  0  0  0
    2.6897    2.9248    4.8532 H   0  0  0  0  0  0  0  0  0  0  0  0
   -0.4925    3.8247    4.5679 H   0  0  0  0  0  0  0  0  0  0  0  0
    0.5850    4.0956    3.0291 H   0  0  0  0  0  0  0  0  0  0  0  0
    1.1034    1.9004    2.1387 H   0  0  0  0  0  0  0  0  0  0  0  0
    2.6318    2.2226    2.7985 H   0  0  0  0  0  0  0  0  0  0  0  0
    0.4558    0.4949    3.5829 H   0  0  0  0  0  0  0  0  0  0  0  0
    0.7690   -1.1373    1.3223 H   0  0  0  0  0  0  0  0  0  0  0  0
    2.6200   -2.4049    0.8730 H   0  0  0  0  0  0  0  0  0  0  0  0
   -0.0850   -1.4869    3.5928 H   0  0  0  0  0  0  0  0  0  0  0  0
    0.9563   -3.8423    6.0640 H   0  0  0  0  0  0  0  0  0  0  0  0
    0.3335   -4.1305    4.4505 H   0  0  0  0  0  0  0  0  0  0  0  0
   -0.4316   -2.9186    5.4738 H   0  0  0  0  0  0  0  0  0  0  0  0
    1.6479   -1.7146    6.6600 H   0  0  0  0  0  0  0  0  0  0  0  0
    3.6619   -2.5933    5.9993 H   0  0  0  0  0  0  0  0  0  0  0  0
    4.5316    0.3306    5.8005 H   0  0  0  0  0  0  0  0  0  0  0  0
    5.3621   -1.8469    7.4021 H   0  0  0  0  0  0  0  0  0  0  0  0
    6.0584   -0.6388    4.3526 H   0  0  0  0  0  0  0  0  0  0  0  0
    5.9062   -2.2809    5.1777 H   0  0  0  0  0  0  0  0  0  0  0  0
    4.0711   -2.5903    3.7945 H   0  0  0  0  0  0  0  0  0  0  0  0
    3.8587    0.4460    3.5247 H   0  0  0  0  0  0  0  0  0  0  0  0
    4.5258    0.0008    0.0722 H   0  0  0  0  0  0  0  0  0  0  0  0
    3.9942    1.1759    1.2756 H   0  0  0  0  0  0  0  0  0  0  0  0
    2.8554    0.0545    0.5942 H   0  0  0  0  0  0  0  0  0  0  0  0
   -0.7527   -0.2997    5.1572 H   0  0  0  0  0  0  0  0  0  0  0  0
   -0.1069   -1.5636    6.7161 H   0  0  0  0  0  0  0  0  0  0  0  0
   -2.7787    2.0017    6.5874 H   0  0  0  0  0  0  0  0  0  0  0  0
   -1.2485    1.3245    4.0314 H   0  0  0  0  0  0  0  0  0  0  0  0
   -3.6442    3.6503    3.2641 H   0  0  0  0  0  0  0  0  0  0  0  0
   -2.7276    2.2730    2.6797 H   0  0  0  0  0  0  0  0  0  0  0  0
   -1.9489    3.8440    2.8337 H   0  0  0  0  0  0  0  0  0  0  0  0
  1  2  1  0
  1 43  1  0
  1 44  1  0
  1 45  1  0
  2  3  1  0
  4  3  1  6
  3 46  1  0
  3 47  1  0
  4 15  1  0
  4 17  1  0
  4  5  1  0
  5  6  1  0
  5 48  1  0
  5 49  1  0
  6 38  1  0
  6  7  1  0
  6 50  1  1
  7  8  1  0
  7 10  1  0
  7 51  1  1
  8  9  1  0
  9 52  1  0
  9 53  1  0
  9 54  1  0
 10 11  1  0
 10 55  1  0
 10 56  1  0
 11 35  1  0
 11 12  1  0
 11 57  1  1
 12 13  1  0
 12 15  1  0
 12 58  1  1
 13 14  1  0
 14 59  1  0
 14 60  1  0
 14 61  1  0
 15 16  1  0
 15 62  1  6
 16 40  1  0
 16 17  1  0
 16 63  1  1
 17 18  1  0
 17 64  1  6
 18 19  1  0
 18 65  1  0
 18 66  1  0
 19 35  1  0
 19 20  1  0
 19 67  1  6
 20 23  1  0
 20 32  1  0
 20 21  1  6
 21 22  1  0
 21 23  1  0
 21 68  1  6
 22 69  1  0
 23 24  1  0
 23 70  1  6
 24 25  1  0
 24 26  1  0
 25 71  1  0
 25 72  1  0
 25 73  1  0
 26 27  1  0
 26 35  1  0
 26 74  1  1
 27 31  1  0
 27 28  1  0
 27 75  1  1
 28 29  1  0
 28 30  1  0
 28 76  1  6
 29 77  1  0
 30 31  1  0
 30 78  1  0
 30 79  1  0
 31 32  1  0
 31 80  1  6
 32 33  1  0
 32 81  1  1
 33 34  1  0
 34 82  1  0
 34 83  1  0
 34 84  1  0
 35 36  1  1
 36 37  1  0
 36 38  1  0
 36 85  1  6
 37 86  1  0
 38 39  1  1
 38 40  1  0
 39 87  1  0
 40 41  1  0
 40 88  1  6
 41 42  1  0
 42 89  1  0
 42 90  1  0
 42 91  1  0
M  END
>  <i_m_ct_stereo_status>  (14) 
1

>  <s_m_source_file>  (14) 
/var/tmp/pbs.5076255.sched01/tmplremgrqo/0ygzoxw5b.sdf

>  <i_m_source_file_index>  (14) 
5

>  <i_lp_mmshare_version>  (14) 
48012

>  <i_f3d_flags>  (14) 
0

>  <s_epik_input>  (14) 
W0NIM11PW0NIMl1bQ0BAXShbQ0gyXTEpKFtDQEhdMltDSDJdMylbQ0BASF0oW0NAQEhdNE9bQ0gzXSlbQ0BASF0yW0NASF0oT1tDSDNdKVtDQEBdKFtPSF0pKFtDQEBIXTVbT0hdKVtDQEhdMVtDQEBIXShPW0NIM10pW0NIMl1bQ0BIXTRbQ0BAXTUoW0NAQEhdM1tDQF02NzgpW0NAQEhdKE4oW0NIM10pW0NAQEhdN1tDQEBIXTZbT0hdKVtDQEhdOVtDQEhdKFtDSDJdW0NAQEhdOVtPSF0pW0NASF04T1tDSDNd

>  <s_epik_cmdline>  (14) 
J2VwaWtfcHl0aG9uJywgJy1waHQnLCAnMi4wJywgJy1waCcsICc3LjAnLCAnLXRuJywgJzgnLCAnLW1hJywgJzIwMCcsICctaW1hZScsICc8aW5maWxlLm1hZT4nLCAnLW9tYWUnLCAnPG91dGZpbGUubWFlPic=

>  <r_epik_Ionization_Penalty>  (14) 
0.435498

>  <r_epik_Ionization_Penalty_Charging>  (14) 
0

>  <r_epik_Ionization_Penalty_Neutral>  (14) 
0.435498

>  <r_epik_State_Penalty>  (14) 
0.437197

>  <r_epik_Charging_Adjusted_Penalty>  (14) 
0.437197

>  <i_epik_Tot_Q>  (14) 
0

>  <i_epik_Tot_abs_Q>  (14) 
0

>  <s_lp_Force_Field>  (14) 
OPLS3e

>  <r_lp_Energy>  (14) 
481.906

>  <b_lp_Chiralities_Consistent>  (14) 
1

>  <s_lp_Variant>  (14) 
3:0-2

>  <s_i_glide_gridfile>  (14) 
pfpi4k_grid

>  <i_i_glide_lignum>  (14) 
5

>  <i_i_glide_rotatable_bonds>  (14) 
10

>  <r_i_docking_score>  (14) 
-2.2732

>  <r_i_glide_ligand_efficiency>  (14) 
-0.0541238

>  <r_i_glide_ligand_efficiency_sa>  (14) 
-0.188136

>  <r_i_glide_ligand_efficiency_ln>  (14) 
-0.479814

>  <r_i_glide_gscore>  (14) 
-2.2732

>  <r_i_glide_lipo>  (14) 
-0.0773521

>  <r_i_glide_hbond>  (14) 
0

>  <r_i_glide_metal>  (14) 
-0

>  <r_i_glide_rewards>  (14) 
0

>  <r_i_glide_evdw>  (14) 
-21.1423

>  <r_i_glide_ecoul>  (14) 
-7.99059

>  <r_i_glide_erotb>  (14) 
0.0598552

>  <r_i_glide_esite>  (14) 
0

>  <r_i_glide_emodel>  (14) 
-31.3525

>  <r_i_glide_energy>  (14) 
-29.1328

>  <r_i_glide_einternal>  (14) 
3.4864

>  <r_i_glide_intrahb_reward>  (14) 
-0

>  <i_i_glide_confnum>  (14) 
6

>  <i_i_glide_posenum>  (14) 
10

>  <r_i_glide_eff_state_penalty>  (14) 
0

>  <ligand_id>  (14) 
3

>  <original_smiles>  (14) 
COCC12CC3C(OC)CC4C(OC)C1C1C2CC2C56C(O)C5N(C)C(C5C(O)CC5C6OC)C42C(O)C3(O)C1OC

>  <smiles>  (14) 
[H]OC1([H])C([H])([H])C2([H])C([H])(OC([H])([H])[H])C34C([H])(O[H])C3([H])N(C([H])([H])[H])C([H])(C12[H])C12C([H])(O[H])C3(O[H])C([H])(OC([H])([H])[H])C5([H])C([H])(C([H])([H])C41[H])C1(C([H])([H])OC([H])([H])[H])C([H])([H])C3([H])C([H])(OC([H])([H])[H])C([H])([H])C2([H])C([H])(OC([H])([H])[H])C51[H]

$$$$
3:1:2
     RDKit          3D

 91 99  0  0  1  0  0  0  0  0999 V2000
    0.7464  -10.9921    4.7066 C   0  0  0  0  0  0  0  0  0  0  0  0
    2.1196  -10.6967    4.8661 O   0  0  0  0  0  0  0  0  0  0  0  0
    2.3777   -9.4758    5.5428 C   0  0  0  0  0  0  0  0  0  0  0  0
    2.3105   -8.2836    4.5898 C   0  0  2  0  0  0  0  0  0  0  0  0
    3.4872   -8.3775    3.3653 C   0  0  0  0  0  0  0  0  0  0  0  0
    3.9877   -6.9400    2.5787 C   0  0  2  0  0  0  0  0  0  0  0  0
    5.3965   -6.4124    2.9783 C   0  0  1  0  0  0  0  0  0  0  0  0
    6.0218   -5.8625    1.8189 O   0  0  0  0  0  0  0  0  0  0  0  0
    7.4493   -5.8989    1.8537 C   0  0  0  0  0  0  0  0  0  0  0  0
    5.4522   -5.3428    4.1399 C   0  0  0  0  0  0  0  0  0  0  0  0
    4.2040   -5.2199    5.0938 C   0  0  2  0  0  0  0  0  0  0  0  0
    3.9808   -6.6417    5.4804 C   0  0  1  0  0  0  0  0  0  0  0  0
    4.1200   -6.8152    6.8974 O   0  0  0  0  0  0  0  0  0  0  0  0
    5.4556   -6.9176    7.3774 C   0  0  0  0  0  0  0  0  0  0  0  0
    2.6059   -7.0242    5.0246 C   0  0  1  0  0  0  0  0  0  0  0  0
    1.6100   -6.8989    3.5757 C   0  0  1  0  0  0  0  0  0  0  0  0
    0.7994   -7.3704    4.5530 C   0  0  2  0  0  0  0  0  0  0  0  0
    0.3714   -6.0020    5.3361 C   0  0  0  0  0  0  0  0  0  0  0  0
    1.2731   -4.6270    5.1346 C   0  0  1  0  0  0  0  0  0  0  0  0
    0.6933   -3.4398    5.8937 C   0  0  2  0  0  0  0  0  0  0  0  0
   -0.3541   -2.3745    5.5884 C   0  0  1  0  0  0  0  0  0  0  0  0
   -0.5142   -1.2495    6.4409 O   0  0  0  0  0  0  0  0  0  0  0  0
    0.9485   -2.2787    4.8792 C   0  0  1  0  0  0  0  0  0  0  0  0
    2.2610   -1.7363    5.1596 N   0  0  0  0  0  0  0  0  0  0  0  0
    2.7158   -0.7462    4.1944 C   0  0  0  0  0  0  0  0  0  0  0  0
    3.2486   -2.8439    5.3750 C   0  0  1  0  0  0  0  0  0  0  0  0
    3.4688   -2.6984    6.9159 C   0  0  2  0  0  0  0  0  0  0  0  0
    4.0293   -3.6933    7.9595 C   0  0  1  0  0  0  0  0  0  0  0  0
    5.4171   -3.6347    8.2438 O   0  0  0  0  0  0  0  0  0  0  0  0
    3.0903   -3.0467    8.9808 C   0  0  0  0  0  0  0  0  0  0  0  0
    2.2145   -2.6528    7.7917 C   0  0  2  0  0  0  0  0  0  0  0  0
    1.0651   -3.5707    7.3883 C   0  0  1  0  0  0  0  0  0  0  0  0
   -0.0180   -3.3186    8.2766 O   0  0  0  0  0  0  0  0  0  0  0  0
   -0.9445   -4.3835    8.3312 C   0  0  0  0  0  0  0  0  0  0  0  0
    2.9037   -4.3143    4.7205 C   0  0  1  0  0  0  0  0  0  0  0  0
    3.0444   -4.2714    3.1361 C   0  0  1  0  0  0  0  0  0  0  0  0
    4.0321   -3.3788    2.6385 O   0  0  0  0  0  0  0  0  0  0  0  0
    3.0114   -5.6305    2.2909 C   0  0  1  0  0  0  0  0  0  0  0  0
    3.2642   -5.1789    0.9627 O   0  0  0  0  0  0  0  0  0  0  0  0
    1.5530   -5.9985    2.3657 C   0  0  1  0  0  0  0  0  0  0  0  0
    1.1231   -6.6719    1.1580 O   0  0  0  0  0  0  0  0  0  0  0  0
   -0.2496   -7.0598    1.1031 C   0  0  0  0  0  0  0  0  0  0  0  0
    0.6285  -11.9409    4.1829 H   0  0  0  0  0  0  0  0  0  0  0  0
    0.2494  -10.2259    4.1115 H   0  0  0  0  0  0  0  0  0  0  0  0
    0.2300  -11.0785    5.6677 H   0  0  0  0  0  0  0  0  0  0  0  0
    1.6889   -9.3484    6.3708 H   0  0  0  0  0  0  0  0  0  0  0  0
    3.3664   -9.5372    5.9829 H   0  0  0  0  0  0  0  0  0  0  0  0
    4.3507   -8.9192    3.7280 H   0  0  0  0  0  0  0  0  0  0  0  0
    3.1035   -9.0404    2.5906 H   0  0  0  0  0  0  0  0  0  0  0  0
    4.1650   -7.3533    1.5853 H   0  0  0  0  0  0  0  0  0  0  0  0
    5.9783   -7.2948    3.2662 H   0  0  0  0  0  0  0  0  0  0  0  0
    7.8544   -5.3466    1.0081 H   0  0  0  0  0  0  0  0  0  0  0  0
    7.8080   -6.9255    1.7853 H   0  0  0  0  0  0  0  0  0  0  0  0
    7.8562   -5.4553    2.7672 H   0  0  0  0  0  0  0  0  0  0  0  0
    6.2942   -5.6494    4.7600 H   0  0  0  0  0  0  0  0  0  0  0  0
    5.8051   -4.3725    3.8004 H   0  0  0  0  0  0  0  0  0  0  0  0
    4.6872   -4.7440    5.9221 H   0  0  0  0  0  0  0  0  0  0  0  0
    4.7400   -7.3358    5.1463 H   0  0  0  0  0  0  0  0  0  0  0  0
    5.4410   -7.0243    8.4620 H   0  0  0  0  0  0  0  0  0  0  0  0
    6.0385   -6.0227    7.1455 H   0  0  0  0  0  0  0  0  0  0  0  0
    5.9895   -7.7805    6.9661 H   0  0  0  0  0  0  0  0  0  0  0  0
    2.2086   -7.0905    6.0486 H   0  0  0  0  0  0  0  0  0  0  0  0
    1.3310   -7.7567    2.9189 H   0  0  0  0  0  0  0  0  0  0  0  0
   -0.0525   -7.9651    4.2219 H   0  0  0  0  0  0  0  0  0  0  0  0
   -0.6369   -5.7614    5.0285 H   0  0  0  0  0  0  0  0  0  0  0  0
    0.2474   -6.2284    6.3951 H   0  0  0  0  0  0  0  0  0  0  0  0
    0.7882   -4.4204    4.2104 H   0  0  0  0  0  0  0  0  0  0  0  0
   -1.2597   -2.6506    5.0453 H   0  0  0  0  0  0  0  0  0  0  0  0
    0.3405   -0.8703    6.5369 H   0  0  0  0  0  0  0  0  0  0  0  0
    0.8505   -2.4236    3.8053 H   0  0  0  0  0  0  0  0  0  0  0  0
    3.6933   -0.3655    4.4831 H   0  0  0  0  0  0  0  0  0  0  0  0
    2.0368    0.1078    4.1595 H   0  0  0  0  0  0  0  0  0  0  0  0
    2.7994   -1.1563    3.1879 H   0  0  0  0  0  0  0  0  0  0  0  0
    4.1888   -2.5505    4.9194 H   0  0  0  0  0  0  0  0  0  0  0  0
    4.0048   -1.7663    7.0868 H   0  0  0  0  0  0  0  0  0  0  0  0
    3.6969   -4.7113    7.8255 H   0  0  0  0  0  0  0  0  0  0  0  0
    5.6043   -2.7465    8.5078 H   0  0  0  0  0  0  0  0  0  0  0  0
    2.6188   -3.7521    9.6615 H   0  0  0  0  0  0  0  0  0  0  0  0
    3.5332   -2.1770    9.4946 H   0  0  0  0  0  0  0  0  0  0  0  0
    1.9084   -1.6166    7.8981 H   0  0  0  0  0  0  0  0  0  0  0  0
    1.3885   -4.6020    7.5609 H   0  0  0  0  0  0  0  0  0  0  0  0
   -1.7177   -4.1653    9.0634 H   0  0  0  0  0  0  0  0  0  0  0  0
   -0.4540   -5.3125    8.6329 H   0  0  0  0  0  0  0  0  0  0  0  0
   -1.4238   -4.5408    7.3623 H   0  0  0  0  0  0  0  0  0  0  0  0
    2.2094   -3.6732    2.7788 H   0  0  0  0  0  0  0  0  0  0  0  0
    3.8243   -3.2288    1.7328 H   0  0  0  0  0  0  0  0  0  0  0  0
    4.2054   -5.1139    0.8729 H   0  0  0  0  0  0  0  0  0  0  0  0
    0.8461   -5.1817    2.4268 H   0  0  0  0  0  0  0  0  0  0  0  0
   -0.4866   -7.4291    0.1061 H   0  0  0  0  0  0  0  0  0  0  0  0
   -0.9219   -6.2352    1.3030 H   0  0  0  0  0  0  0  0  0  0  0  0
   -0.5048   -7.8618    1.7976 H   0  0  0  0  0  0  0  0  0  0  0  0
  1  2  1  0
  1 43  1  0
  1 44  1  0
  1 45  1  0
  2  3  1  0
  4  3  1  1
  3 46  1  0
  3 47  1  0
  4 15  1  0
  4 17  1  0
  4  5  1  0
  5  6  1  0
  5 48  1  0
  5 49  1  0
  6 38  1  0
  6  7  1  0
  6 50  1  6
  7  8  1  0
  7 10  1  0
  7 51  1  1
  8  9  1  0
  9 52  1  0
  9 53  1  0
  9 54  1  0
 10 11  1  0
 10 55  1  0
 10 56  1  0
 11 35  1  0
 11 12  1  0
 11 57  1  1
 12 13  1  0
 12 15  1  0
 12 58  1  6
 13 14  1  0
 14 59  1  0
 14 60  1  0
 14 61  1  0
 15 16  1  0
 15 62  1  1
 16 40  1  0
 16 17  1  0
 16 63  1  6
 17 18  1  0
 17 64  1  6
 18 19  1  0
 18 65  1  0
 18 66  1  0
 19 35  1  0
 19 20  1  0
 19 67  1  6
 20 23  1  0
 20 32  1  0
 20 21  1  1
 21 22  1  0
 21 23  1  0
 21 68  1  6
 22 69  1  0
 23 24  1  0
 23 70  1  6
 24 25  1  0
 24 26  1  0
 25 71  1  0
 25 72  1  0
 25 73  1  0
 26 27  1  0
 26 35  1  0
 26 74  1  6
 27 31  1  0
 27 28  1  0
 27 75  1  6
 28 29  1  0
 28 30  1  0
 28 76  1  6
 29 77  1  0
 30 31  1  0
 30 78  1  0
 30 79  1  0
 31 32  1  0
 31 80  1  1
 32 33  1  0
 32 81  1  6
 33 34  1  0
 34 82  1  0
 34 83  1  0
 34 84  1  0
 35 36  1  6
 36 37  1  0
 36 38  1  0
 36 85  1  6
 37 86  1  0
 38 39  1  6
 38 40  1  0
 39 87  1  0
 40 41  1  0
 40 88  1  1
 41 42  1  0
 42 89  1  0
 42 90  1  0
 42 91  1  0
M  END
>  <i_m_ct_stereo_status>  (15) 
1

>  <s_m_source_file>  (15) 
/var/tmp/pbs.5076255.sched01/tmplremgrqo/0ygzoxw5b.sdf

>  <i_m_source_file_index>  (15) 
5

>  <i_lp_mmshare_version>  (15) 
48012

>  <i_f3d_flags>  (15) 
0

>  <s_epik_input>  (15) 
W0NIM11PW0NIMl1bQ0BAXShbQ0gyXTEpKFtDQEhdMltDSDJdMylbQ0BASF0oW0NAQEhdNE9bQ0gzXSlbQ0BASF0yW0NASF0oT1tDSDNdKVtDQEBdKFtPSF0pKFtDQEBIXTVbT0hdKVtDQEhdMVtDQEBIXShPW0NIM10pW0NIMl1bQ0BIXTRbQ0BAXTUoW0NAQEhdM1tDQF02NzgpW0NAQEhdKE4oW0NIM10pW0NAQEhdN1tDQEBIXTZbT0hdKVtDQEhdOVtDQEhdKFtDSDJdW0NAQEhdOVtPSF0pW0NASF04T1tDSDNd

>  <s_epik_cmdline>  (15) 
J2VwaWtfcHl0aG9uJywgJy1waHQnLCAnMi4wJywgJy1waCcsICc3LjAnLCAnLXRuJywgJzgnLCAnLW1hJywgJzIwMCcsICctaW1hZScsICc8aW5maWxlLm1hZT4nLCAnLW9tYWUnLCAnPG91dGZpbGUubWFlPic=

>  <r_epik_Ionization_Penalty>  (15) 
0.435498

>  <r_epik_Ionization_Penalty_Charging>  (15) 
0

>  <r_epik_Ionization_Penalty_Neutral>  (15) 
0.435498

>  <r_epik_State_Penalty>  (15) 
0.437197

>  <r_epik_Charging_Adjusted_Penalty>  (15) 
0.437197

>  <i_epik_Tot_Q>  (15) 
0

>  <i_epik_Tot_abs_Q>  (15) 
0

>  <s_lp_Force_Field>  (15) 
OPLS3e

>  <r_lp_Energy>  (15) 
481.906

>  <b_lp_Chiralities_Consistent>  (15) 
1

>  <s_lp_Variant>  (15) 
3:0-2

>  <s_i_glide_gridfile>  (15) 
pfpi4k_grid

>  <i_i_glide_lignum>  (15) 
5

>  <i_i_glide_rotatable_bonds>  (15) 
10

>  <r_i_docking_score>  (15) 
-2.16508

>  <r_i_glide_ligand_efficiency>  (15) 
-0.0515496

>  <r_i_glide_ligand_efficiency_sa>  (15) 
-0.179188

>  <r_i_glide_ligand_efficiency_ln>  (15) 
-0.456994

>  <r_i_glide_gscore>  (15) 
-2.16508

>  <r_i_glide_lipo>  (15) 
-0.0409603

>  <r_i_glide_hbond>  (15) 
-0.0166354

>  <r_i_glide_metal>  (15) 
-0

>  <r_i_glide_rewards>  (15) 
-0.5

>  <r_i_glide_evdw>  (15) 
-22.269

>  <r_i_glide_ecoul>  (15) 
-3.69263

>  <r_i_glide_erotb>  (15) 
0.0598552

>  <r_i_glide_esite>  (15) 
0

>  <r_i_glide_emodel>  (15) 
-33.4659

>  <r_i_glide_energy>  (15) 
-25.9616

>  <r_i_glide_einternal>  (15) 
2.55851

>  <r_i_glide_intrahb_reward>  (15) 
-0.5

>  <i_i_glide_confnum>  (15) 
4

>  <i_i_glide_posenum>  (15) 
27

>  <r_i_glide_eff_state_penalty>  (15) 
0

>  <ligand_id>  (15) 
3

>  <original_smiles>  (15) 
COCC12CC3C(OC)CC4C(OC)C1C1C2CC2C56C(O)C5N(C)C(C5C(O)CC5C6OC)C42C(O)C3(O)C1OC

>  <smiles>  (15) 
[H]OC1([H])C([H])([H])C2([H])C([H])(OC([H])([H])[H])C34C([H])(O[H])C3([H])N(C([H])([H])[H])C([H])(C12[H])C12C([H])(O[H])C3(O[H])C([H])(OC([H])([H])[H])C5([H])C([H])(C([H])([H])C41[H])C1(C([H])([H])OC([H])([H])[H])C([H])([H])C3([H])C([H])(OC([H])([H])[H])C([H])([H])C2([H])C([H])(OC([H])([H])[H])C51[H]

$$$$
4:0:0
     RDKit          3D

 55 59  0  0  1  0  0  0  0  0999 V2000
    4.6332   -0.3915    0.7971 C   0  0  0  0  0  0  0  0  0  0  0  0
    4.7958   -1.6097    1.3424 C   0  0  0  0  0  0  0  0  0  0  0  0
    5.5199   -1.8949    2.6662 C   0  0  1  0  0  0  0  0  0  0  0  0
    5.2758   -0.8610    3.6027 O   0  0  0  0  0  0  0  0  0  0  0  0
    4.9884   -3.3140    3.1465 C   0  0  2  0  0  0  0  0  0  0  0  0
    4.8719   -3.4456    4.6812 C   0  0  0  0  0  0  0  0  0  0  0  0
    5.7728   -4.5415    2.5296 C   0  0  2  0  0  0  0  0  0  0  0  0
    6.4195   -4.1540    1.1868 C   0  0  0  0  0  0  0  0  0  0  0  0
    5.2964   -3.7267    0.2745 C   0  0  2  0  0  0  0  0  0  0  0  0
    5.7775   -3.0755   -0.8869 O   0  0  0  0  0  0  0  0  0  0  0  0
    4.9249   -2.7567   -1.8848 C   0  0  0  0  0  0  0  0  0  0  0  0
    5.3013   -2.5279   -3.0297 O   0  0  0  0  0  0  0  0  0  0  0  0
    3.4446   -2.5561   -1.4945 C   0  0  1  0  0  0  0  0  0  0  0  0
    2.5114   -2.8950   -2.6757 C   0  0  0  0  0  0  0  0  0  0  0  0
    3.0179   -3.1079   -0.0895 C   0  0  1  0  0  0  0  0  0  0  0  0
    2.4417   -4.5940   -0.0886 C   0  0  0  0  0  0  0  0  0  0  0  0
    3.1696   -5.8991    0.4278 C   0  0  0  0  0  0  0  0  0  0  0  0
    3.5526   -6.2029    1.9281 C   0  0  2  0  0  0  0  0  0  0  0  0
    3.3080   -7.7349    2.0950 C   0  0  0  0  0  0  0  0  0  0  0  0
    2.5578   -5.5832    2.9091 C   0  0  0  0  0  0  0  0  0  0  0  0
    2.4426   -4.0715    2.8721 C   0  0  0  0  0  0  0  0  0  0  0  0
    3.6594   -3.2390    2.4215 C   0  0  2  0  0  0  0  0  0  0  0  0
    4.1346   -2.9346    0.9532 C   0  0  2  0  0  0  0  0  0  0  0  0
    5.0390   -5.9443    2.4463 C   0  0  1  0  0  0  0  0  0  0  0  0
    5.9065   -6.8556    1.7947 O   0  0  0  0  0  0  0  0  0  0  0  0
    4.0386   -0.2208   -0.0805 H   0  0  0  0  0  0  0  0  0  0  0  0
    5.1041    0.4772    1.2380 H   0  0  0  0  0  0  0  0  0  0  0  0
    6.5920   -1.8571    2.4885 H   0  0  0  0  0  0  0  0  0  0  0  0
    5.8213   -1.0196    4.3572 H   0  0  0  0  0  0  0  0  0  0  0  0
    4.4914   -4.4250    4.9686 H   0  0  0  0  0  0  0  0  0  0  0  0
    4.1999   -2.7011    5.1109 H   0  0  0  0  0  0  0  0  0  0  0  0
    5.8462   -3.3273    5.1552 H   0  0  0  0  0  0  0  0  0  0  0  0
    6.6163   -4.7254    3.1966 H   0  0  0  0  0  0  0  0  0  0  0  0
    7.1754   -3.3792    1.2893 H   0  0  0  0  0  0  0  0  0  0  0  0
    6.9788   -4.9710    0.7328 H   0  0  0  0  0  0  0  0  0  0  0  0
    4.9700   -4.6528   -0.1391 H   0  0  0  0  0  0  0  0  0  0  0  0
    3.3407   -1.4834   -1.4208 H   0  0  0  0  0  0  0  0  0  0  0  0
    2.6356   -2.1834   -3.4942 H   0  0  0  0  0  0  0  0  0  0  0  0
    1.4628   -2.8726   -2.3775 H   0  0  0  0  0  0  0  0  0  0  0  0
    2.7253   -3.8757   -3.0982 H   0  0  0  0  0  0  0  0  0  0  0  0
    2.2062   -2.4601    0.2282 H   0  0  0  0  0  0  0  0  0  0  0  0
    1.4954   -4.6110    0.4243 H   0  0  0  0  0  0  0  0  0  0  0  0
    2.1094   -4.8046   -1.1020 H   0  0  0  0  0  0  0  0  0  0  0  0
    2.3760   -6.6109    0.2190 H   0  0  0  0  0  0  0  0  0  0  0  0
    3.9365   -6.2673   -0.2604 H   0  0  0  0  0  0  0  0  0  0  0  0
    3.5826   -8.0873    3.0900 H   0  0  0  0  0  0  0  0  0  0  0  0
    3.8597   -8.3349    1.3688 H   0  0  0  0  0  0  0  0  0  0  0  0
    2.2574   -8.0059    1.9593 H   0  0  0  0  0  0  0  0  0  0  0  0
    1.5580   -5.9944    2.7553 H   0  0  0  0  0  0  0  0  0  0  0  0
    2.8329   -5.8827    3.9209 H   0  0  0  0  0  0  0  0  0  0  0  0
    1.5592   -3.7637    2.3205 H   0  0  0  0  0  0  0  0  0  0  0  0
    2.1835   -3.7698    3.8882 H   0  0  0  0  0  0  0  0  0  0  0  0
    3.1849   -2.3084    2.7607 H   0  0  0  0  0  0  0  0  0  0  0  0
    5.0329   -6.2942    3.4801 H   0  0  0  0  0  0  0  0  0  0  0  0
    5.5412   -7.7226    1.8830 H   0  0  0  0  0  0  0  0  0  0  0  0
  1  2  2  0
  1 26  1  0
  1 27  1  0
 23  2  1  1
  2  3  1  0
  3  4  1  0
  3  5  1  0
  3 28  1  6
  4 29  1  0
  5 22  1  0
  5  6  1  1
  5  7  1  0
  6 30  1  0
  6 31  1  0
  6 32  1  0
  7 24  1  0
  7  8  1  0
  7 33  1  1
  8  9  1  0
  8 34  1  0
  8 35  1  0
  9 23  1  0
  9 10  1  0
  9 36  1  6
 10 11  1  0
 11 12  2  0
 11 13  1  0
 13 14  1  0
 13 15  1  0
 13 37  1  1
 14 38  1  0
 14 39  1  0
 14 40  1  0
 15 23  1  0
 15 16  1  0
 15 41  1  1
 16 17  1  0
 16 42  1  0
 16 43  1  0
 17 18  1  0
 17 44  1  0
 17 45  1  0
 18 19  1  6
 18 20  1  0
 18 24  1  0
 19 46  1  0
 19 47  1  0
 19 48  1  0
 20 21  1  0
 20 49  1  0
 20 50  1  0
 21 22  1  0
 21 51  1  0
 21 52  1  0
 22 23  1  0
 22 53  1  1
 24 25  1  0
 24 54  1  1
 25 55  1  0
M  END
>  <i_m_ct_stereo_status>  (16) 
1

>  <s_m_source_file>  (16) 
/var/tmp/pbs.5076255.sched01/tmplremgrqo/0ygzoxw5b.sdf

>  <i_m_source_file_index>  (16) 
6

>  <i_lp_mmshare_version>  (16) 
48012

>  <i_f3d_flags>  (16) 
0

>  <s_epik_input>  (16) 
W0NAXTEyM1tDQEBIXTRbQ0gyXVtDQEhdNVtDQEBdKFtDSDNdKShbQ0BIXShbT0hdKUMxPVtDSDJdKVtDQEBIXTNbQ0gyXVtDSDJdW0NAXShbQ0gzXSkoW0NASF01W09IXSlbQ0gyXVtDSDJdW0NAQEhdMltDQEBIXShDKE80KT1PKVtDSDNd

>  <s_epik_cmdline>  (16) 
J2VwaWtfcHl0aG9uJywgJy1waHQnLCAnMi4wJywgJy1waCcsICc3LjAnLCAnLXRuJywgJzgnLCAnLW1hJywgJzIwMCcsICctaW1hZScsICc8aW5maWxlLm1hZT4nLCAnLW9tYWUnLCAnPG91dGZpbGUubWFlPic=

>  <r_lp_tautomer_probability>  (16) 
1

>  <r_epik_Ionization_Penalty>  (16) 
1.1067e-06

>  <r_epik_Ionization_Penalty_Charging>  (16) 
0

>  <r_epik_Ionization_Penalty_Neutral>  (16) 
1.1067e-06

>  <r_epik_State_Penalty>  (16) 
-0

>  <r_epik_Charging_Adjusted_Penalty>  (16) 
0

>  <i_epik_Tot_Q>  (16) 
0

>  <i_epik_Tot_abs_Q>  (16) 
0

>  <s_epik_Chemistry_Notes>  (16) 
This compound has an ester and may undergo hydrolysis at high or low pH.

>  <s_lp_Force_Field>  (16) 
OPLS3e

>  <r_lp_Energy>  (16) 
127.961

>  <b_lp_Chiralities_Consistent>  (16) 
1

>  <s_lp_Variant>  (16) 
4:0-1

>  <s_i_glide_gridfile>  (16) 
pfpi4k_grid

>  <i_i_glide_lignum>  (16) 
6

>  <i_i_glide_rotatable_bonds>  (16) 
2

>  <r_i_docking_score>  (16) 
-2.88522

>  <r_i_glide_ligand_efficiency>  (16) 
-0.115409

>  <r_i_glide_ligand_efficiency_sa>  (16) 
-0.337457

>  <r_i_glide_ligand_efficiency_ln>  (16) 
-0.683883

>  <r_i_glide_gscore>  (16) 
-2.88522

>  <r_i_glide_lipo>  (16) 
-0.52162

>  <r_i_glide_hbond>  (16) 
0

>  <r_i_glide_metal>  (16) 
-0

>  <r_i_glide_rewards>  (16) 
-1.08488

>  <r_i_glide_evdw>  (16) 
-22.0598

>  <r_i_glide_ecoul>  (16) 
-1.17152

>  <r_i_glide_erotb>  (16) 
0

>  <r_i_glide_esite>  (16) 
0

>  <r_i_glide_emodel>  (16) 
-26.4749

>  <r_i_glide_energy>  (16) 
-23.2313

>  <r_i_glide_einternal>  (16) 
0.807213

>  <r_i_glide_intrahb_reward>  (16) 
-0

>  <i_i_glide_confnum>  (16) 
2

>  <i_i_glide_posenum>  (16) 
22

>  <r_i_glide_eff_state_penalty>  (16) 
0

>  <ligand_id>  (16) 
4

>  <original_smiles>  (16) 
C=C1C(O)C2(C)C3CC4OC(=O)C(C)C5CCC(C)(CCC2C145)C3O

>  <smiles>  (16) 
[H]OC1([H])C(=C([H])[H])C23C4([H])OC(=O)C([H])(C([H])([H])[H])C2([H])C([H])([H])C([H])([H])C2(C([H])([H])[H])C([H])([H])C([H])([H])C3([H])C1(C([H])([H])[H])C([H])(C4([H])[H])C2([H])O[H]

$$$$
4:0:1
     RDKit          3D

 55 59  0  0  1  0  0  0  0  0999 V2000
    2.5098   -0.1451    1.6687 C   0  0  0  0  0  0  0  0  0  0  0  0
    3.0980   -1.2472    2.1778 C   0  0  0  0  0  0  0  0  0  0  0  0
    3.3850   -1.4793    3.6684 C   0  0  1  0  0  0  0  0  0  0  0  0
    2.3225   -0.9419    4.4394 O   0  0  0  0  0  0  0  0  0  0  0  0
    3.5444   -3.0552    3.8230 C   0  0  2  0  0  0  0  0  0  0  0  0
    3.0365   -3.5977    5.1686 C   0  0  0  0  0  0  0  0  0  0  0  0
    5.0050   -3.5773    3.5084 C   0  0  2  0  0  0  0  0  0  0  0  0
    5.7083   -2.6282    2.5276 C   0  0  0  0  0  0  0  0  0  0  0  0
    4.9026   -2.5628    1.2777 C   0  0  2  0  0  0  0  0  0  0  0  0
    5.3242   -1.5104    0.4403 O   0  0  0  0  0  0  0  0  0  0  0  0
    4.8277   -1.3799   -0.7894 C   0  0  0  0  0  0  0  0  0  0  0  0
    5.3224   -0.7071   -1.6782 O   0  0  0  0  0  0  0  0  0  0  0  0
    3.4426   -2.0200   -1.0222 C   0  0  1  0  0  0  0  0  0  0  0  0
    3.2508   -2.4603   -2.4934 C   0  0  0  0  0  0  0  0  0  0  0  0
    2.9174   -3.0088    0.0747 C   0  0  1  0  0  0  0  0  0  0  0  0
    3.2211   -4.5430   -0.2071 C   0  0  0  0  0  0  0  0  0  0  0  0
    4.3227   -5.4596    0.4646 C   0  0  0  0  0  0  0  0  0  0  0  0
    4.3192   -5.8972    1.9891 C   0  0  2  0  0  0  0  0  0  0  0  0
    4.8700   -7.3492    1.9784 C   0  0  0  0  0  0  0  0  0  0  0  0
    2.9032   -6.0712    2.5327 C   0  0  0  0  0  0  0  0  0  0  0  0
    2.0453   -4.8237    2.5265 C   0  0  0  0  0  0  0  0  0  0  0  0
    2.6952   -3.4352    2.6270 C   0  0  2  0  0  0  0  0  0  0  0  0
    3.3626   -2.5890    1.4831 C   0  0  2  0  0  0  0  0  0  0  0  0
    5.1861   -5.1059    3.0707 C   0  0  1  0  0  0  0  0  0  0  0  0
    6.5559   -5.3361    2.7839 O   0  0  0  0  0  0  0  0  0  0  0  0
    2.2276   -0.0666    0.6295 H   0  0  0  0  0  0  0  0  0  0  0  0
    2.2879    0.7130    2.2922 H   0  0  0  0  0  0  0  0  0  0  0  0
    4.2677   -0.9244    3.9904 H   0  0  0  0  0  0  0  0  0  0  0  0
    2.3579   -0.0126    4.3676 H   0  0  0  0  0  0  0  0  0  0  0  0
    3.1558   -4.6789    5.2346 H   0  0  0  0  0  0  0  0  0  0  0  0
    1.9802   -3.3782    5.3264 H   0  0  0  0  0  0  0  0  0  0  0  0
    3.5942   -3.1573    5.9992 H   0  0  0  0  0  0  0  0  0  0  0  0
    5.5623   -3.4873    4.4432 H   0  0  0  0  0  0  0  0  0  0  0  0
    5.8894   -1.6431    2.9603 H   0  0  0  0  0  0  0  0  0  0  0  0
    6.6851   -2.9761    2.2296 H   0  0  0  0  0  0  0  0  0  0  0  0
    5.2619   -3.4088    0.7350 H   0  0  0  0  0  0  0  0  0  0  0  0
    2.7912   -1.1636   -0.9486 H   0  0  0  0  0  0  0  0  0  0  0  0
    3.2497   -1.5909   -3.1507 H   0  0  0  0  0  0  0  0  0  0  0  0
    2.3029   -2.9745   -2.6332 H   0  0  0  0  0  0  0  0  0  0  0  0
    4.0638   -3.1202   -2.8287 H   0  0  0  0  0  0  0  0  0  0  0  0
    1.8306   -2.9117    0.0502 H   0  0  0  0  0  0  0  0  0  0  0  0
    2.2807   -5.0911   -0.1995 H   0  0  0  0  0  0  0  0  0  0  0  0
    3.4937   -4.5996   -1.2513 H   0  0  0  0  0  0  0  0  0  0  0  0
    4.1697   -6.3788   -0.0979 H   0  0  0  0  0  0  0  0  0  0  0  0
    5.3320   -5.2210    0.1301 H   0  0  0  0  0  0  0  0  0  0  0  0
    4.9521   -7.7617    2.9852 H   0  0  0  0  0  0  0  0  0  0  0  0
    5.8544   -7.4264    1.5080 H   0  0  0  0  0  0  0  0  0  0  0  0
    4.2234   -8.0353    1.4220 H   0  0  0  0  0  0  0  0  0  0  0  0
    2.3707   -6.8346    1.9661 H   0  0  0  0  0  0  0  0  0  0  0  0
    2.9545   -6.4477    3.5495 H   0  0  0  0  0  0  0  0  0  0  0  0
    1.4116   -4.8544    1.6598 H   0  0  0  0  0  0  0  0  0  0  0  0
    1.3384   -4.9360    3.3527 H   0  0  0  0  0  0  0  0  0  0  0  0
    1.7222   -2.9446    2.7885 H   0  0  0  0  0  0  0  0  0  0  0  0
    5.0339   -5.6536    3.9999 H   0  0  0  0  0  0  0  0  0  0  0  0
    6.6973   -6.2619    2.7343 H   0  0  0  0  0  0  0  0  0  0  0  0
  1  2  2  0
  1 26  1  0
  1 27  1  0
 23  2  1  1
  2  3  1  0
  3  4  1  0
  3  5  1  0
  3 28  1  1
  4 29  1  0
  5 22  1  0
  5  6  1  1
  5  7  1  0
  6 30  1  0
  6 31  1  0
  6 32  1  0
  7 24  1  0
  7  8  1  0
  7 33  1  1
  8  9  1  0
  8 34  1  0
  8 35  1  0
  9 23  1  0
  9 10  1  0
  9 36  1  6
 10 11  1  0
 11 12  2  0
 11 13  1  0
 13 14  1  0
 13 15  1  0
 13 37  1  6
 14 38  1  0
 14 39  1  0
 14 40  1  0
 15 23  1  0
 15 16  1  0
 15 41  1  1
 16 17  1  0
 16 42  1  0
 16 43  1  0
 17 18  1  0
 17 44  1  0
 17 45  1  0
 18 19  1  6
 18 20  1  0
 18 24  1  0
 19 46  1  0
 19 47  1  0
 19 48  1  0
 20 21  1  0
 20 49  1  0
 20 50  1  0
 21 22  1  0
 21 51  1  0
 21 52  1  0
 22 23  1  0
 22 53  1  1
 24 25  1  0
 24 54  1  1
 25 55  1  0
M  END
>  <i_m_ct_stereo_status>  (17) 
1

>  <s_m_source_file>  (17) 
/var/tmp/pbs.5076255.sched01/tmplremgrqo/0ygzoxw5b.sdf

>  <i_m_source_file_index>  (17) 
6

>  <i_lp_mmshare_version>  (17) 
48012

>  <i_f3d_flags>  (17) 
0

>  <s_epik_input>  (17) 
W0NAXTEyM1tDQEBIXTRbQ0gyXVtDQEhdNVtDQEBdKFtDSDNdKShbQ0BIXShbT0hdKUMxPVtDSDJdKVtDQEBIXTNbQ0gyXVtDSDJdW0NAXShbQ0gzXSkoW0NASF01W09IXSlbQ0gyXVtDSDJdW0NAQEhdMltDQEBIXShDKE80KT1PKVtDSDNd

>  <s_epik_cmdline>  (17) 
J2VwaWtfcHl0aG9uJywgJy1waHQnLCAnMi4wJywgJy1waCcsICc3LjAnLCAnLXRuJywgJzgnLCAnLW1hJywgJzIwMCcsICctaW1hZScsICc8aW5maWxlLm1hZT4nLCAnLW9tYWUnLCAnPG91dGZpbGUubWFlPic=

>  <r_lp_tautomer_probability>  (17) 
1

>  <r_epik_Ionization_Penalty>  (17) 
1.1067e-06

>  <r_epik_Ionization_Penalty_Charging>  (17) 
0

>  <r_epik_Ionization_Penalty_Neutral>  (17) 
1.1067e-06

>  <r_epik_State_Penalty>  (17) 
-0

>  <r_epik_Charging_Adjusted_Penalty>  (17) 
0

>  <i_epik_Tot_Q>  (17) 
0

>  <i_epik_Tot_abs_Q>  (17) 
0

>  <s_epik_Chemistry_Notes>  (17) 
This compound has an ester and may undergo hydrolysis at high or low pH.

>  <s_lp_Force_Field>  (17) 
OPLS3e

>  <r_lp_Energy>  (17) 
127.961

>  <b_lp_Chiralities_Consistent>  (17) 
1

>  <s_lp_Variant>  (17) 
4:0-1

>  <s_i_glide_gridfile>  (17) 
pfpi4k_grid

>  <i_i_glide_lignum>  (17) 
6

>  <i_i_glide_rotatable_bonds>  (17) 
2

>  <r_i_docking_score>  (17) 
-2.42596

>  <r_i_glide_ligand_efficiency>  (17) 
-0.0970383

>  <r_i_glide_ligand_efficiency_sa>  (17) 
-0.283742

>  <r_i_glide_ligand_efficiency_ln>  (17) 
-0.575024

>  <r_i_glide_gscore>  (17) 
-2.42596

>  <r_i_glide_lipo>  (17) 
-0.215634

>  <r_i_glide_hbond>  (17) 
-0.00158367

>  <r_i_glide_metal>  (17) 
-0

>  <r_i_glide_rewards>  (17) 
-1.04686

>  <r_i_glide_evdw>  (17) 
-17.8257

>  <r_i_glide_ecoul>  (17) 
-1.55377

>  <r_i_glide_erotb>  (17) 
0

>  <r_i_glide_esite>  (17) 
-0.0375269

>  <r_i_glide_emodel>  (17) 
-22.079

>  <r_i_glide_energy>  (17) 
-19.3795

>  <r_i_glide_einternal>  (17) 
0.664112

>  <r_i_glide_intrahb_reward>  (17) 
-0

>  <i_i_glide_confnum>  (17) 
2

>  <i_i_glide_posenum>  (17) 
20

>  <r_i_glide_eff_state_penalty>  (17) 
0

>  <ligand_id>  (17) 
4

>  <original_smiles>  (17) 
C=C1C(O)C2(C)C3CC4OC(=O)C(C)C5CCC(C)(CCC2C145)C3O

>  <smiles>  (17) 
[H]OC1([H])C(=C([H])[H])C23C4([H])OC(=O)C([H])(C([H])([H])[H])C2([H])C([H])([H])C([H])([H])C2(C([H])([H])[H])C([H])([H])C([H])([H])C3([H])C1(C([H])([H])[H])C([H])(C4([H])[H])C2([H])O[H]

$$$$
5:2:0
     RDKit          3D

 77 82  0  0  1  0  0  0  0  0999 V2000
    0.6175  -12.4606    4.8697 C   0  0  0  0  0  0  0  0  0  0  0  0
    0.6268  -11.8454    3.5957 O   0  0  0  0  0  0  0  0  0  0  0  0
    0.9767  -10.5042    3.5693 C   0  0  0  0  0  0  0  0  0  0  0  0
    0.5744   -9.7514    2.5614 C   0  0  0  0  0  0  0  0  0  0  0  0
    0.8745   -8.2654    2.4579 C   0  0  2  0  0  0  0  0  0  0  0  0
    1.2769   -7.8077    1.0599 C   0  0  0  0  0  0  0  0  0  0  0  0
    2.0119   -6.4932    1.3417 C   0  0  0  0  0  0  0  0  0  0  0  0
    1.8460   -5.5533    0.5550 O   0  0  0  0  0  0  0  0  0  0  0  0
    2.8276   -6.6705    2.5899 C   0  0  1  0  0  0  0  0  0  0  0  0
    4.2118   -7.1868    2.0754 C   0  0  0  0  0  0  0  0  0  0  0  0
    2.7407   -5.6298    3.8116 C   0  0  1  0  0  0  0  0  0  0  0  0
    4.0112   -5.7258    4.7238 C   0  0  0  0  0  0  0  0  0  0  0  0
    4.4707   -4.7392    5.4002 N   0  0  0  0  0  0  0  0  0  0  0  0
    5.6792   -5.1654    6.0322 O   0  0  0  0  0  0  0  0  0  0  0  0
    2.4836   -4.1120    3.5320 C   0  0  0  0  0  0  0  0  0  0  0  0
    3.3217   -3.6159    2.3528 C   0  0  0  0  0  0  0  0  0  0  0  0
    1.7864   -3.1577    4.2479 C   0  0  0  0  0  0  0  0  0  0  0  0
    1.7117   -1.7277    3.7017 C   0  0  0  0  0  0  0  0  0  0  0  0
    0.3991   -1.1218    4.1832 C   0  0  0  0  0  0  0  0  0  0  0  0
   -0.1689   -2.1316    5.1847 C   0  0  0  0  0  0  0  0  0  0  0  0
    0.9774   -3.0918    5.5994 C   0  0  2  0  0  0  0  0  0  0  0  0
    1.8629   -2.3293    6.6396 C   0  0  0  0  0  0  0  0  0  0  0  0
    0.3399   -4.3673    6.2903 C   0  0  2  0  0  0  0  0  0  0  0  0
   -0.6449   -4.0588    7.4342 C   0  0  0  0  0  0  0  0  0  0  0  0
   -1.8395   -3.8629    7.1697 O   0  0  0  0  0  0  0  0  0  0  0  0
   -0.1305   -4.0189    8.8697 C   0  0  0  0  0  0  0  0  0  0  0  0
   -0.7870   -3.5046    9.7863 O   0  0  0  0  0  0  0  0  0  0  0  0
    1.2593   -4.5928    9.1427 C   0  0  0  0  0  0  0  0  0  0  0  0
    1.5134   -5.8179    8.2402 C   0  0  1  0  0  0  0  0  0  0  0  0
    0.7646   -7.0527    8.7830 C   0  0  0  0  0  0  0  0  0  0  0  0
    1.3314   -5.4866    6.7155 C   0  0  1  0  0  0  0  0  0  0  0  0
    1.2427   -6.7132    5.7885 C   0  0  1  0  0  0  0  0  0  0  0  0
   -0.0142   -7.3606    5.9357 O   0  0  0  0  0  0  0  0  0  0  0  0
    1.5012   -6.4533    4.2867 C   0  0  1  0  0  0  0  0  0  0  0  0
    0.2927   -5.8758    3.7771 O   0  0  0  0  0  0  0  0  0  0  0  0
    1.9515   -7.6624    3.4160 C   0  0  1  0  0  0  0  0  0  0  0  0
    2.7238   -8.8238    4.0783 C   0  0  0  0  0  0  0  0  0  0  0  0
    1.8719   -9.9513    4.6498 C   0  0  0  0  0  0  0  0  0  0  0  0
    0.1376  -13.4440    4.8105 H   0  0  0  0  0  0  0  0  0  0  0  0
    0.0563  -11.8754    5.6018 H   0  0  0  0  0  0  0  0  0  0  0  0
    1.6317  -12.6471    5.2261 H   0  0  0  0  0  0  0  0  0  0  0  0
   -0.0408  -10.1747    1.7770 H   0  0  0  0  0  0  0  0  0  0  0  0
   -0.1185   -7.8476    2.6157 H   0  0  0  0  0  0  0  0  0  0  0  0
    1.9437   -8.5665    0.6416 H   0  0  0  0  0  0  0  0  0  0  0  0
    0.4449   -7.6026    0.4147 H   0  0  0  0  0  0  0  0  0  0  0  0
    4.8195   -7.6716    2.8363 H   0  0  0  0  0  0  0  0  0  0  0  0
    4.8116   -6.3984    1.6275 H   0  0  0  0  0  0  0  0  0  0  0  0
    4.0677   -7.9561    1.3114 H   0  0  0  0  0  0  0  0  0  0  0  0
    4.4938   -6.6969    4.7753 H   0  0  0  0  0  0  0  0  0  0  0  0
    5.7970   -5.9906    5.6436 H   0  0  0  0  0  0  0  0  0  0  0  0
    4.0344   -4.3529    2.0170 H   0  0  0  0  0  0  0  0  0  0  0  0
    3.9244   -2.7642    2.6688 H   0  0  0  0  0  0  0  0  0  0  0  0
    2.7163   -3.3091    1.4992 H   0  0  0  0  0  0  0  0  0  0  0  0
    2.5502   -1.1552    4.1019 H   0  0  0  0  0  0  0  0  0  0  0  0
    1.7802   -1.6508    2.6189 H   0  0  0  0  0  0  0  0  0  0  0  0
    0.5620   -0.1512    4.6493 H   0  0  0  0  0  0  0  0  0  0  0  0
   -0.2805   -0.9765    3.3457 H   0  0  0  0  0  0  0  0  0  0  0  0
   -0.6506   -1.6370    6.0242 H   0  0  0  0  0  0  0  0  0  0  0  0
   -0.9362   -2.7072    4.6697 H   0  0  0  0  0  0  0  0  0  0  0  0
    1.3088   -2.0609    7.5365 H   0  0  0  0  0  0  0  0  0  0  0  0
    2.2514   -1.3874    6.2572 H   0  0  0  0  0  0  0  0  0  0  0  0
    2.7341   -2.9166    6.9390 H   0  0  0  0  0  0  0  0  0  0  0  0
   -0.3726   -4.7894    5.6037 H   0  0  0  0  0  0  0  0  0  0  0  0
    1.9989   -3.8134    8.9698 H   0  0  0  0  0  0  0  0  0  0  0  0
    1.3400   -4.8752   10.1922 H   0  0  0  0  0  0  0  0  0  0  0  0
    2.5736   -6.0604    8.3694 H   0  0  0  0  0  0  0  0  0  0  0  0
   -0.3139   -6.9758    8.6367 H   0  0  0  0  0  0  0  0  0  0  0  0
    0.9613   -7.1800    9.8519 H   0  0  0  0  0  0  0  0  0  0  0  0
    1.1117   -7.9651    8.2959 H   0  0  0  0  0  0  0  0  0  0  0  0
    2.2874   -5.0358    6.5345 H   0  0  0  0  0  0  0  0  0  0  0  0
    2.0037   -7.3965    6.1796 H   0  0  0  0  0  0  0  0  0  0  0  0
    0.0528   -8.1916    5.5160 H   0  0  0  0  0  0  0  0  0  0  0  0
    0.1741   -5.0710    4.2296 H   0  0  0  0  0  0  0  0  0  0  0  0
    3.3537   -9.2991    3.3244 H   0  0  0  0  0  0  0  0  0  0  0  0
    3.3911   -8.4664    4.8628 H   0  0  0  0  0  0  0  0  0  0  0  0
    1.2490   -9.6258    5.4891 H   0  0  0  0  0  0  0  0  0  0  0  0
    2.5790  -10.7026    4.9993 H   0  0  0  0  0  0  0  0  0  0  0  0
  1  2  1  0
  1 39  1  0
  1 40  1  0
  1 41  1  0
  2  3  1  0
  3 38  1  0
  3  4  2  0
  4  5  1  0
  4 42  1  0
  5 36  1  0
  5  6  1  0
  5 43  1  1
  6  7  1  0
  6 44  1  0
  6 45  1  0
  7  8  2  0
  7  9  1  0
  9 36  1  0
  9 10  1  6
  9 11  1  0
 10 46  1  0
 10 47  1  0
 10 48  1  0
 11 34  1  0
 11 12  1  1
 11 15  1  0
 12 13  2  3
 12 49  1  0
 13 14  1  0
 14 50  1  0
 15 16  1  0
 15 17  2  3
 16 51  1  0
 16 52  1  0
 16 53  1  0
 17 21  1  0
 17 18  1  0
 18 19  1  0
 18 54  1  0
 18 55  1  0
 19 20  1  0
 19 56  1  0
 19 57  1  0
 20 21  1  0
 20 58  1  0
 20 59  1  0
 21 22  1  1
 21 23  1  0
 22 60  1  0
 22 61  1  0
 22 62  1  0
 23 31  1  0
 23 24  1  0
 23 63  1  6
 24 25  2  0
 24 26  1  0
 26 27  2  0
 26 28  1  0
 28 29  1  0
 28 64  1  0
 28 65  1  0
 29 30  1  0
 29 31  1  0
 29 66  1  6
 30 67  1  0
 30 68  1  0
 30 69  1  0
 31 32  1  0
 31 70  1  6
 32 33  1  0
 32 34  1  0
 32 71  1  1
 33 72  1  0
 34 35  1  6
 34 36  1  0
 35 73  1  0
 36 37  1  1
 37 38  1  0
 37 74  1  0
 37 75  1  0
 38 76  1  0
 38 77  1  0
M  END
>  <i_m_ct_stereo_status>  (18) 
1

>  <s_m_source_file>  (18) 
/var/tmp/pbs.5076255.sched01/tmplremgrqo/0ygzoxw5b.sdf

>  <i_m_source_file_index>  (18) 
9

>  <i_lp_mmshare_version>  (18) 
48012

>  <i_f3d_flags>  (18) 
0

>  <s_epik_input>  (18) 
W0NIM11PQyhbQ0gyXVtDSDJdMSk9W0NIXVtDQEBIXShbQ0BAXTEyMylbQ0gyXUMoPU8pW0NAQF0yKFtDSDNdKVtDQF00KC9bQ0hdPU4vW09IXSlbQ0BdMyhbT0hdKVtDQEhdKFtPSF0pW0NASF01W0NASF0oW0NAQF02KFtDSDNdKUMoPUNcNFtDSDNdKS9bQ0gyXVtDSDJdW0NIMl02KUMoPU8pQyg9TylbQ0gyXVtDQEhdNVtDSDNd

>  <s_epik_cmdline>  (18) 
J2VwaWtfcHl0aG9uJywgJy1waHQnLCAnMi4wJywgJy1waCcsICc3LjAnLCAnLXRuJywgJzgnLCAnLW1hJywgJzIwMCcsICctaW1hZScsICc8aW5maWxlLm1hZT4nLCAnLW9tYWUnLCAnPG91dGZpbGUubWFlPic=

>  <r_lp_tautomer_probability>  (18) 
1

>  <r_epik_Ionization_Penalty>  (18) 
5.89014e-06

>  <r_epik_Ionization_Penalty_Charging>  (18) 
0

>  <r_epik_Ionization_Penalty_Neutral>  (18) 
5.89014e-06

>  <r_epik_State_Penalty>  (18) 
-0

>  <r_epik_Charging_Adjusted_Penalty>  (18) 
0

>  <i_epik_Tot_Q>  (18) 
0

>  <i_epik_Tot_abs_Q>  (18) 
0

>  <s_epik_Chemistry_Notes>  (18) 
This compound has an imine and may undergo hydrolysis.

>  <s_lp_Force_Field>  (18) 
OPLS3e

>  <r_lp_Energy>  (18) 
101.747

>  <b_lp_Chiralities_Consistent>  (18) 
1

>  <s_lp_Variant>  (18) 
5:0-3

>  <s_i_glide_gridfile>  (18) 
pfpi4k_grid

>  <i_i_glide_lignum>  (18) 
9

>  <i_i_glide_rotatable_bonds>  (18) 
5

>  <r_i_docking_score>  (18) 
-2.21453

>  <r_i_glide_ligand_efficiency>  (18) 
-0.058277

>  <r_i_glide_ligand_efficiency_sa>  (18) 
-0.195926

>  <r_i_glide_ligand_efficiency_ln>  (18) 
-0.477517

>  <r_i_glide_gscore>  (18) 
-2.21453

>  <r_i_glide_lipo>  (18) 
-0.175171

>  <r_i_glide_hbond>  (18) 
-0.181832

>  <r_i_glide_metal>  (18) 
-0

>  <r_i_glide_rewards>  (18) 
0

>  <r_i_glide_evdw>  (18) 
-23.0807

>  <r_i_glide_ecoul>  (18) 
-5.15184

>  <r_i_glide_erotb>  (18) 
0.149003

>  <r_i_glide_esite>  (18) 
-0.0797134

>  <r_i_glide_emodel>  (18) 
-28.5989

>  <r_i_glide_energy>  (18) 
-28.2326

>  <r_i_glide_einternal>  (18) 
6.77079

>  <r_i_glide_intrahb_reward>  (18) 
-0

>  <i_i_glide_confnum>  (18) 
4

>  <i_i_glide_posenum>  (18) 
13

>  <r_i_glide_eff_state_penalty>  (18) 
0

>  <ligand_id>  (18) 
5

>  <original_smiles>  (18) 
COC1=CC2CC(=O)C3(C)C4(C=NO)C(C)=C5CCCC5(C)C5C(=O)C(=O)CC(C)C5C(O)C4(O)C23CC1

>  <smiles>  (18) 
[H]ON=C([H])C12C(C([H])([H])[H])=C3C([H])([H])C([H])([H])C([H])([H])C3(C([H])([H])[H])C3([H])C(=O)C(=O)C([H])([H])C([H])(C([H])([H])[H])C3([H])C([H])(O[H])C1(O[H])C13C([H])([H])C([H])([H])C(OC([H])([H])[H])=C([H])C1([H])C([H])([H])C(=O)C23C([H])([H])[H]

$$$$
5:2:1
     RDKit          3D

 77 82  0  0  1  0  0  0  0  0999 V2000
    5.4567   -3.7985   -2.9929 C   0  0  0  0  0  0  0  0  0  0  0  0
    4.6913   -2.7896   -2.3400 O   0  0  0  0  0  0  0  0  0  0  0  0
    4.3739   -2.9994   -1.0150 C   0  0  0  0  0  0  0  0  0  0  0  0
    3.4557   -2.2227   -0.4136 C   0  0  0  0  0  0  0  0  0  0  0  0
    2.9990   -2.4260    1.0304 C   0  0  2  0  0  0  0  0  0  0  0  0
    2.8180   -1.1331    1.8369 C   0  0  0  0  0  0  0  0  0  0  0  0
    2.8900   -1.6345    3.2759 C   0  0  0  0  0  0  0  0  0  0  0  0
    2.1642   -1.1595    4.1446 O   0  0  0  0  0  0  0  0  0  0  0  0
    3.9494   -2.7323    3.3457 C   0  0  1  0  0  0  0  0  0  0  0  0
    5.2662   -1.9823    3.6694 C   0  0  0  0  0  0  0  0  0  0  0  0
    3.6691   -4.1584    4.0224 C   0  0  1  0  0  0  0  0  0  0  0  0
    4.9950   -4.7923    4.5196 C   0  0  0  0  0  0  0  0  0  0  0  0
    5.7886   -5.5296    3.8714 N   0  0  0  0  0  0  0  0  0  0  0  0
    6.8797   -5.8475    4.7196 O   0  0  0  0  0  0  0  0  0  0  0  0
    2.7021   -4.2721    5.2487 C   0  0  0  0  0  0  0  0  0  0  0  0
    2.9270   -3.1346    6.2553 C   0  0  0  0  0  0  0  0  0  0  0  0
    1.8286   -5.2744    5.6263 C   0  0  0  0  0  0  0  0  0  0  0  0
    0.9721   -5.0824    6.8830 C   0  0  0  0  0  0  0  0  0  0  0  0
   -0.3314   -5.8417    6.6670 C   0  0  0  0  0  0  0  0  0  0  0  0
   -0.1185   -6.6493    5.3898 C   0  0  0  0  0  0  0  0  0  0  0  0
    1.4033   -6.6966    5.1020 C   0  0  2  0  0  0  0  0  0  0  0  0
    2.0421   -7.7565    6.0527 C   0  0  0  0  0  0  0  0  0  0  0  0
    1.6017   -7.1717    3.5992 C   0  0  2  0  0  0  0  0  0  0  0  0
    0.8515   -8.4776    3.2294 C   0  0  0  0  0  0  0  0  0  0  0  0
   -0.3252   -8.4447    2.8700 O   0  0  0  0  0  0  0  0  0  0  0  0
    1.6219   -9.8090    3.3027 C   0  0  0  0  0  0  0  0  0  0  0  0
    1.0387  -10.8950    3.2635 O   0  0  0  0  0  0  0  0  0  0  0  0
    3.1355   -9.7263    3.4688 C   0  0  0  0  0  0  0  0  0  0  0  0
    3.7313   -8.5433    2.6843 C   0  0  1  0  0  0  0  0  0  0  0  0
    3.7848   -8.8871    1.1800 C   0  0  0  0  0  0  0  0  0  0  0  0
    3.0649   -7.1692    3.0778 C   0  0  1  0  0  0  0  0  0  0  0  0
    3.3352   -6.0158    2.0773 C   0  0  1  0  0  0  0  0  0  0  0  0
    2.5904   -6.1827    0.8829 O   0  0  0  0  0  0  0  0  0  0  0  0
    3.0966   -4.5890    2.6309 C   0  0  1  0  0  0  0  0  0  0  0  0
    1.6923   -4.4074    2.6066 O   0  0  0  0  0  0  0  0  0  0  0  0
    3.8436   -3.3898    1.9341 C   0  0  1  0  0  0  0  0  0  0  0  0
    5.2012   -3.6538    1.2284 C   0  0  0  0  0  0  0  0  0  0  0  0
    5.1173   -4.0670   -0.2363 C   0  0  0  0  0  0  0  0  0  0  0  0
    5.4796   -3.6167   -4.0645 H   0  0  0  0  0  0  0  0  0  0  0  0
    5.0168   -4.7884   -2.8548 H   0  0  0  0  0  0  0  0  0  0  0  0
    6.4917   -3.8069   -2.6428 H   0  0  0  0  0  0  0  0  0  0  0  0
    2.9588   -1.4471   -0.9784 H   0  0  0  0  0  0  0  0  0  0  0  0
    1.9929   -2.8174    0.8769 H   0  0  0  0  0  0  0  0  0  0  0  0
    3.6268   -0.4185    1.6446 H   0  0  0  0  0  0  0  0  0  0  0  0
    1.8542   -0.6579    1.6415 H   0  0  0  0  0  0  0  0  0  0  0  0
    6.1344   -2.6149    3.4908 H   0  0  0  0  0  0  0  0  0  0  0  0
    5.3239   -1.6377    4.7024 H   0  0  0  0  0  0  0  0  0  0  0  0
    5.4201   -1.1109    3.0297 H   0  0  0  0  0  0  0  0  0  0  0  0
    5.2215   -4.5450    5.5574 H   0  0  0  0  0  0  0  0  0  0  0  0
    7.4292   -6.3572    4.1417 H   0  0  0  0  0  0  0  0  0  0  0  0
    3.7979   -2.5306    6.0282 H   0  0  0  0  0  0  0  0  0  0  0  0
    3.1119   -3.5483    7.2474 H   0  0  0  0  0  0  0  0  0  0  0  0
    2.0655   -2.4723    6.3154 H   0  0  0  0  0  0  0  0  0  0  0  0
    1.5057   -5.4962    7.7398 H   0  0  0  0  0  0  0  0  0  0  0  0
    0.7525   -4.0480    7.1329 H   0  0  0  0  0  0  0  0  0  0  0  0
   -0.5395   -6.4889    7.5173 H   0  0  0  0  0  0  0  0  0  0  0  0
   -1.1750   -5.1615    6.5559 H   0  0  0  0  0  0  0  0  0  0  0  0
   -0.5763   -7.6344    5.4624 H   0  0  0  0  0  0  0  0  0  0  0  0
   -0.6172   -6.1251    4.5739 H   0  0  0  0  0  0  0  0  0  0  0  0
    1.6460   -8.7566    5.8834 H   0  0  0  0  0  0  0  0  0  0  0  0
    1.8509   -7.5568    7.1066 H   0  0  0  0  0  0  0  0  0  0  0  0
    3.1259   -7.7971    5.9413 H   0  0  0  0  0  0  0  0  0  0  0  0
    1.0259   -6.4947    2.9862 H   0  0  0  0  0  0  0  0  0  0  0  0
    3.3714   -9.6490    4.5282 H   0  0  0  0  0  0  0  0  0  0  0  0
    3.5777  -10.6627    3.1193 H   0  0  0  0  0  0  0  0  0  0  0  0
    4.7774   -8.4710    2.9875 H   0  0  0  0  0  0  0  0  0  0  0  0
    2.7866   -8.9445    0.7487 H   0  0  0  0  0  0  0  0  0  0  0  0
    4.2602   -9.8547    1.0210 H   0  0  0  0  0  0  0  0  0  0  0  0
    4.3752   -8.1613    0.6179 H   0  0  0  0  0  0  0  0  0  0  0  0
    3.6302   -6.9372    3.9679 H   0  0  0  0  0  0  0  0  0  0  0  0
    4.3784   -6.1272    1.7834 H   0  0  0  0  0  0  0  0  0  0  0  0
    2.9841   -5.6254    0.2280 H   0  0  0  0  0  0  0  0  0  0  0  0
    1.5254   -3.5148    2.8581 H   0  0  0  0  0  0  0  0  0  0  0  0
    5.7998   -2.7415    1.2452 H   0  0  0  0  0  0  0  0  0  0  0  0
    5.7978   -4.4070    1.7238 H   0  0  0  0  0  0  0  0  0  0  0  0
    4.6283   -5.0345   -0.3711 H   0  0  0  0  0  0  0  0  0  0  0  0
    6.1532   -4.1580   -0.5633 H   0  0  0  0  0  0  0  0  0  0  0  0
  1  2  1  0
  1 39  1  0
  1 40  1  0
  1 41  1  0
  2  3  1  0
  3 38  1  0
  3  4  2  0
  4  5  1  0
  4 42  1  0
  5 36  1  0
  5  6  1  0
  5 43  1  6
  6  7  1  0
  6 44  1  0
  6 45  1  0
  7  8  2  0
  7  9  1  0
  9 36  1  0
  9 10  1  1
  9 11  1  0
 10 46  1  0
 10 47  1  0
 10 48  1  0
 11 34  1  0
 11 12  1  1
 11 15  1  0
 12 13  2  3
 12 49  1  0
 13 14  1  0
 14 50  1  0
 15 16  1  0
 15 17  2  3
 16 51  1  0
 16 52  1  0
 16 53  1  0
 17 21  1  0
 17 18  1  0
 18 19  1  0
 18 54  1  0
 18 55  1  0
 19 20  1  0
 19 56  1  0
 19 57  1  0
 20 21  1  0
 20 58  1  0
 20 59  1  0
 21 22  1  1
 21 23  1  0
 22 60  1  0
 22 61  1  0
 22 62  1  0
 23 31  1  0
 23 24  1  0
 23 63  1  6
 24 25  2  0
 24 26  1  0
 26 27  2  0
 26 28  1  0
 28 29  1  0
 28 64  1  0
 28 65  1  0
 29 30  1  0
 29 31  1  0
 29 66  1  1
 30 67  1  0
 30 68  1  0
 30 69  1  0
 31 32  1  0
 31 70  1  1
 32 33  1  0
 32 34  1  0
 32 71  1  6
 33 72  1  0
 34 35  1  1
 34 36  1  0
 35 73  1  0
 36 37  1  6
 37 38  1  0
 37 74  1  0
 37 75  1  0
 38 76  1  0
 38 77  1  0
M  END
>  <i_m_ct_stereo_status>  (19) 
1

>  <s_m_source_file>  (19) 
/var/tmp/pbs.5076255.sched01/tmplremgrqo/0ygzoxw5b.sdf

>  <i_m_source_file_index>  (19) 
9

>  <i_lp_mmshare_version>  (19) 
48012

>  <i_f3d_flags>  (19) 
0

>  <s_epik_input>  (19) 
W0NIM11PQyhbQ0gyXVtDSDJdMSk9W0NIXVtDQEBIXShbQ0BAXTEyMylbQ0gyXUMoPU8pW0NAQF0yKFtDSDNdKVtDQF00KC9bQ0hdPU4vW09IXSlbQ0BdMyhbT0hdKVtDQEhdKFtPSF0pW0NASF01W0NASF0oW0NAQF02KFtDSDNdKUMoPUNcNFtDSDNdKS9bQ0gyXVtDSDJdW0NIMl02KUMoPU8pQyg9TylbQ0gyXVtDQEhdNVtDSDNd

>  <s_epik_cmdline>  (19) 
J2VwaWtfcHl0aG9uJywgJy1waHQnLCAnMi4wJywgJy1waCcsICc3LjAnLCAnLXRuJywgJzgnLCAnLW1hJywgJzIwMCcsICctaW1hZScsICc8aW5maWxlLm1hZT4nLCAnLW9tYWUnLCAnPG91dGZpbGUubWFlPic=

>  <r_lp_tautomer_probability>  (19) 
1

>  <r_epik_Ionization_Penalty>  (19) 
5.89014e-06

>  <r_epik_Ionization_Penalty_Charging>  (19) 
0

>  <r_epik_Ionization_Penalty_Neutral>  (19) 
5.89014e-06

>  <r_epik_State_Penalty>  (19) 
-0

>  <r_epik_Charging_Adjusted_Penalty>  (19) 
0

>  <i_epik_Tot_Q>  (19) 
0

>  <i_epik_Tot_abs_Q>  (19) 
0

>  <s_epik_Chemistry_Notes>  (19) 
This compound has an imine and may undergo hydrolysis.

>  <s_lp_Force_Field>  (19) 
OPLS3e

>  <r_lp_Energy>  (19) 
101.747

>  <b_lp_Chiralities_Consistent>  (19) 
1

>  <s_lp_Variant>  (19) 
5:0-3

>  <s_i_glide_gridfile>  (19) 
pfpi4k_grid

>  <i_i_glide_lignum>  (19) 
9

>  <i_i_glide_rotatable_bonds>  (19) 
5

>  <r_i_docking_score>  (19) 
-1.88131

>  <r_i_glide_ligand_efficiency>  (19) 
-0.0495082

>  <r_i_glide_ligand_efficiency_sa>  (19) 
-0.166445

>  <r_i_glide_ligand_efficiency_ln>  (19) 
-0.405666

>  <r_i_glide_gscore>  (19) 
-1.88131

>  <r_i_glide_lipo>  (19) 
-0.272651

>  <r_i_glide_hbond>  (19) 
0

>  <r_i_glide_metal>  (19) 
-0

>  <r_i_glide_rewards>  (19) 
-0.0380284

>  <r_i_glide_evdw>  (19) 
-27.2876

>  <r_i_glide_ecoul>  (19) 
-2.22975

>  <r_i_glide_erotb>  (19) 
0.149003

>  <r_i_glide_esite>  (19) 
-0.0207944

>  <r_i_glide_emodel>  (19) 
-30.2742

>  <r_i_glide_energy>  (19) 
-29.5173

>  <r_i_glide_einternal>  (19) 
5.33964

>  <r_i_glide_intrahb_reward>  (19) 
-0

>  <i_i_glide_confnum>  (19) 
6

>  <i_i_glide_posenum>  (19) 
30

>  <r_i_glide_eff_state_penalty>  (19) 
0

>  <ligand_id>  (19) 
5

>  <original_smiles>  (19) 
COC1=CC2CC(=O)C3(C)C4(C=NO)C(C)=C5CCCC5(C)C5C(=O)C(=O)CC(C)C5C(O)C4(O)C23CC1

>  <smiles>  (19) 
[H]ON=C([H])C12C(C([H])([H])[H])=C3C([H])([H])C([H])([H])C([H])([H])C3(C([H])([H])[H])C3([H])C(=O)C(=O)C([H])([H])C([H])(C([H])([H])[H])C3([H])C([H])(O[H])C1(O[H])C13C([H])([H])C([H])([H])C(OC([H])([H])[H])=C([H])C1([H])C([H])([H])C(=O)C23C([H])([H])[H]

$$$$
5:2:2
     RDKit          3D

 77 82  0  0  1  0  0  0  0  0999 V2000
    4.2496   -1.3780   -2.6601 C   0  0  0  0  0  0  0  0  0  0  0  0
    4.7311   -2.5233   -1.9624 O   0  0  0  0  0  0  0  0  0  0  0  0
    4.2976   -2.7015   -0.6555 C   0  0  0  0  0  0  0  0  0  0  0  0
    3.4368   -1.9233    0.0142 C   0  0  0  0  0  0  0  0  0  0  0  0
    2.9856   -2.2024    1.4276 C   0  0  2  0  0  0  0  0  0  0  0  0
    2.9020   -0.9114    2.2685 C   0  0  0  0  0  0  0  0  0  0  0  0
    2.9508   -1.4647    3.6883 C   0  0  0  0  0  0  0  0  0  0  0  0
    2.2549   -0.9148    4.5434 O   0  0  0  0  0  0  0  0  0  0  0  0
    3.9316   -2.6169    3.7059 C   0  0  1  0  0  0  0  0  0  0  0  0
    5.2785   -1.9036    4.0255 C   0  0  0  0  0  0  0  0  0  0  0  0
    3.5448   -4.0340    4.3532 C   0  0  1  0  0  0  0  0  0  0  0  0
    4.8100   -4.8511    4.7549 C   0  0  0  0  0  0  0  0  0  0  0  0
    4.8297   -5.7378    5.6745 N   0  0  0  0  0  0  0  0  0  0  0  0
    6.1752   -6.1927    5.7829 O   0  0  0  0  0  0  0  0  0  0  0  0
    2.5587   -4.1050    5.5566 C   0  0  0  0  0  0  0  0  0  0  0  0
    2.8642   -3.0271    6.5886 C   0  0  0  0  0  0  0  0  0  0  0  0
    1.6064   -5.0545    5.8969 C   0  0  0  0  0  0  0  0  0  0  0  0
    0.7684   -4.8294    7.1566 C   0  0  0  0  0  0  0  0  0  0  0  0
   -0.5856   -5.4915    6.9299 C   0  0  0  0  0  0  0  0  0  0  0  0
   -0.4294   -6.2783    5.6212 C   0  0  0  0  0  0  0  0  0  0  0  0
    1.0791   -6.4216    5.3148 C   0  0  2  0  0  0  0  0  0  0  0  0
    1.6310   -7.5579    6.2370 C   0  0  0  0  0  0  0  0  0  0  0  0
    1.2162   -6.8694    3.7976 C   0  0  2  0  0  0  0  0  0  0  0  0
    0.3856   -8.1047    3.3983 C   0  0  0  0  0  0  0  0  0  0  0  0
   -0.7876   -7.9460    3.0352 O   0  0  0  0  0  0  0  0  0  0  0  0
    1.0526   -9.4791    3.4126 C   0  0  0  0  0  0  0  0  0  0  0  0
    0.4304  -10.5341    3.2949 O   0  0  0  0  0  0  0  0  0  0  0  0
    2.5670   -9.5253    3.5988 C   0  0  0  0  0  0  0  0  0  0  0  0
    3.2423   -8.3680    2.8371 C   0  0  1  0  0  0  0  0  0  0  0  0
    3.2707   -8.6695    1.3271 C   0  0  0  0  0  0  0  0  0  0  0  0
    2.6692   -6.9692    3.2615 C   0  0  1  0  0  0  0  0  0  0  0  0
    3.0486   -5.7962    2.3283 C   0  0  1  0  0  0  0  0  0  0  0  0
    2.3020   -5.8502    1.1069 O   0  0  0  0  0  0  0  0  0  0  0  0
    2.9411   -4.3805    2.9561 C   0  0  1  0  0  0  0  0  0  0  0  0
    1.5543   -4.0942    2.9459 O   0  0  0  0  0  0  0  0  0  0  0  0
    3.7727   -3.2412    2.2822 C   0  0  1  0  0  0  0  0  0  0  0  0
    5.0968   -3.5773    1.5436 C   0  0  0  0  0  0  0  0  0  0  0  0
    4.9676   -3.8704    0.0323 C   0  0  0  0  0  0  0  0  0  0  0  0
    4.7121   -1.2831   -3.6502 H   0  0  0  0  0  0  0  0  0  0  0  0
    4.4936   -0.4656   -2.1096 H   0  0  0  0  0  0  0  0  0  0  0  0
    3.1680   -1.4383   -2.8128 H   0  0  0  0  0  0  0  0  0  0  0  0
    2.9168   -1.0717   -0.4011 H   0  0  0  0  0  0  0  0  0  0  0  0
    1.9534   -2.5171    1.2750 H   0  0  0  0  0  0  0  0  0  0  0  0
    3.7733   -0.2571    2.0813 H   0  0  0  0  0  0  0  0  0  0  0  0
    1.9826   -0.3589    2.0856 H   0  0  0  0  0  0  0  0  0  0  0  0
    6.1344   -2.4872    3.7284 H   0  0  0  0  0  0  0  0  0  0  0  0
    5.3819   -1.6360    5.0755 H   0  0  0  0  0  0  0  0  0  0  0  0
    5.3866   -0.9735    3.4550 H   0  0  0  0  0  0  0  0  0  0  0  0
    5.7287   -4.6536    4.2217 H   0  0  0  0  0  0  0  0  0  0  0  0
    6.0767   -6.9396    6.3476 H   0  0  0  0  0  0  0  0  0  0  0  0
    3.7811   -2.4990    6.3741 H   0  0  0  0  0  0  0  0  0  0  0  0
    3.0210   -3.4884    7.5619 H   0  0  0  0  0  0  0  0  0  0  0  0
    2.0624   -2.2965    6.6802 H   0  0  0  0  0  0  0  0  0  0  0  0
    1.2742   -5.3049    7.9951 H   0  0  0  0  0  0  0  0  0  0  0  0
    0.6282   -3.7904    7.4369 H   0  0  0  0  0  0  0  0  0  0  0  0
   -0.8361   -6.1484    7.7627 H   0  0  0  0  0  0  0  0  0  0  0  0
   -1.3816   -4.7505    6.8385 H   0  0  0  0  0  0  0  0  0  0  0  0
   -0.9519   -7.2306    5.6465 H   0  0  0  0  0  0  0  0  0  0  0  0
   -0.8797   -5.6943    4.8199 H   0  0  0  0  0  0  0  0  0  0  0  0
    1.1578   -8.5182    6.0361 H   0  0  0  0  0  0  0  0  0  0  0  0
    1.4565   -7.3736    7.2978 H   0  0  0  0  0  0  0  0  0  0  0  0
    2.7118   -7.6806    6.1215 H   0  0  0  0  0  0  0  0  0  0  0  0
    0.6995   -6.1288    3.2145 H   0  0  0  0  0  0  0  0  0  0  0  0
    2.8109   -9.4916    4.6597 H   0  0  0  0  0  0  0  0  0  0  0  0
    2.9470  -10.4782    3.2209 H   0  0  0  0  0  0  0  0  0  0  0  0
    4.2985   -8.3755    3.1408 H   0  0  0  0  0  0  0  0  0  0  0  0
    2.2639   -8.6158    0.9140 H   0  0  0  0  0  0  0  0  0  0  0  0
    3.6680   -9.6745    1.1355 H   0  0  0  0  0  0  0  0  0  0  0  0
    3.9192   -7.9710    0.7938 H   0  0  0  0  0  0  0  0  0  0  0  0
    3.2520   -6.8389    4.1524 H   0  0  0  0  0  0  0  0  0  0  0  0
    4.0943   -5.9917    2.0705 H   0  0  0  0  0  0  0  0  0  0  0  0
    2.7827   -5.3631    0.4619 H   0  0  0  0  0  0  0  0  0  0  0  0
    1.4568   -3.1909    3.1712 H   0  0  0  0  0  0  0  0  0  0  0  0
    5.7719   -2.7192    1.5972 H   0  0  0  0  0  0  0  0  0  0  0  0
    5.6218   -4.4026    2.0315 H   0  0  0  0  0  0  0  0  0  0  0  0
    4.3920   -4.7812   -0.1542 H   0  0  0  0  0  0  0  0  0  0  0  0
    5.9465   -4.0091   -0.4289 H   0  0  0  0  0  0  0  0  0  0  0  0
  1  2  1  0
  1 39  1  0
  1 40  1  0
  1 41  1  0
  2  3  1  0
  3 38  1  0
  3  4  2  0
  4  5  1  0
  4 42  1  0
  5 36  1  0
  5  6  1  0
  5 43  1  6
  6  7  1  0
  6 44  1  0
  6 45  1  0
  7  8  2  0
  7  9  1  0
  9 36  1  0
  9 10  1  1
  9 11  1  0
 10 46  1  0
 10 47  1  0
 10 48  1  0
 11 34  1  0
 11 12  1  1
 11 15  1  0
 12 13  2  3
 12 49  1  0
 13 14  1  0
 14 50  1  0
 15 16  1  0
 15 17  2  3
 16 51  1  0
 16 52  1  0
 16 53  1  0
 17 21  1  0
 17 18  1  0
 18 19  1  0
 18 54  1  0
 18 55  1  0
 19 20  1  0
 19 56  1  0
 19 57  1  0
 20 21  1  0
 20 58  1  0
 20 59  1  0
 21 22  1  1
 21 23  1  0
 22 60  1  0
 22 61  1  0
 22 62  1  0
 23 31  1  0
 23 24  1  0
 23 63  1  6
 24 25  2  0
 24 26  1  0
 26 27  2  0
 26 28  1  0
 28 29  1  0
 28 64  1  0
 28 65  1  0
 29 30  1  0
 29 31  1  0
 29 66  1  1
 30 67  1  0
 30 68  1  0
 30 69  1  0
 31 32  1  0
 31 70  1  1
 32 33  1  0
 32 34  1  0
 32 71  1  6
 33 72  1  0
 34 35  1  1
 34 36  1  0
 35 73  1  0
 36 37  1  6
 37 38  1  0
 37 74  1  0
 37 75  1  0
 38 76  1  0
 38 77  1  0
M  END
>  <i_m_ct_stereo_status>  (20) 
1

>  <s_m_source_file>  (20) 
/var/tmp/pbs.5076255.sched01/tmplremgrqo/0ygzoxw5b.sdf

>  <i_m_source_file_index>  (20) 
9

>  <i_lp_mmshare_version>  (20) 
48012

>  <i_f3d_flags>  (20) 
0

>  <s_epik_input>  (20) 
W0NIM11PQyhbQ0gyXVtDSDJdMSk9W0NIXVtDQEBIXShbQ0BAXTEyMylbQ0gyXUMoPU8pW0NAQF0yKFtDSDNdKVtDQF00KC9bQ0hdPU4vW09IXSlbQ0BdMyhbT0hdKVtDQEhdKFtPSF0pW0NASF01W0NASF0oW0NAQF02KFtDSDNdKUMoPUNcNFtDSDNdKS9bQ0gyXVtDSDJdW0NIMl02KUMoPU8pQyg9TylbQ0gyXVtDQEhdNVtDSDNd

>  <s_epik_cmdline>  (20) 
J2VwaWtfcHl0aG9uJywgJy1waHQnLCAnMi4wJywgJy1waCcsICc3LjAnLCAnLXRuJywgJzgnLCAnLW1hJywgJzIwMCcsICctaW1hZScsICc8aW5maWxlLm1hZT4nLCAnLW9tYWUnLCAnPG91dGZpbGUubWFlPic=

>  <r_lp_tautomer_probability>  (20) 
1

>  <r_epik_Ionization_Penalty>  (20) 
5.89014e-06

>  <r_epik_Ionization_Penalty_Charging>  (20) 
0

>  <r_epik_Ionization_Penalty_Neutral>  (20) 
5.89014e-06

>  <r_epik_State_Penalty>  (20) 
-0

>  <r_epik_Charging_Adjusted_Penalty>  (20) 
0

>  <i_epik_Tot_Q>  (20) 
0

>  <i_epik_Tot_abs_Q>  (20) 
0

>  <s_epik_Chemistry_Notes>  (20) 
This compound has an imine and may undergo hydrolysis.

>  <s_lp_Force_Field>  (20) 
OPLS3e

>  <r_lp_Energy>  (20) 
101.747

>  <b_lp_Chiralities_Consistent>  (20) 
1

>  <s_lp_Variant>  (20) 
5:0-3

>  <s_i_glide_gridfile>  (20) 
pfpi4k_grid

>  <i_i_glide_lignum>  (20) 
9

>  <i_i_glide_rotatable_bonds>  (20) 
5

>  <r_i_docking_score>  (20) 
-1.64217

>  <r_i_glide_ligand_efficiency>  (20) 
-0.0432151

>  <r_i_glide_ligand_efficiency_sa>  (20) 
-0.145288

>  <r_i_glide_ligand_efficiency_ln>  (20) 
-0.354101

>  <r_i_glide_gscore>  (20) 
-1.64217

>  <r_i_glide_lipo>  (20) 
-0.201499

>  <r_i_glide_hbond>  (20) 
0

>  <r_i_glide_metal>  (20) 
-0

>  <r_i_glide_rewards>  (20) 
-0.000256907

>  <r_i_glide_evdw>  (20) 
-25.7289

>  <r_i_glide_ecoul>  (20) 
-1.76747

>  <r_i_glide_erotb>  (20) 
0.149003

>  <r_i_glide_esite>  (20) 
-0.0378528

>  <r_i_glide_emodel>  (20) 
-29.1363

>  <r_i_glide_energy>  (20) 
-27.4964

>  <r_i_glide_einternal>  (20) 
1.5184

>  <r_i_glide_intrahb_reward>  (20) 
-0

>  <i_i_glide_confnum>  (20) 
6

>  <i_i_glide_posenum>  (20) 
4

>  <r_i_glide_eff_state_penalty>  (20) 
0

>  <ligand_id>  (20) 
5

>  <original_smiles>  (20) 
COC1=CC2CC(=O)C3(C)C4(C=NO)C(C)=C5CCCC5(C)C5C(=O)C(=O)CC(C)C5C(O)C4(O)C23CC1

>  <smiles>  (20) 
[H]ON=C([H])C12C(C([H])([H])[H])=C3C([H])([H])C([H])([H])C([H])([H])C3(C([H])([H])[H])C3([H])C(=O)C(=O)C([H])([H])C([H])(C([H])([H])[H])C3([H])C([H])(O[H])C1(O[H])C13C([H])([H])C([H])([H])C(OC([H])([H])[H])=C([H])C1([H])C([H])([H])C(=O)C23C([H])([H])[H]

$$$$
5:3:0
     RDKit          3D

 77 82  0  0  1  0  0  0  0  0999 V2000
    2.7088    4.8895    2.7992 C   0  0  0  0  0  0  0  0  0  0  0  0
    1.5335    4.2866    3.3314 O   0  0  0  0  0  0  0  0  0  0  0  0
    1.5706    2.9220    3.5093 C   0  0  0  0  0  0  0  0  0  0  0  0
    0.4067    2.2164    3.5137 C   0  0  0  0  0  0  0  0  0  0  0  0
    0.3675    0.6972    3.6261 C   0  0  2  0  0  0  0  0  0  0  0  0
   -0.7128    0.1574    4.5717 C   0  0  0  0  0  0  0  0  0  0  0  0
   -0.2090   -1.2566    4.8859 C   0  0  0  0  0  0  0  0  0  0  0  0
   -1.0270   -2.1428    5.0957 O   0  0  0  0  0  0  0  0  0  0  0  0
    1.3070   -1.2017    5.0175 C   0  0  1  0  0  0  0  0  0  0  0  0
    1.5055   -0.9527    6.5257 C   0  0  0  0  0  0  0  0  0  0  0  0
    2.3100   -2.1817    4.2389 C   0  0  1  0  0  0  0  0  0  0  0  0
    3.7309   -2.1620    4.8945 C   0  0  0  0  0  0  0  0  0  0  0  0
    4.2053   -2.7577    5.9114 N   0  0  0  0  0  0  0  0  0  0  0  0
    3.1922   -3.4884    6.5784 O   0  0  0  0  0  0  0  0  0  0  0  0
    1.8852   -3.6635    3.9037 C   0  0  0  0  0  0  0  0  0  0  0  0
    1.0121   -4.2804    5.0053 C   0  0  0  0  0  0  0  0  0  0  0  0
    2.2256   -4.5001    2.8483 C   0  0  0  0  0  0  0  0  0  0  0  0
    1.6569   -5.9190    2.8135 C   0  0  0  0  0  0  0  0  0  0  0  0
    1.5819   -6.3713    1.3578 C   0  0  0  0  0  0  0  0  0  0  0  0
    2.2708   -5.2721    0.5547 C   0  0  0  0  0  0  0  0  0  0  0  0
    3.1047   -4.4053    1.5459 C   0  0  2  0  0  0  0  0  0  0  0  0
    4.4215   -5.1878    1.8279 C   0  0  0  0  0  0  0  0  0  0  0  0
    3.4211   -3.0357    0.8230 C   0  0  2  0  0  0  0  0  0  0  0  0
    3.9953   -3.1706   -0.6049 C   0  0  0  0  0  0  0  0  0  0  0  0
    3.2350   -3.2146   -1.5752 O   0  0  0  0  0  0  0  0  0  0  0  0
    5.5188   -3.1605   -0.8025 C   0  0  0  0  0  0  0  0  0  0  0  0
    6.0470   -3.3751   -1.8913 O   0  0  0  0  0  0  0  0  0  0  0  0
    6.3733   -2.7751    0.4046 C   0  0  0  0  0  0  0  0  0  0  0  0
    5.6865   -1.6300    1.1755 C   0  0  1  0  0  0  0  0  0  0  0  0
    5.7998   -0.3054    0.3951 C   0  0  0  0  0  0  0  0  0  0  0  0
    4.2357   -2.0198    1.6634 C   0  0  1  0  0  0  0  0  0  0  0  0
    3.3757   -0.8098    2.1368 C   0  0  1  0  0  0  0  0  0  0  0  0
    2.9186    0.0292    1.0752 O   0  0  0  0  0  0  0  0  0  0  0  0
    2.1845   -1.1799    3.0520 C   0  0  1  0  0  0  0  0  0  0  0  0
    1.1840   -1.5910    2.1411 O   0  0  0  0  0  0  0  0  0  0  0  0
    1.6774   -0.0599    4.0302 C   0  0  1  0  0  0  0  0  0  0  0  0
    2.6758    0.9697    4.6061 C   0  0  0  0  0  0  0  0  0  0  0  0
    2.8872    2.2159    3.7514 C   0  0  0  0  0  0  0  0  0  0  0  0
    2.5090    5.9248    2.5274 H   0  0  0  0  0  0  0  0  0  0  0  0
    3.0267    4.3833    1.8875 H   0  0  0  0  0  0  0  0  0  0  0  0
    3.5361    4.9022    3.5045 H   0  0  0  0  0  0  0  0  0  0  0  0
   -0.5410    2.7060    3.3405 H   0  0  0  0  0  0  0  0  0  0  0  0
    0.0766    0.4185    2.6083 H   0  0  0  0  0  0  0  0  0  0  0  0
   -0.7471    0.7421    5.5047 H   0  0  0  0  0  0  0  0  0  0  0  0
   -1.6870    0.1170    4.0731 H   0  0  0  0  0  0  0  0  0  0  0  0
    2.5302   -0.6488    6.7683 H   0  0  0  0  0  0  0  0  0  0  0  0
    1.2768   -1.8269    7.1341 H   0  0  0  0  0  0  0  0  0  0  0  0
    0.8721   -0.1397    6.8902 H   0  0  0  0  0  0  0  0  0  0  0  0
    4.4399   -1.5207    4.3578 H   0  0  0  0  0  0  0  0  0  0  0  0
    3.6446   -3.8385    7.3298 H   0  0  0  0  0  0  0  0  0  0  0  0
    0.9076   -3.6578    5.8851 H   0  0  0  0  0  0  0  0  0  0  0  0
    1.4540   -5.2095    5.3553 H   0  0  0  0  0  0  0  0  0  0  0  0
    0.0136   -4.4766    4.6387 H   0  0  0  0  0  0  0  0  0  0  0  0
    2.3493   -6.5667    3.3572 H   0  0  0  0  0  0  0  0  0  0  0  0
    0.6902   -6.0460    3.2933 H   0  0  0  0  0  0  0  0  0  0  0  0
    2.0940   -7.3216    1.2336 H   0  0  0  0  0  0  0  0  0  0  0  0
    0.5498   -6.5035    1.0369 H   0  0  0  0  0  0  0  0  0  0  0  0
    2.8698   -5.6794   -0.2583 H   0  0  0  0  0  0  0  0  0  0  0  0
    1.5079   -4.6658    0.0814 H   0  0  0  0  0  0  0  0  0  0  0  0
    5.0011   -5.3341    0.9155 H   0  0  0  0  0  0  0  0  0  0  0  0
    4.2334   -6.1883    2.2156 H   0  0  0  0  0  0  0  0  0  0  0  0
    5.0529   -4.6862    2.5617 H   0  0  0  0  0  0  0  0  0  0  0  0
    2.4640   -2.5863    0.5934 H   0  0  0  0  0  0  0  0  0  0  0  0
    6.5621   -3.6408    1.0470 H   0  0  0  0  0  0  0  0  0  0  0  0
    7.3463   -2.4346    0.0354 H   0  0  0  0  0  0  0  0  0  0  0  0
    6.2898   -1.4683    2.0697 H   0  0  0  0  0  0  0  0  0  0  0  0
    5.2049   -0.2937   -0.5266 H   0  0  0  0  0  0  0  0  0  0  0  0
    6.8445   -0.1458    0.1241 H   0  0  0  0  0  0  0  0  0  0  0  0
    5.4997    0.5381    1.0156 H   0  0  0  0  0  0  0  0  0  0  0  0
    4.5258   -2.6065    2.5201 H   0  0  0  0  0  0  0  0  0  0  0  0
    4.1015   -0.2052    2.6903 H   0  0  0  0  0  0  0  0  0  0  0  0
    2.5068   -0.4744    0.3927 H   0  0  0  0  0  0  0  0  0  0  0  0
    1.1221   -0.8883    1.5249 H   0  0  0  0  0  0  0  0  0  0  0  0
    2.3125    1.3205    5.5766 H   0  0  0  0  0  0  0  0  0  0  0  0
    3.6615    0.5358    4.7905 H   0  0  0  0  0  0  0  0  0  0  0  0
    3.3341    1.9619    2.7910 H   0  0  0  0  0  0  0  0  0  0  0  0
    3.5663    2.8695    4.3053 H   0  0  0  0  0  0  0  0  0  0  0  0
  1  2  1  0
  1 39  1  0
  1 40  1  0
  1 41  1  0
  2  3  1  0
  3 38  1  0
  3  4  2  0
  4  5  1  0
  4 42  1  0
  5 36  1  0
  5  6  1  0
  5 43  1  6
  6  7  1  0
  6 44  1  0
  6 45  1  0
  7  8  2  0
  7  9  1  0
  9 36  1  0
  9 10  1  1
  9 11  1  0
 10 46  1  0
 10 47  1  0
 10 48  1  0
 11 34  1  0
 11 12  1  1
 11 15  1  0
 12 13  2  3
 12 49  1  0
 13 14  1  0
 14 50  1  0
 15 16  1  0
 15 17  2  3
 16 51  1  0
 16 52  1  0
 16 53  1  0
 17 21  1  0
 17 18  1  0
 18 19  1  0
 18 54  1  0
 18 55  1  0
 19 20  1  0
 19 56  1  0
 19 57  1  0
 20 21  1  0
 20 58  1  0
 20 59  1  0
 21 22  1  1
 21 23  1  0
 22 60  1  0
 22 61  1  0
 22 62  1  0
 23 31  1  0
 23 24  1  0
 23 63  1  6
 24 25  2  0
 24 26  1  0
 26 27  2  0
 26 28  1  0
 28 29  1  0
 28 64  1  0
 28 65  1  0
 29 30  1  0
 29 31  1  0
 29 66  1  1
 30 67  1  0
 30 68  1  0
 30 69  1  0
 31 32  1  0
 31 70  1  1
 32 33  1  0
 32 34  1  0
 32 71  1  1
 33 72  1  0
 34 35  1  6
 34 36  1  0
 35 73  1  0
 36 37  1  1
 37 38  1  0
 37 74  1  0
 37 75  1  0
 38 76  1  0
 38 77  1  0
M  END
>  <i_m_ct_stereo_status>  (21) 
1

>  <s_m_source_file>  (21) 
/var/tmp/pbs.5076255.sched01/tmplremgrqo/0ygzoxw5b.sdf

>  <i_m_source_file_index>  (21) 
10

>  <i_lp_mmshare_version>  (21) 
48012

>  <i_f3d_flags>  (21) 
0

>  <s_epik_input>  (21) 
W0NIM11PQyhbQ0gyXVtDSDJdMSk9W0NIXVtDQEBIXShbQ0BAXTEyMylbQ0gyXUMoPU8pW0NAQF0yKFtDSDNdKVtDQF00KC9bQ0hdPU4vW09IXSlbQ0BdMyhbT0hdKVtDQEhdKFtPSF0pW0NASF01W0NASF0oW0NAQF02KFtDSDNdKUMoPUNcNFtDSDNdKS9bQ0gyXVtDSDJdW0NIMl02KUMoPU8pQyg9TylbQ0gyXVtDQEhdNVtDSDNd

>  <s_epik_cmdline>  (21) 
J2VwaWtfcHl0aG9uJywgJy1waHQnLCAnMi4wJywgJy1waCcsICc3LjAnLCAnLXRuJywgJzgnLCAnLW1hJywgJzIwMCcsICctaW1hZScsICc8aW5maWxlLm1hZT4nLCAnLW9tYWUnLCAnPG91dGZpbGUubWFlPic=

>  <r_lp_tautomer_probability>  (21) 
1

>  <r_epik_Ionization_Penalty>  (21) 
5.89014e-06

>  <r_epik_Ionization_Penalty_Charging>  (21) 
0

>  <r_epik_Ionization_Penalty_Neutral>  (21) 
5.89014e-06

>  <r_epik_State_Penalty>  (21) 
-0

>  <r_epik_Charging_Adjusted_Penalty>  (21) 
0

>  <i_epik_Tot_Q>  (21) 
0

>  <i_epik_Tot_abs_Q>  (21) 
0

>  <s_epik_Chemistry_Notes>  (21) 
This compound has an imine and may undergo hydrolysis.

>  <s_lp_Force_Field>  (21) 
OPLS3e

>  <r_lp_Energy>  (21) 
112.197

>  <b_lp_Chiralities_Consistent>  (21) 
1

>  <s_lp_Variant>  (21) 
5:0-4

>  <s_i_glide_gridfile>  (21) 
pfpi4k_grid

>  <i_i_glide_lignum>  (21) 
10

>  <i_i_glide_rotatable_bonds>  (21) 
5

>  <r_i_docking_score>  (21) 
-1.83432

>  <r_i_glide_ligand_efficiency>  (21) 
-0.0482715

>  <r_i_glide_ligand_efficiency_sa>  (21) 
-0.162287

>  <r_i_glide_ligand_efficiency_ln>  (21) 
-0.395532

>  <r_i_glide_gscore>  (21) 
-1.83432

>  <r_i_glide_lipo>  (21) 
-0.385373

>  <r_i_glide_hbond>  (21) 
0

>  <r_i_glide_metal>  (21) 
-0

>  <r_i_glide_rewards>  (21) 
-0.103812

>  <r_i_glide_evdw>  (21) 
-29.6752

>  <r_i_glide_ecoul>  (21) 
0.0552872

>  <r_i_glide_erotb>  (21) 
0.149003

>  <r_i_glide_esite>  (21) 
-0.0186663

>  <r_i_glide_emodel>  (21) 
-30.2742

>  <r_i_glide_energy>  (21) 
-29.6199

>  <r_i_glide_einternal>  (21) 
5.29703

>  <r_i_glide_intrahb_reward>  (21) 
-0

>  <i_i_glide_confnum>  (21) 
5

>  <i_i_glide_posenum>  (21) 
31

>  <r_i_glide_eff_state_penalty>  (21) 
0

>  <ligand_id>  (21) 
5

>  <original_smiles>  (21) 
COC1=CC2CC(=O)C3(C)C4(C=NO)C(C)=C5CCCC5(C)C5C(=O)C(=O)CC(C)C5C(O)C4(O)C23CC1

>  <smiles>  (21) 
[H]ON=C([H])C12C(C([H])([H])[H])=C3C([H])([H])C([H])([H])C([H])([H])C3(C([H])([H])[H])C3([H])C(=O)C(=O)C([H])([H])C([H])(C([H])([H])[H])C3([H])C([H])(O[H])C1(O[H])C13C([H])([H])C([H])([H])C(OC([H])([H])[H])=C([H])C1([H])C([H])([H])C(=O)C23C([H])([H])[H]

$$$$
5:3:1
     RDKit          3D

 77 82  0  0  1  0  0  0  0  0999 V2000
   -2.1853    3.4543    3.3024 C   0  0  0  0  0  0  0  0  0  0  0  0
   -0.7736    3.2787    3.3498 O   0  0  0  0  0  0  0  0  0  0  0  0
   -0.3017    2.0595    3.8002 C   0  0  0  0  0  0  0  0  0  0  0  0
   -1.0478    1.0134    4.1901 C   0  0  0  0  0  0  0  0  0  0  0  0
   -0.4612   -0.2853    4.6968 C   0  0  2  0  0  0  0  0  0  0  0  0
   -1.1534   -0.8122    5.9480 C   0  0  0  0  0  0  0  0  0  0  0  0
   -0.1358   -1.8030    6.4823 C   0  0  0  0  0  0  0  0  0  0  0  0
   -0.5559   -2.8421    6.9821 O   0  0  0  0  0  0  0  0  0  0  0  0
    1.2573   -1.1965    6.2940 C   0  0  1  0  0  0  0  0  0  0  0  0
    1.5055   -0.4240    7.6080 C   0  0  0  0  0  0  0  0  0  0  0  0
    2.4675   -1.9696    5.5996 C   0  0  1  0  0  0  0  0  0  0  0  0
    3.8358   -1.2844    5.9194 C   0  0  0  0  0  0  0  0  0  0  0  0
    4.6020   -1.3475    6.9381 N   0  0  0  0  0  0  0  0  0  0  0  0
    4.0509   -2.1327    7.9917 O   0  0  0  0  0  0  0  0  0  0  0  0
    2.6223   -3.5320    5.7427 C   0  0  0  0  0  0  0  0  0  0  0  0
    2.1700   -4.0292    7.1220 C   0  0  0  0  0  0  0  0  0  0  0  0
    3.1551   -4.4715    4.8863 C   0  0  0  0  0  0  0  0  0  0  0  0
    3.1888   -5.9459    5.3213 C   0  0  0  0  0  0  0  0  0  0  0  0
    3.1207   -6.8100    4.0708 C   0  0  0  0  0  0  0  0  0  0  0  0
    3.2237   -5.8290    2.9076 C   0  0  0  0  0  0  0  0  0  0  0  0
    3.7915   -4.4909    3.4453 C   0  0  2  0  0  0  0  0  0  0  0  0
    5.3295   -4.6669    3.6220 C   0  0  0  0  0  0  0  0  0  0  0  0
    3.4924   -3.3859    2.3428 C   0  0  2  0  0  0  0  0  0  0  0  0
    3.9232   -3.7700    0.9089 C   0  0  0  0  0  0  0  0  0  0  0  0
    3.1527   -4.3941    0.1856 O   0  0  0  0  0  0  0  0  0  0  0  0
    5.3105   -3.3315    0.4162 C   0  0  0  0  0  0  0  0  0  0  0  0
    5.8515   -3.8167   -0.5755 O   0  0  0  0  0  0  0  0  0  0  0  0
    6.0402   -2.2887    1.2453 C   0  0  0  0  0  0  0  0  0  0  0  0
    5.0591   -1.2603    1.8342 C   0  0  1  0  0  0  0  0  0  0  0  0
    4.5872   -0.2769    0.7410 C   0  0  0  0  0  0  0  0  0  0  0  0
    3.9374   -1.9519    2.7029 C   0  0  1  0  0  0  0  0  0  0  0  0
    2.7389   -1.0332    3.0576 C   0  0  1  0  0  0  0  0  0  0  0  0
    1.8839   -0.8337    1.9500 O   0  0  0  0  0  0  0  0  0  0  0  0
    1.8573   -1.4887    4.2446 C   0  0  1  0  0  0  0  0  0  0  0  0
    0.9914   -2.4615    3.6920 O   0  0  0  0  0  0  0  0  0  0  0  0
    1.0680   -0.3583    4.9899 C   0  0  1  0  0  0  0  0  0  0  0  0
    1.6368    1.0884    5.0475 C   0  0  0  0  0  0  0  0  0  0  0  0
    1.2085    2.0195    3.8971 C   0  0  0  0  0  0  0  0  0  0  0  0
   -2.4368    4.4729    3.0031 H   0  0  0  0  0  0  0  0  0  0  0  0
   -2.6222    3.2939    4.2904 H   0  0  0  0  0  0  0  0  0  0  0  0
   -2.6416    2.7711    2.5821 H   0  0  0  0  0  0  0  0  0  0  0  0
   -2.1305    0.9798    4.1490 H   0  0  0  0  0  0  0  0  0  0  0  0
   -0.7580   -0.9510    3.8917 H   0  0  0  0  0  0  0  0  0  0  0  0
   -1.3185   -0.0082    6.6785 H   0  0  0  0  0  0  0  0  0  0  0  0
   -2.1151   -1.2907    5.7106 H   0  0  0  0  0  0  0  0  0  0  0  0
    2.3553    0.2549    7.5326 H   0  0  0  0  0  0  0  0  0  0  0  0
    1.7047   -1.0838    8.4505 H   0  0  0  0  0  0  0  0  0  0  0  0
    0.6643    0.2083    7.8876 H   0  0  0  0  0  0  0  0  0  0  0  0
    4.1813   -0.6376    5.1137 H   0  0  0  0  0  0  0  0  0  0  0  0
    3.2468   -2.4686    7.6134 H   0  0  0  0  0  0  0  0  0  0  0  0
    1.9042   -3.2485    7.8231 H   0  0  0  0  0  0  0  0  0  0  0  0
    2.9666   -4.6046    7.5940 H   0  0  0  0  0  0  0  0  0  0  0  0
    1.2962   -4.6703    7.0285 H   0  0  0  0  0  0  0  0  0  0  0  0
    4.1318   -6.1239    5.8352 H   0  0  0  0  0  0  0  0  0  0  0  0
    2.4040   -6.2483    6.0080 H   0  0  0  0  0  0  0  0  0  0  0  0
    3.9389   -7.5298    4.0503 H   0  0  0  0  0  0  0  0  0  0  0  0
    2.1867   -7.3715    4.0225 H   0  0  0  0  0  0  0  0  0  0  0  0
    3.7993   -6.2583    2.0873 H   0  0  0  0  0  0  0  0  0  0  0  0
    2.2135   -5.6597    2.5335 H   0  0  0  0  0  0  0  0  0  0  0  0
    5.8323   -4.8854    2.6815 H   0  0  0  0  0  0  0  0  0  0  0  0
    5.5875   -5.4997    4.2791 H   0  0  0  0  0  0  0  0  0  0  0  0
    5.7979   -3.7864    4.0628 H   0  0  0  0  0  0  0  0  0  0  0  0
    2.4186   -3.3764    2.2144 H   0  0  0  0  0  0  0  0  0  0  0  0
    6.6038   -2.7833    2.0362 H   0  0  0  0  0  0  0  0  0  0  0  0
    6.7760   -1.7783    0.6133 H   0  0  0  0  0  0  0  0  0  0  0  0
    5.6478   -0.6439    2.5198 H   0  0  0  0  0  0  0  0  0  0  0  0
    3.9125   -0.7408    0.0198 H   0  0  0  0  0  0  0  0  0  0  0  0
    5.4498    0.1117    0.1923 H   0  0  0  0  0  0  0  0  0  0  0  0
    4.0821    0.5888    1.1718 H   0  0  0  0  0  0  0  0  0  0  0  0
    4.5061   -2.1057    3.6054 H   0  0  0  0  0  0  0  0  0  0  0  0
    3.1864   -0.0631    3.2632 H   0  0  0  0  0  0  0  0  0  0  0  0
    1.4417    0.0002    2.0462 H   0  0  0  0  0  0  0  0  0  0  0  0
    0.7568   -2.1023    2.8425 H   0  0  0  0  0  0  0  0  0  0  0  0
    1.2850    1.5848    5.9538 H   0  0  0  0  0  0  0  0  0  0  0  0
    2.7244    1.1001    5.1152 H   0  0  0  0  0  0  0  0  0  0  0  0
    1.6310    1.7042    2.9411 H   0  0  0  0  0  0  0  0  0  0  0  0
    1.5760    3.0323    4.0750 H   0  0  0  0  0  0  0  0  0  0  0  0
  1  2  1  0
  1 39  1  0
  1 40  1  0
  1 41  1  0
  2  3  1  0
  3 38  1  0
  3  4  2  0
  4  5  1  0
  4 42  1  0
  5 36  1  0
  5  6  1  0
  5 43  1  6
  6  7  1  0
  6 44  1  0
  6 45  1  0
  7  8  2  0
  7  9  1  0
  9 36  1  0
  9 10  1  1
  9 11  1  0
 10 46  1  0
 10 47  1  0
 10 48  1  0
 11 34  1  0
 11 12  1  1
 11 15  1  0
 12 13  2  3
 12 49  1  0
 13 14  1  0
 14 50  1  0
 15 16  1  0
 15 17  2  3
 16 51  1  0
 16 52  1  0
 16 53  1  0
 17 21  1  0
 17 18  1  0
 18 19  1  0
 18 54  1  0
 18 55  1  0
 19 20  1  0
 19 56  1  0
 19 57  1  0
 20 21  1  0
 20 58  1  0
 20 59  1  0
 21 22  1  1
 21 23  1  0
 22 60  1  0
 22 61  1  0
 22 62  1  0
 23 31  1  0
 23 24  1  0
 23 63  1  6
 24 25  2  0
 24 26  1  0
 26 27  2  0
 26 28  1  0
 28 29  1  0
 28 64  1  0
 28 65  1  0
 29 30  1  0
 29 31  1  0
 29 66  1  1
 30 67  1  0
 30 68  1  0
 30 69  1  0
 31 32  1  0
 31 70  1  1
 32 33  1  0
 32 34  1  0
 32 71  1  1
 33 72  1  0
 34 35  1  6
 34 36  1  0
 35 73  1  0
 36 37  1  1
 37 38  1  0
 37 74  1  0
 37 75  1  0
 38 76  1  0
 38 77  1  0
M  END
>  <i_m_ct_stereo_status>  (22) 
1

>  <s_m_source_file>  (22) 
/var/tmp/pbs.5076255.sched01/tmplremgrqo/0ygzoxw5b.sdf

>  <i_m_source_file_index>  (22) 
10

>  <i_lp_mmshare_version>  (22) 
48012

>  <i_f3d_flags>  (22) 
0

>  <s_epik_input>  (22) 
W0NIM11PQyhbQ0gyXVtDSDJdMSk9W0NIXVtDQEBIXShbQ0BAXTEyMylbQ0gyXUMoPU8pW0NAQF0yKFtDSDNdKVtDQF00KC9bQ0hdPU4vW09IXSlbQ0BdMyhbT0hdKVtDQEhdKFtPSF0pW0NASF01W0NASF0oW0NAQF02KFtDSDNdKUMoPUNcNFtDSDNdKS9bQ0gyXVtDSDJdW0NIMl02KUMoPU8pQyg9TylbQ0gyXVtDQEhdNVtDSDNd

>  <s_epik_cmdline>  (22) 
J2VwaWtfcHl0aG9uJywgJy1waHQnLCAnMi4wJywgJy1waCcsICc3LjAnLCAnLXRuJywgJzgnLCAnLW1hJywgJzIwMCcsICctaW1hZScsICc8aW5maWxlLm1hZT4nLCAnLW9tYWUnLCAnPG91dGZpbGUubWFlPic=

>  <r_lp_tautomer_probability>  (22) 
1

>  <r_epik_Ionization_Penalty>  (22) 
5.89014e-06

>  <r_epik_Ionization_Penalty_Charging>  (22) 
0

>  <r_epik_Ionization_Penalty_Neutral>  (22) 
5.89014e-06

>  <r_epik_State_Penalty>  (22) 
-0

>  <r_epik_Charging_Adjusted_Penalty>  (22) 
0

>  <i_epik_Tot_Q>  (22) 
0

>  <i_epik_Tot_abs_Q>  (22) 
0

>  <s_epik_Chemistry_Notes>  (22) 
This compound has an imine and may undergo hydrolysis.

>  <s_lp_Force_Field>  (22) 
OPLS3e

>  <r_lp_Energy>  (22) 
112.197

>  <b_lp_Chiralities_Consistent>  (22) 
1

>  <s_lp_Variant>  (22) 
5:0-4

>  <s_i_glide_gridfile>  (22) 
pfpi4k_grid

>  <i_i_glide_lignum>  (22) 
10

>  <i_i_glide_rotatable_bonds>  (22) 
5

>  <r_i_docking_score>  (22) 
-1.55009

>  <r_i_glide_ligand_efficiency>  (22) 
-0.0407917

>  <r_i_glide_ligand_efficiency_sa>  (22) 
-0.137141

>  <r_i_glide_ligand_efficiency_ln>  (22) 
-0.334244

>  <r_i_glide_gscore>  (22) 
-1.55009

>  <r_i_glide_lipo>  (22) 
-0.361166

>  <r_i_glide_hbond>  (22) 
0

>  <r_i_glide_metal>  (22) 
-0

>  <r_i_glide_rewards>  (22) 
-0.0715165

>  <r_i_glide_evdw>  (22) 
-25.402

>  <r_i_glide_ecoul>  (22) 
0.274407

>  <r_i_glide_erotb>  (22) 
0.149003

>  <r_i_glide_esite>  (22) 
-0.0374638

>  <r_i_glide_emodel>  (22) 
-26.9302

>  <r_i_glide_energy>  (22) 
-25.1276

>  <r_i_glide_einternal>  (22) 
1.3596

>  <r_i_glide_intrahb_reward>  (22) 
-0

>  <i_i_glide_confnum>  (22) 
1

>  <i_i_glide_posenum>  (22) 
38

>  <r_i_glide_eff_state_penalty>  (22) 
0

>  <ligand_id>  (22) 
5

>  <original_smiles>  (22) 
COC1=CC2CC(=O)C3(C)C4(C=NO)C(C)=C5CCCC5(C)C5C(=O)C(=O)CC(C)C5C(O)C4(O)C23CC1

>  <smiles>  (22) 
[H]ON=C([H])C12C(C([H])([H])[H])=C3C([H])([H])C([H])([H])C([H])([H])C3(C([H])([H])[H])C3([H])C(=O)C(=O)C([H])([H])C([H])(C([H])([H])[H])C3([H])C([H])(O[H])C1(O[H])C13C([H])([H])C([H])([H])C(OC([H])([H])[H])=C([H])C1([H])C([H])([H])C(=O)C23C([H])([H])[H]

$$$$
5:3:2
     RDKit          3D

 77 82  0  0  1  0  0  0  0  0999 V2000
    0.7478    5.0421    3.7750 C   0  0  0  0  0  0  0  0  0  0  0  0
    1.9365    4.2610    3.7666 O   0  0  0  0  0  0  0  0  0  0  0  0
    1.7929    2.8818    3.7881 C   0  0  0  0  0  0  0  0  0  0  0  0
    0.6391    2.1687    3.7077 C   0  0  0  0  0  0  0  0  0  0  0  0
    0.5974    0.6702    3.7589 C   0  0  2  0  0  0  0  0  0  0  0  0
   -0.4979    0.1373    4.6803 C   0  0  0  0  0  0  0  0  0  0  0  0
   -0.0550   -1.2982    4.9121 C   0  0  0  0  0  0  0  0  0  0  0  0
   -0.9501   -2.1366    5.0230 O   0  0  0  0  0  0  0  0  0  0  0  0
    1.4593   -1.3114    5.0488 C   0  0  1  0  0  0  0  0  0  0  0  0
    1.6803   -1.1501    6.5615 C   0  0  0  0  0  0  0  0  0  0  0  0
    2.4138   -2.2773    4.2139 C   0  0  1  0  0  0  0  0  0  0  0  0
    3.8360   -2.3551    4.8562 C   0  0  0  0  0  0  0  0  0  0  0  0
    4.3132   -3.0474    5.8139 N   0  0  0  0  0  0  0  0  0  0  0  0
    3.2939   -3.8265    6.4355 O   0  0  0  0  0  0  0  0  0  0  0  0
    1.9370   -3.7176    3.7998 C   0  0  0  0  0  0  0  0  0  0  0  0
    1.0397   -4.3619    4.8650 C   0  0  0  0  0  0  0  0  0  0  0  0
    2.2532   -4.5053    2.7010 C   0  0  0  0  0  0  0  0  0  0  0  0
    1.6264   -5.8994    2.5954 C   0  0  0  0  0  0  0  0  0  0  0  0
    1.5297   -6.2548    1.1152 C   0  0  0  0  0  0  0  0  0  0  0  0
    2.2613   -5.1267    0.3821 C   0  0  0  0  0  0  0  0  0  0  0  0
    3.1330   -4.3603    1.4158 C   0  0  2  0  0  0  0  0  0  0  0  0
    4.4160   -5.2155    1.6328 C   0  0  0  0  0  0  0  0  0  0  0  0
    3.5106   -2.9691    0.7571 C   0  0  2  0  0  0  0  0  0  0  0  0
    4.0688   -3.0508   -0.6848 C   0  0  0  0  0  0  0  0  0  0  0  0
    3.3043   -3.0455   -1.6353 O   0  0  0  0  0  0  0  0  0  0  0  0
    5.5948   -3.0944   -0.8860 C   0  0  0  0  0  0  0  0  0  0  0  0
    6.1241   -3.3365   -1.9589 O   0  0  0  0  0  0  0  0  0  0  0  0
    6.4601   -2.7940    0.3328 C   0  0  0  0  0  0  0  0  0  0  0  0
    5.8309   -1.6743    1.1730 C   0  0  1  0  0  0  0  0  0  0  0  0
    5.9808   -0.3289    0.4516 C   0  0  0  0  0  0  0  0  0  0  0  0
    4.3694   -2.0431    1.6440 C   0  0  1  0  0  0  0  0  0  0  0  0
    3.5562   -0.8378    2.1990 C   0  0  1  0  0  0  0  0  0  0  0  0
    3.0981    0.0198    1.1822 O   0  0  0  0  0  0  0  0  0  0  0  0
    2.3535   -1.2073    3.0823 C   0  0  1  0  0  0  0  0  0  0  0  0
    1.3323   -1.4973    2.1439 O   0  0  0  0  0  0  0  0  0  0  0  0
    1.8851   -0.1286    4.1291 C   0  0  1  0  0  0  0  0  0  0  0  0
    2.9050    0.8636    4.7527 C   0  0  0  0  0  0  0  0  0  0  0  0
    3.1029    2.1724    3.9815 C   0  0  0  0  0  0  0  0  0  0  0  0
    0.9572    6.1072    3.8518 H   0  0  0  0  0  0  0  0  0  0  0  0
    0.1477    4.7650    4.6516 H   0  0  0  0  0  0  0  0  0  0  0  0
    0.1579    4.8789    2.8880 H   0  0  0  0  0  0  0  0  0  0  0  0
   -0.3472    2.5814    3.5614 H   0  0  0  0  0  0  0  0  0  0  0  0
    0.2609    0.4595    2.7454 H   0  0  0  0  0  0  0  0  0  0  0  0
   -0.5142    0.6776    5.6330 H   0  0  0  0  0  0  0  0  0  0  0  0
   -1.4879    0.1943    4.2180 H   0  0  0  0  0  0  0  0  0  0  0  0
    2.7206   -0.8985    6.8019 H   0  0  0  0  0  0  0  0  0  0  0  0
    1.4418   -2.0462    7.1245 H   0  0  0  0  0  0  0  0  0  0  0  0
    1.0932   -0.3327    6.9845 H   0  0  0  0  0  0  0  0  0  0  0  0
    4.5553   -1.6883    4.3827 H   0  0  0  0  0  0  0  0  0  0  0  0
    3.7807   -4.2909    7.0955 H   0  0  0  0  0  0  0  0  0  0  0  0
    0.9702   -3.7869    5.7814 H   0  0  0  0  0  0  0  0  0  0  0  0
    1.4497   -5.3257    5.1615 H   0  0  0  0  0  0  0  0  0  0  0  0
    0.0323   -4.5076    4.4952 H   0  0  0  0  0  0  0  0  0  0  0  0
    2.3061   -6.6028    3.0825 H   0  0  0  0  0  0  0  0  0  0  0  0
    0.6638   -6.0271    3.0739 H   0  0  0  0  0  0  0  0  0  0  0  0
    2.0082   -7.2134    0.9361 H   0  0  0  0  0  0  0  0  0  0  0  0
    0.4896   -6.3380    0.7909 H   0  0  0  0  0  0  0  0  0  0  0  0
    2.8415   -5.5052   -0.4474 H   0  0  0  0  0  0  0  0  0  0  0  0
    1.5331   -4.4581   -0.0538 H   0  0  0  0  0  0  0  0  0  0  0  0
    4.9897   -5.3387    0.7126 H   0  0  0  0  0  0  0  0  0  0  0  0
    4.1971   -6.2295    1.9639 H   0  0  0  0  0  0  0  0  0  0  0  0
    5.0728   -4.7875    2.3893 H   0  0  0  0  0  0  0  0  0  0  0  0
    2.5715   -2.4682    0.5497 H   0  0  0  0  0  0  0  0  0  0  0  0
    6.6213   -3.6960    0.9218 H   0  0  0  0  0  0  0  0  0  0  0  0
    7.4441   -2.4789   -0.0253 H   0  0  0  0  0  0  0  0  0  0  0  0
    6.4396   -1.5822    2.0699 H   0  0  0  0  0  0  0  0  0  0  0  0
    5.3462   -0.2639   -0.4372 H   0  0  0  0  0  0  0  0  0  0  0  0
    7.0153   -0.2013    0.1321 H   0  0  0  0  0  0  0  0  0  0  0  0
    5.7508    0.5105    1.1022 H   0  0  0  0  0  0  0  0  0  0  0  0
    4.6310   -2.6707    2.4694 H   0  0  0  0  0  0  0  0  0  0  0  0
    4.2839   -0.2564    2.7722 H   0  0  0  0  0  0  0  0  0  0  0  0
    2.7079    0.7758    1.5912 H   0  0  0  0  0  0  0  0  0  0  0  0
    1.5430   -0.9720    1.3719 H   0  0  0  0  0  0  0  0  0  0  0  0
    2.5746    1.1619    5.7535 H   0  0  0  0  0  0  0  0  0  0  0  0
    3.8857    0.3976    4.8886 H   0  0  0  0  0  0  0  0  0  0  0  0
    3.5143    1.9498    3.0049 H   0  0  0  0  0  0  0  0  0  0  0  0
    3.7970    2.8384    4.5032 H   0  0  0  0  0  0  0  0  0  0  0  0
  1  2  1  0
  1 39  1  0
  1 40  1  0
  1 41  1  0
  2  3  1  0
  3 38  1  0
  3  4  2  0
  4  5  1  0
  4 42  1  0
  5 36  1  0
  5  6  1  0
  5 43  1  6
  6  7  1  0
  6 44  1  0
  6 45  1  0
  7  8  2  0
  7  9  1  0
  9 36  1  0
  9 10  1  1
  9 11  1  0
 10 46  1  0
 10 47  1  0
 10 48  1  0
 11 34  1  0
 11 12  1  1
 11 15  1  0
 12 13  2  3
 12 49  1  0
 13 14  1  0
 14 50  1  0
 15 16  1  0
 15 17  2  3
 16 51  1  0
 16 52  1  0
 16 53  1  0
 17 21  1  0
 17 18  1  0
 18 19  1  0
 18 54  1  0
 18 55  1  0
 19 20  1  0
 19 56  1  0
 19 57  1  0
 20 21  1  0
 20 58  1  0
 20 59  1  0
 21 22  1  1
 21 23  1  0
 22 60  1  0
 22 61  1  0
 22 62  1  0
 23 31  1  0
 23 24  1  0
 23 63  1  6
 24 25  2  0
 24 26  1  0
 26 27  2  0
 26 28  1  0
 28 29  1  0
 28 64  1  0
 28 65  1  0
 29 30  1  0
 29 31  1  0
 29 66  1  1
 30 67  1  0
 30 68  1  0
 30 69  1  0
 31 32  1  0
 31 70  1  1
 32 33  1  0
 32 34  1  0
 32 71  1  1
 33 72  1  0
 34 35  1  6
 34 36  1  0
 35 73  1  0
 36 37  1  1
 37 38  1  0
 37 74  1  0
 37 75  1  0
 38 76  1  0
 38 77  1  0
M  END
>  <i_m_ct_stereo_status>  (23) 
1

>  <s_m_source_file>  (23) 
/var/tmp/pbs.5076255.sched01/tmplremgrqo/0ygzoxw5b.sdf

>  <i_m_source_file_index>  (23) 
10

>  <i_lp_mmshare_version>  (23) 
48012

>  <i_f3d_flags>  (23) 
0

>  <s_epik_input>  (23) 
W0NIM11PQyhbQ0gyXVtDSDJdMSk9W0NIXVtDQEBIXShbQ0BAXTEyMylbQ0gyXUMoPU8pW0NAQF0yKFtDSDNdKVtDQF00KC9bQ0hdPU4vW09IXSlbQ0BdMyhbT0hdKVtDQEhdKFtPSF0pW0NASF01W0NASF0oW0NAQF02KFtDSDNdKUMoPUNcNFtDSDNdKS9bQ0gyXVtDSDJdW0NIMl02KUMoPU8pQyg9TylbQ0gyXVtDQEhdNVtDSDNd

>  <s_epik_cmdline>  (23) 
J2VwaWtfcHl0aG9uJywgJy1waHQnLCAnMi4wJywgJy1waCcsICc3LjAnLCAnLXRuJywgJzgnLCAnLW1hJywgJzIwMCcsICctaW1hZScsICc8aW5maWxlLm1hZT4nLCAnLW9tYWUnLCAnPG91dGZpbGUubWFlPic=

>  <r_lp_tautomer_probability>  (23) 
1

>  <r_epik_Ionization_Penalty>  (23) 
5.89014e-06

>  <r_epik_Ionization_Penalty_Charging>  (23) 
0

>  <r_epik_Ionization_Penalty_Neutral>  (23) 
5.89014e-06

>  <r_epik_State_Penalty>  (23) 
-0

>  <r_epik_Charging_Adjusted_Penalty>  (23) 
0

>  <i_epik_Tot_Q>  (23) 
0

>  <i_epik_Tot_abs_Q>  (23) 
0

>  <s_epik_Chemistry_Notes>  (23) 
This compound has an imine and may undergo hydrolysis.

>  <s_lp_Force_Field>  (23) 
OPLS3e

>  <r_lp_Energy>  (23) 
112.197

>  <b_lp_Chiralities_Consistent>  (23) 
1

>  <s_lp_Variant>  (23) 
5:0-4

>  <s_i_glide_gridfile>  (23) 
pfpi4k_grid

>  <i_i_glide_lignum>  (23) 
10

>  <i_i_glide_rotatable_bonds>  (23) 
5

>  <r_i_docking_score>  (23) 
-1.50775

>  <r_i_glide_ligand_efficiency>  (23) 
-0.0396777

>  <r_i_glide_ligand_efficiency_sa>  (23) 
-0.133395

>  <r_i_glide_ligand_efficiency_ln>  (23) 
-0.325116

>  <r_i_glide_gscore>  (23) 
-1.50775

>  <r_i_glide_lipo>  (23) 
-0.400395

>  <r_i_glide_hbond>  (23) 
0

>  <r_i_glide_metal>  (23) 
-0

>  <r_i_glide_rewards>  (23) 
-0.0700105

>  <r_i_glide_evdw>  (23) 
-28.9023

>  <r_i_glide_ecoul>  (23) 
1.83049

>  <r_i_glide_erotb>  (23) 
0.149003

>  <r_i_glide_esite>  (23) 
-0.0158071

>  <r_i_glide_emodel>  (23) 
-28.5968

>  <r_i_glide_energy>  (23) 
-27.0718

>  <r_i_glide_einternal>  (23) 
1.45415

>  <r_i_glide_intrahb_reward>  (23) 
-0

>  <i_i_glide_confnum>  (23) 
5

>  <i_i_glide_posenum>  (23) 
11

>  <r_i_glide_eff_state_penalty>  (23) 
0

>  <ligand_id>  (23) 
5

>  <original_smiles>  (23) 
COC1=CC2CC(=O)C3(C)C4(C=NO)C(C)=C5CCCC5(C)C5C(=O)C(=O)CC(C)C5C(O)C4(O)C23CC1

>  <smiles>  (23) 
[H]ON=C([H])C12C(C([H])([H])[H])=C3C([H])([H])C([H])([H])C([H])([H])C3(C([H])([H])[H])C3([H])C(=O)C(=O)C([H])([H])C([H])(C([H])([H])[H])C3([H])C([H])(O[H])C1(O[H])C13C([H])([H])C([H])([H])C(OC([H])([H])[H])=C([H])C1([H])C([H])([H])C(=O)C23C([H])([H])[H]

$$$$
6:0:0
     RDKit          3D

 52 56  0  0  1  0  0  0  0  0999 V2000
    2.2736   -9.1056    4.3687 C   0  0  0  0  0  0  0  0  0  0  0  0
    1.4374   -9.1829    3.0712 C   0  0  0  0  0  0  0  0  0  0  0  0
    0.7173  -10.5542    3.0828 C   0  0  0  0  0  0  0  0  0  0  0  0
    0.3778   -8.0512    3.0261 C   0  0  0  0  0  0  0  0  0  0  0  0
    0.9964   -6.6469    2.8986 C   0  0  0  0  0  0  0  0  0  0  0  0
    1.9297   -6.5356    1.6829 C   0  0  0  0  0  0  0  0  0  0  0  0
    2.9928   -7.6711    1.6847 C   0  0  0  0  0  0  0  0  0  0  0  0
    2.3625   -9.0674    1.8267 C   0  0  0  0  0  0  0  0  0  0  0  0
    1.1242   -6.5991    0.5193 O   0  0  0  0  0  0  0  0  0  0  0  0
    1.5296   -5.4086   -0.2994 O   0  0  0  0  0  0  0  0  0  0  0  0
    2.6958   -4.9374    0.3498 C   0  0  1  0  0  0  0  0  0  0  0  0
    2.8876   -3.4130    0.0798 C   0  0  2  0  0  0  0  0  0  0  0  0
    3.0501   -3.0797   -1.4306 C   0  0  0  0  0  0  0  0  0  0  0  0
    4.5137   -2.8326   -1.8680 C   0  0  1  0  0  0  0  0  0  0  0  0
    4.6207   -3.1259   -3.1723 F   0  0  0  0  0  0  0  0  0  0  0  0
    4.9515   -1.3488   -1.7004 C   0  0  0  0  0  0  0  0  0  0  0  0
    5.2570   -0.9636   -0.2227 C   0  0  2  0  0  0  0  0  0  0  0  0
    6.2807   -1.9208    0.3734 C   0  0  0  0  0  0  0  0  0  0  0  0
    5.4664   -3.2208    0.4046 C   0  0  2  0  0  0  0  0  0  0  0  0
    5.4589   -3.7405   -1.0607 C   0  0  0  0  0  0  0  0  0  0  0  0
    4.0464   -2.7602    0.8721 C   0  0  1  0  0  0  0  0  0  0  0  0
    4.0534   -1.2171    0.6833 C   0  0  0  0  0  0  0  0  0  0  0  0
    2.5407   -5.2529    1.7204 O   0  0  0  0  0  0  0  0  0  0  0  0
    1.6545   -9.2479    5.2566 H   0  0  0  0  0  0  0  0  0  0  0  0
    2.7865   -8.1507    4.4915 H   0  0  0  0  0  0  0  0  0  0  0  0
    3.0422   -9.8786    4.3858 H   0  0  0  0  0  0  0  0  0  0  0  0
    0.0720  -10.6884    2.2153 H   0  0  0  0  0  0  0  0  0  0  0  0
    0.0895  -10.6755    3.9700 H   0  0  0  0  0  0  0  0  0  0  0  0
    1.4250  -11.3839    3.0920 H   0  0  0  0  0  0  0  0  0  0  0  0
   -0.2958   -8.2197    2.1802 H   0  0  0  0  0  0  0  0  0  0  0  0
   -0.2491   -8.0850    3.9165 H   0  0  0  0  0  0  0  0  0  0  0  0
    0.2162   -5.8884    2.8270 H   0  0  0  0  0  0  0  0  0  0  0  0
    1.5619   -6.4016    3.7972 H   0  0  0  0  0  0  0  0  0  0  0  0
    3.5966   -7.6535    0.7739 H   0  0  0  0  0  0  0  0  0  0  0  0
    3.7026   -7.5117    2.4899 H   0  0  0  0  0  0  0  0  0  0  0  0
    3.1365   -9.8339    1.8694 H   0  0  0  0  0  0  0  0  0  0  0  0
    1.8201   -9.2834    0.9088 H   0  0  0  0  0  0  0  0  0  0  0  0
    3.5344   -5.5223   -0.0185 H   0  0  0  0  0  0  0  0  0  0  0  0
    1.9728   -2.9224    0.4115 H   0  0  0  0  0  0  0  0  0  0  0  0
    2.6031   -3.8608   -2.0397 H   0  0  0  0  0  0  0  0  0  0  0  0
    2.4603   -2.2071   -1.6885 H   0  0  0  0  0  0  0  0  0  0  0  0
    5.8486   -1.1815   -2.2925 H   0  0  0  0  0  0  0  0  0  0  0  0
    4.2055   -0.6748   -2.1242 H   0  0  0  0  0  0  0  0  0  0  0  0
    5.5958    0.0697   -0.1423 H   0  0  0  0  0  0  0  0  0  0  0  0
    7.1954   -1.9886   -0.2131 H   0  0  0  0  0  0  0  0  0  0  0  0
    6.5639   -1.6013    1.3798 H   0  0  0  0  0  0  0  0  0  0  0  0
    5.9072   -3.9531    1.0793 H   0  0  0  0  0  0  0  0  0  0  0  0
    5.1457   -4.7827   -1.1349 H   0  0  0  0  0  0  0  0  0  0  0  0
    6.4688   -3.7091   -1.4738 H   0  0  0  0  0  0  0  0  0  0  0  0
    3.9185   -2.9535    1.9400 H   0  0  0  0  0  0  0  0  0  0  0  0
    4.2223   -0.7174    1.6386 H   0  0  0  0  0  0  0  0  0  0  0  0
    3.1271   -0.8029    0.2731 H   0  0  0  0  0  0  0  0  0  0  0  0
  1  2  1  0
  1 24  1  0
  1 25  1  0
  1 26  1  0
  2  8  1  0
  2  3  1  0
  2  4  1  0
  3 27  1  0
  3 28  1  0
  3 29  1  0
  4  5  1  0
  4 30  1  0
  4 31  1  0
  5  6  1  0
  5 32  1  0
  5 33  1  0
  6 23  1  0
  6  7  1  0
  6  9  1  0
  7  8  1  0
  7 34  1  0
  7 35  1  0
  8 36  1  0
  8 37  1  0
  9 10  1  0
 10 11  1  0
 11 12  1  0
 11 23  1  0
 11 38  1  6
 12 21  1  0
 12 13  1  0
 12 39  1  1
 13 14  1  0
 13 40  1  0
 13 41  1  0
 14 20  1  0
 14 15  1  6
 14 16  1  0
 16 17  1  0
 16 42  1  0
 16 43  1  0
 17 22  1  0
 17 18  1  0
 17 44  1  6
 18 19  1  0
 18 45  1  0
 18 46  1  0
 19 20  1  0
 19 21  1  0
 19 47  1  1
 20 48  1  0
 20 49  1  0
 21 22  1  0
 21 50  1  1
 22 51  1  0
 22 52  1  0
M  END
>  <i_m_ct_stereo_status>  (24) 
1

>  <s_m_source_file>  (24) 
/var/tmp/pbs.5076255.sched01/tmplremgrqo/0ygzoxw5b.sdf

>  <i_m_source_file_index>  (24) 
11

>  <i_lp_mmshare_version>  (24) 
48012

>  <i_f3d_flags>  (24) 
0

>  <s_epik_input>  (24) 
W0NIMl0xW0NIMl1DKFtDSDNdKShbQ0gzXSlbQ0gyXVtDSDJdQzEyT09bQ0BIXShPMilbQ0BIXShbQ0gyXVtDQEBdMzRGKVtDQEhdNVtDQEBIXShbQ0gyXTQpW0NIMl1bQ0BASF0oW0NIMl0zKVtDSDJdNQ==

>  <s_epik_cmdline>  (24) 
J2VwaWtfcHl0aG9uJywgJy1waHQnLCAnMi4wJywgJy1waCcsICc3LjAnLCAnLXRuJywgJzgnLCAnLW1hJywgJzIwMCcsICctaW1hZScsICc8aW5maWxlLm1hZT4nLCAnLW9tYWUnLCAnPG91dGZpbGUubWFlPic=

>  <r_lp_tautomer_probability>  (24) 
1

>  <r_epik_Ionization_Penalty>  (24) 
1.31558e-15

>  <r_epik_Ionization_Penalty_Charging>  (24) 
0

>  <r_epik_Ionization_Penalty_Neutral>  (24) 
1.31558e-15

>  <r_epik_State_Penalty>  (24) 
-0

>  <r_epik_Charging_Adjusted_Penalty>  (24) 
0

>  <i_epik_Tot_Q>  (24) 
0

>  <i_epik_Tot_abs_Q>  (24) 
0

>  <s_epik_Chemistry_Notes>  (24) 
This compound contains an acetal/aminal-like group ( X-CH(R)-Y where X, Y are N, S, or O) that may be acid/base labile, releasing an aldehyde.

>  <s_lp_Force_Field>  (24) 
OPLS3e

>  <r_lp_Energy>  (24) 
40.0305

>  <b_lp_Chiralities_Consistent>  (24) 
1

>  <s_lp_Variant>  (24) 
6:0-1

>  <s_i_glide_gridfile>  (24) 
pfpi4k_grid

>  <i_i_glide_lignum>  (24) 
11

>  <i_i_glide_rotatable_bonds>  (24) 
1

>  <r_i_docking_score>  (24) 
-3.77984

>  <r_i_glide_ligand_efficiency>  (24) 
-0.164341

>  <r_i_glide_ligand_efficiency_sa>  (24) 
-0.467364

>  <r_i_glide_ligand_efficiency_ln>  (24) 
-0.914

>  <r_i_glide_gscore>  (24) 
-3.77984

>  <r_i_glide_lipo>  (24) 
-0.302245

>  <r_i_glide_hbond>  (24) 
-0.258335

>  <r_i_glide_metal>  (24) 
-0

>  <r_i_glide_rewards>  (24) 
-1.40038

>  <r_i_glide_evdw>  (24) 
-29.3919

>  <r_i_glide_ecoul>  (24) 
-3.05574

>  <r_i_glide_erotb>  (24) 
0.177926

>  <r_i_glide_esite>  (24) 
-0.0688462

>  <r_i_glide_emodel>  (24) 
-39.935

>  <r_i_glide_energy>  (24) 
-32.4477

>  <r_i_glide_einternal>  (24) 
0.0116636

>  <r_i_glide_intrahb_reward>  (24) 
-0

>  <i_i_glide_confnum>  (24) 
1

>  <i_i_glide_posenum>  (24) 
14

>  <r_i_glide_eff_state_penalty>  (24) 
0

>  <ligand_id>  (24) 
6

>  <original_smiles>  (24) 
CC1(C)CCC2(CC1)OOC(C1CC3(F)CC4CC(C3)C1C4)O2

>  <smiles>  (24) 
[H]C([H])([H])C1(C([H])([H])[H])C([H])([H])C([H])([H])C2(OOC([H])(C3([H])C([H])([H])C4(F)C([H])([H])C5([H])C([H])([H])C([H])(C4([H])[H])C3([H])C5([H])[H])O2)C([H])([H])C1([H])[H]

$$$$
6:0:1
     RDKit          3D

 52 56  0  0  1  0  0  0  0  0999 V2000
    2.7875   -8.7308    4.5480 C   0  0  0  0  0  0  0  0  0  0  0  0
    1.7796   -8.9118    3.3879 C   0  0  0  0  0  0  0  0  0  0  0  0
    1.0590  -10.2694    3.6151 C   0  0  0  0  0  0  0  0  0  0  0  0
    0.7300   -7.7665    3.3730 C   0  0  0  0  0  0  0  0  0  0  0  0
    1.3278   -6.3877    3.0267 C   0  0  0  0  0  0  0  0  0  0  0  0
    2.0988   -6.3998    1.7022 C   0  0  0  0  0  0  0  0  0  0  0  0
    3.1336   -7.5538    1.6609 C   0  0  0  0  0  0  0  0  0  0  0  0
    2.5116   -8.9177    2.0206 C   0  0  0  0  0  0  0  0  0  0  0  0
    1.1552   -6.5514    0.6660 O   0  0  0  0  0  0  0  0  0  0  0  0
    1.4381   -5.4421   -0.2928 O   0  0  0  0  0  0  0  0  0  0  0  0
    2.6643   -4.9462    0.1489 C   0  0  1  0  0  0  0  0  0  0  0  0
    2.8285   -3.4664   -0.2899 C   0  0  2  0  0  0  0  0  0  0  0  0
    2.6228   -3.2480   -1.8195 C   0  0  0  0  0  0  0  0  0  0  0  0
    3.9375   -3.0896   -2.6235 C   0  0  1  0  0  0  0  0  0  0  0  0
    3.7362   -3.4644   -3.8913 F   0  0  0  0  0  0  0  0  0  0  0  0
    4.4316   -1.6287   -2.6946 C   0  0  0  0  0  0  0  0  0  0  0  0
    5.1038   -1.1607   -1.3815 C   0  0  2  0  0  0  0  0  0  0  0  0
    6.2239   -2.1060   -0.9609 C   0  0  0  0  0  0  0  0  0  0  0  0
    5.4130   -3.3563   -0.6197 C   0  0  2  0  0  0  0  0  0  0  0  0
    5.0412   -3.9588   -2.0009 C   0  0  0  0  0  0  0  0  0  0  0  0
    4.1622   -2.8041    0.1412 C   0  0  1  0  0  0  0  0  0  0  0  0
    4.1639   -1.2791   -0.1796 C   0  0  0  0  0  0  0  0  0  0  0  0
    2.7149   -5.1456    1.5392 O   0  0  0  0  0  0  0  0  0  0  0  0
    2.2916   -8.7780    5.5196 H   0  0  0  0  0  0  0  0  0  0  0  0
    3.3202   -7.7779    4.5154 H   0  0  0  0  0  0  0  0  0  0  0  0
    3.5483   -9.5121    4.5330 H   0  0  0  0  0  0  0  0  0  0  0  0
    0.3053  -10.4691    2.8518 H   0  0  0  0  0  0  0  0  0  0  0  0
    0.5511  -10.3025    4.5847 H   0  0  0  0  0  0  0  0  0  0  0  0
    1.7614  -11.1049    3.6056 H   0  0  0  0  0  0  0  0  0  0  0  0
   -0.0500   -8.0027    2.6409 H   0  0  0  0  0  0  0  0  0  0  0  0
    0.2251   -7.7068    4.3358 H   0  0  0  0  0  0  0  0  0  0  0  0
    0.5477   -5.6258    2.9892 H   0  0  0  0  0  0  0  0  0  0  0  0
    2.0049   -6.0645    3.8196 H   0  0  0  0  0  0  0  0  0  0  0  0
    3.6202   -7.6364    0.6913 H   0  0  0  0  0  0  0  0  0  0  0  0
    3.9493   -7.3415    2.3514 H   0  0  0  0  0  0  0  0  0  0  0  0
    3.2752   -9.6975    2.0107 H   0  0  0  0  0  0  0  0  0  0  0  0
    1.8096   -9.2045    1.2338 H   0  0  0  0  0  0  0  0  0  0  0  0
    3.4270   -5.5997   -0.2440 H   0  0  0  0  0  0  0  0  0  0  0  0
    2.0335   -2.9038    0.2037 H   0  0  0  0  0  0  0  0  0  0  0  0
    2.0154   -4.0397   -2.2494 H   0  0  0  0  0  0  0  0  0  0  0  0
    2.0235   -2.3569   -2.0017 H   0  0  0  0  0  0  0  0  0  0  0  0
    5.1506   -1.5694   -3.5055 H   0  0  0  0  0  0  0  0  0  0  0  0
    3.6257   -0.9530   -2.9807 H   0  0  0  0  0  0  0  0  0  0  0  0
    5.4832   -0.1593   -1.5147 H   0  0  0  0  0  0  0  0  0  0  0  0
    6.9648   -2.2675   -1.7423 H   0  0  0  0  0  0  0  0  0  0  0  0
    6.7499   -1.7220   -0.0810 H   0  0  0  0  0  0  0  0  0  0  0  0
    5.9908   -4.0570   -0.0175 H   0  0  0  0  0  0  0  0  0  0  0  0
    4.7325   -4.9990   -1.9302 H   0  0  0  0  0  0  0  0  0  0  0  0
    5.9191   -3.9886   -2.6494 H   0  0  0  0  0  0  0  0  0  0  0  0
    4.2957   -2.9062    1.2205 H   0  0  0  0  0  0  0  0  0  0  0  0
    4.5823   -0.7101    0.6559 H   0  0  0  0  0  0  0  0  0  0  0  0
    3.1752   -0.8583   -0.3814 H   0  0  0  0  0  0  0  0  0  0  0  0
  1  2  1  0
  1 24  1  0
  1 25  1  0
  1 26  1  0
  2  8  1  0
  2  3  1  0
  2  4  1  0
  3 27  1  0
  3 28  1  0
  3 29  1  0
  4  5  1  0
  4 30  1  0
  4 31  1  0
  5  6  1  0
  5 32  1  0
  5 33  1  0
  6 23  1  0
  6  7  1  0
  6  9  1  0
  7  8  1  0
  7 34  1  0
  7 35  1  0
  8 36  1  0
  8 37  1  0
  9 10  1  0
 10 11  1  0
 11 12  1  0
 11 23  1  0
 11 38  1  6
 12 21  1  0
 12 13  1  0
 12 39  1  1
 13 14  1  0
 13 40  1  0
 13 41  1  0
 14 20  1  0
 14 15  1  6
 14 16  1  0
 16 17  1  0
 16 42  1  0
 16 43  1  0
 17 22  1  0
 17 18  1  0
 17 44  1  6
 18 19  1  0
 18 45  1  0
 18 46  1  0
 19 20  1  0
 19 21  1  0
 19 47  1  1
 20 48  1  0
 20 49  1  0
 21 22  1  0
 21 50  1  1
 22 51  1  0
 22 52  1  0
M  END
>  <i_m_ct_stereo_status>  (25) 
1

>  <s_m_source_file>  (25) 
/var/tmp/pbs.5076255.sched01/tmplremgrqo/0ygzoxw5b.sdf

>  <i_m_source_file_index>  (25) 
11

>  <i_lp_mmshare_version>  (25) 
48012

>  <i_f3d_flags>  (25) 
0

>  <s_epik_input>  (25) 
W0NIMl0xW0NIMl1DKFtDSDNdKShbQ0gzXSlbQ0gyXVtDSDJdQzEyT09bQ0BIXShPMilbQ0BIXShbQ0gyXVtDQEBdMzRGKVtDQEhdNVtDQEBIXShbQ0gyXTQpW0NIMl1bQ0BASF0oW0NIMl0zKVtDSDJdNQ==

>  <s_epik_cmdline>  (25) 
J2VwaWtfcHl0aG9uJywgJy1waHQnLCAnMi4wJywgJy1waCcsICc3LjAnLCAnLXRuJywgJzgnLCAnLW1hJywgJzIwMCcsICctaW1hZScsICc8aW5maWxlLm1hZT4nLCAnLW9tYWUnLCAnPG91dGZpbGUubWFlPic=

>  <r_lp_tautomer_probability>  (25) 
1

>  <r_epik_Ionization_Penalty>  (25) 
1.31558e-15

>  <r_epik_Ionization_Penalty_Charging>  (25) 
0

>  <r_epik_Ionization_Penalty_Neutral>  (25) 
1.31558e-15

>  <r_epik_State_Penalty>  (25) 
-0

>  <r_epik_Charging_Adjusted_Penalty>  (25) 
0

>  <i_epik_Tot_Q>  (25) 
0

>  <i_epik_Tot_abs_Q>  (25) 
0

>  <s_epik_Chemistry_Notes>  (25) 
This compound contains an acetal/aminal-like group ( X-CH(R)-Y where X, Y are N, S, or O) that may be acid/base labile, releasing an aldehyde.

>  <s_lp_Force_Field>  (25) 
OPLS3e

>  <r_lp_Energy>  (25) 
40.0305

>  <b_lp_Chiralities_Consistent>  (25) 
1

>  <s_lp_Variant>  (25) 
6:0-1

>  <s_i_glide_gridfile>  (25) 
pfpi4k_grid

>  <i_i_glide_lignum>  (25) 
11

>  <i_i_glide_rotatable_bonds>  (25) 
1

>  <r_i_docking_score>  (25) 
-3.62982

>  <r_i_glide_ligand_efficiency>  (25) 
-0.157818

>  <r_i_glide_ligand_efficiency_sa>  (25) 
-0.448814

>  <r_i_glide_ligand_efficiency_ln>  (25) 
-0.877723

>  <r_i_glide_gscore>  (25) 
-3.62982

>  <r_i_glide_lipo>  (25) 
-0.246266

>  <r_i_glide_hbond>  (25) 
-0.295456

>  <r_i_glide_metal>  (25) 
-0

>  <r_i_glide_rewards>  (25) 
-1.28624

>  <r_i_glide_evdw>  (25) 
-27.1155

>  <r_i_glide_ecoul>  (25) 
-3.69491

>  <r_i_glide_erotb>  (25) 
0.177926

>  <r_i_glide_esite>  (25) 
-0.0697741

>  <r_i_glide_emodel>  (25) 
-37.8062

>  <r_i_glide_energy>  (25) 
-30.8104

>  <r_i_glide_einternal>  (25) 
0.08308

>  <r_i_glide_intrahb_reward>  (25) 
-0

>  <i_i_glide_confnum>  (25) 
1

>  <i_i_glide_posenum>  (25) 
9

>  <r_i_glide_eff_state_penalty>  (25) 
0

>  <ligand_id>  (25) 
6

>  <original_smiles>  (25) 
CC1(C)CCC2(CC1)OOC(C1CC3(F)CC4CC(C3)C1C4)O2

>  <smiles>  (25) 
[H]C([H])([H])C1(C([H])([H])[H])C([H])([H])C([H])([H])C2(OOC([H])(C3([H])C([H])([H])C4(F)C([H])([H])C5([H])C([H])([H])C([H])(C4([H])[H])C3([H])C5([H])[H])O2)C([H])([H])C1([H])[H]

$$$$
6:0:2
     RDKit          3D

 52 56  0  0  1  0  0  0  0  0999 V2000
    0.1669   -6.9621    3.9808 C   0  0  0  0  0  0  0  0  0  0  0  0
    0.9755   -8.0300    3.2080 C   0  0  0  0  0  0  0  0  0  0  0  0
    0.3292   -9.3971    3.5146 C   0  0  0  0  0  0  0  0  0  0  0  0
    0.9323   -7.7605    1.6857 C   0  0  0  0  0  0  0  0  0  0  0  0
    1.6924   -6.4773    1.2750 C   0  0  0  0  0  0  0  0  0  0  0  0
    3.1611   -6.5011    1.7726 C   0  0  0  0  0  0  0  0  0  0  0  0
    3.2139   -6.7624    3.2893 C   0  0  0  0  0  0  0  0  0  0  0  0
    2.4522   -8.0476    3.6761 C   0  0  0  0  0  0  0  0  0  0  0  0
    3.9174   -7.4638    1.0674 O   0  0  0  0  0  0  0  0  0  0  0  0
    5.0880   -6.7004    0.5035 O   0  0  0  0  0  0  0  0  0  0  0  0
    5.0443   -5.4563    1.1663 C   0  0  1  0  0  0  0  0  0  0  0  0
    5.6702   -4.3022    0.3136 C   0  0  2  0  0  0  0  0  0  0  0  0
    5.8107   -2.9530    1.0643 C   0  0  0  0  0  0  0  0  0  0  0  0
    4.7229   -1.9121    0.6855 C   0  0  1  0  0  0  0  0  0  0  0  0
    4.5956   -1.0878    1.7275 F   0  0  0  0  0  0  0  0  0  0  0  0
    5.1110   -1.0430   -0.5511 C   0  0  0  0  0  0  0  0  0  0  0  0
    4.9595   -1.7985   -1.9020 C   0  0  2  0  0  0  0  0  0  0  0  0
    3.5496   -2.3830   -2.0353 C   0  0  0  0  0  0  0  0  0  0  0  0
    3.5646   -3.4267   -0.9025 C   0  0  2  0  0  0  0  0  0  0  0  0
    3.3839   -2.5944    0.4076 C   0  0  0  0  0  0  0  0  0  0  0  0
    4.9931   -4.0711   -1.0536 C   0  0  1  0  0  0  0  0  0  0  0  0
    5.7972   -3.0737   -1.9328 C   0  0  0  0  0  0  0  0  0  0  0  0
    3.7074   -5.2191    1.5357 O   0  0  0  0  0  0  0  0  0  0  0  0
   -0.8896   -7.0014    3.7137 H   0  0  0  0  0  0  0  0  0  0  0  0
    0.5058   -5.9470    3.7906 H   0  0  0  0  0  0  0  0  0  0  0  0
    0.2467   -7.1188    5.0576 H   0  0  0  0  0  0  0  0  0  0  0  0
    0.8198  -10.2151    2.9858 H   0  0  0  0  0  0  0  0  0  0  0  0
   -0.7245   -9.4201    3.2343 H   0  0  0  0  0  0  0  0  0  0  0  0
    0.3715   -9.6321    4.5800 H   0  0  0  0  0  0  0  0  0  0  0  0
    1.3910   -8.5951    1.1599 H   0  0  0  0  0  0  0  0  0  0  0  0
   -0.1032   -7.7174    1.3400 H   0  0  0  0  0  0  0  0  0  0  0  0
    1.6411   -6.3313    0.1994 H   0  0  0  0  0  0  0  0  0  0  0  0
    1.1840   -5.6209    1.6955 H   0  0  0  0  0  0  0  0  0  0  0  0
    4.2455   -6.8124    3.6376 H   0  0  0  0  0  0  0  0  0  0  0  0
    2.7810   -5.9188    3.8151 H   0  0  0  0  0  0  0  0  0  0  0  0
    2.5087   -8.1892    4.7550 H   0  0  0  0  0  0  0  0  0  0  0  0
    2.9786   -8.8925    3.2317 H   0  0  0  0  0  0  0  0  0  0  0  0
    5.6122   -5.5886    2.0983 H   0  0  0  0  0  0  0  0  0  0  0  0
    6.6841   -4.6582    0.1047 H   0  0  0  0  0  0  0  0  0  0  0  0
    5.8236   -3.1379    2.1434 H   0  0  0  0  0  0  0  0  0  0  0  0
    6.7931   -2.5418    0.8599 H   0  0  0  0  0  0  0  0  0  0  0  0
    4.4445   -0.1870   -0.5661 H   0  0  0  0  0  0  0  0  0  0  0  0
    6.1137   -0.6359   -0.4288 H   0  0  0  0  0  0  0  0  0  0  0  0
    5.1878   -1.1248   -2.7303 H   0  0  0  0  0  0  0  0  0  0  0  0
    2.7667   -1.6415   -1.9098 H   0  0  0  0  0  0  0  0  0  0  0  0
    3.4033   -2.8506   -3.0117 H   0  0  0  0  0  0  0  0  0  0  0  0
    2.7843   -4.1677   -1.0304 H   0  0  0  0  0  0  0  0  0  0  0  0
    3.0928   -3.1369    1.3035 H   0  0  0  0  0  0  0  0  0  0  0  0
    2.5851   -1.8573    0.2762 H   0  0  0  0  0  0  0  0  0  0  0  0
    4.9422   -5.0183   -1.6003 H   0  0  0  0  0  0  0  0  0  0  0  0
    5.8552   -3.4380   -2.9606 H   0  0  0  0  0  0  0  0  0  0  0  0
    6.8311   -2.9146   -1.6110 H   0  0  0  0  0  0  0  0  0  0  0  0
  1  2  1  0
  1 24  1  0
  1 25  1  0
  1 26  1  0
  2  8  1  0
  2  3  1  0
  2  4  1  0
  3 27  1  0
  3 28  1  0
  3 29  1  0
  4  5  1  0
  4 30  1  0
  4 31  1  0
  5  6  1  0
  5 32  1  0
  5 33  1  0
  6 23  1  0
  6  7  1  0
  6  9  1  0
  7  8  1  0
  7 34  1  0
  7 35  1  0
  8 36  1  0
  8 37  1  0
  9 10  1  0
 10 11  1  0
 11 12  1  0
 11 23  1  0
 11 38  1  1
 12 21  1  0
 12 13  1  0
 12 39  1  6
 13 14  1  0
 13 40  1  0
 13 41  1  0
 14 20  1  0
 14 15  1  1
 14 16  1  0
 16 17  1  0
 16 42  1  0
 16 43  1  0
 17 22  1  0
 17 18  1  0
 17 44  1  6
 18 19  1  0
 18 45  1  0
 18 46  1  0
 19 20  1  0
 19 21  1  0
 19 47  1  6
 20 48  1  0
 20 49  1  0
 21 22  1  0
 21 50  1  6
 22 51  1  0
 22 52  1  0
M  END
>  <i_m_ct_stereo_status>  (26) 
1

>  <s_m_source_file>  (26) 
/var/tmp/pbs.5076255.sched01/tmplremgrqo/0ygzoxw5b.sdf

>  <i_m_source_file_index>  (26) 
11

>  <i_lp_mmshare_version>  (26) 
48012

>  <i_f3d_flags>  (26) 
0

>  <s_epik_input>  (26) 
W0NIMl0xW0NIMl1DKFtDSDNdKShbQ0gzXSlbQ0gyXVtDSDJdQzEyT09bQ0BIXShPMilbQ0BIXShbQ0gyXVtDQEBdMzRGKVtDQEhdNVtDQEBIXShbQ0gyXTQpW0NIMl1bQ0BASF0oW0NIMl0zKVtDSDJdNQ==

>  <s_epik_cmdline>  (26) 
J2VwaWtfcHl0aG9uJywgJy1waHQnLCAnMi4wJywgJy1waCcsICc3LjAnLCAnLXRuJywgJzgnLCAnLW1hJywgJzIwMCcsICctaW1hZScsICc8aW5maWxlLm1hZT4nLCAnLW9tYWUnLCAnPG91dGZpbGUubWFlPic=

>  <r_lp_tautomer_probability>  (26) 
1

>  <r_epik_Ionization_Penalty>  (26) 
1.31558e-15

>  <r_epik_Ionization_Penalty_Charging>  (26) 
0

>  <r_epik_Ionization_Penalty_Neutral>  (26) 
1.31558e-15

>  <r_epik_State_Penalty>  (26) 
-0

>  <r_epik_Charging_Adjusted_Penalty>  (26) 
0

>  <i_epik_Tot_Q>  (26) 
0

>  <i_epik_Tot_abs_Q>  (26) 
0

>  <s_epik_Chemistry_Notes>  (26) 
This compound contains an acetal/aminal-like group ( X-CH(R)-Y where X, Y are N, S, or O) that may be acid/base labile, releasing an aldehyde.

>  <s_lp_Force_Field>  (26) 
OPLS3e

>  <r_lp_Energy>  (26) 
40.0305

>  <b_lp_Chiralities_Consistent>  (26) 
1

>  <s_lp_Variant>  (26) 
6:0-1

>  <s_i_glide_gridfile>  (26) 
pfpi4k_grid

>  <i_i_glide_lignum>  (26) 
11

>  <i_i_glide_rotatable_bonds>  (26) 
1

>  <r_i_docking_score>  (26) 
-3.03539

>  <r_i_glide_ligand_efficiency>  (26) 
-0.131973

>  <r_i_glide_ligand_efficiency_sa>  (26) 
-0.375315

>  <r_i_glide_ligand_efficiency_ln>  (26) 
-0.733985

>  <r_i_glide_gscore>  (26) 
-3.03539

>  <r_i_glide_lipo>  (26) 
-0.328022

>  <r_i_glide_hbond>  (26) 
0

>  <r_i_glide_metal>  (26) 
-0

>  <r_i_glide_rewards>  (26) 
-1.41207

>  <r_i_glide_evdw>  (26) 
-28.3137

>  <r_i_glide_ecoul>  (26) 
-0.383574

>  <r_i_glide_erotb>  (26) 
0.177926

>  <r_i_glide_esite>  (26) 
0

>  <r_i_glide_emodel>  (26) 
-33.1289

>  <r_i_glide_energy>  (26) 
-28.6973

>  <r_i_glide_einternal>  (26) 
2.34386

>  <r_i_glide_intrahb_reward>  (26) 
-0

>  <i_i_glide_confnum>  (26) 
1

>  <i_i_glide_posenum>  (26) 
28

>  <r_i_glide_eff_state_penalty>  (26) 
0

>  <ligand_id>  (26) 
6

>  <original_smiles>  (26) 
CC1(C)CCC2(CC1)OOC(C1CC3(F)CC4CC(C3)C1C4)O2

>  <smiles>  (26) 
[H]C([H])([H])C1(C([H])([H])[H])C([H])([H])C([H])([H])C2(OOC([H])(C3([H])C([H])([H])C4(F)C([H])([H])C5([H])C([H])([H])C([H])(C4([H])[H])C3([H])C5([H])[H])O2)C([H])([H])C1([H])[H]

$$$$
7:0:0
     RDKit          3D

 72 78  0  0  1  0  0  0  0  0999 V2000
   -1.2423   -9.5471    2.2524 C   0  0  0  0  0  0  0  0  0  0  0  0
    0.0443   -8.9573    2.8176 C   0  0  2  0  0  0  0  0  0  0  0  0
    0.4151   -9.4743    4.1917 C   0  0  0  0  0  0  0  0  0  0  0  0
    1.0891   -8.2820    4.9097 C   0  0  1  0  0  0  0  0  0  0  0  0
    2.6378   -8.2724    4.8238 C   0  0  1  0  0  0  0  0  0  0  0  0
    3.1286   -7.1013    5.4879 O   0  0  0  0  0  0  0  0  0  0  0  0
    3.3038   -9.4599    5.6003 C   0  0  0  0  0  0  0  0  0  0  0  0
    4.5746   -9.6834    4.8307 C   0  0  0  0  0  0  0  0  0  0  0  0
    4.4506   -9.0748    3.6427 C   0  0  0  0  0  0  0  0  0  0  0  0
    3.1832   -8.3474    3.3402 C   0  0  2  0  0  0  0  0  0  0  0  0
    4.1965   -7.3448    2.6713 C   0  0  2  0  0  0  0  0  0  0  0  0
    3.9434   -7.0042    1.1850 C   0  0  1  0  0  0  0  0  0  0  0  0
    2.4813   -6.6133    0.8810 C   0  0  0  0  0  0  0  0  0  0  0  0
    4.8825   -5.8861    0.7024 C   0  0  0  0  0  0  0  0  0  0  0  0
    4.6410   -4.5068    1.3518 C   0  0  2  0  0  0  0  0  0  0  0  0
    3.6967   -3.6882    0.6687 O   0  0  0  0  0  0  0  0  0  0  0  0
    4.4189   -2.4751    0.3640 C   0  0  2  0  0  0  0  0  0  0  0  0
    3.6950   -1.5204   -0.5453 C   0  0  0  0  0  0  0  0  0  0  0  0
    3.4417   -2.2028   -1.8951 C   0  0  0  0  0  0  0  0  0  0  0  0
    4.5440   -3.1766   -2.3790 C   0  0  0  0  0  0  0  0  0  0  0  0
    4.5742   -3.5430   -3.5467 O   0  0  0  0  0  0  0  0  0  0  0  0
    5.4608   -3.6724   -1.4391 O   0  0  0  0  0  0  0  0  0  0  0  0
    5.7152   -2.9246   -0.2524 C   0  0  2  0  0  0  0  0  0  0  0  0
    5.7497   -3.4922    1.1696 C   0  0  1  0  0  0  0  0  0  0  0  0
    5.2054   -2.1068    1.6359 C   0  0  0  0  0  0  0  0  0  0  0  0
    6.1529   -0.8857    1.6597 C   0  0  0  0  0  0  0  0  0  0  0  0
    4.3965   -2.0043    2.9286 C   0  0  0  0  0  0  0  0  0  0  0  0
    4.3374   -8.3284    0.4739 C   0  0  0  0  0  0  0  0  0  0  0  0
    5.4802   -8.9493    1.3009 C   0  0  0  0  0  0  0  0  0  0  0  0
    5.3624   -8.3572    2.7068 C   0  0  2  0  0  0  0  0  0  0  0  0
    6.6704   -7.9478    3.3460 C   0  0  0  0  0  0  0  0  0  0  0  0
    0.5295   -7.1617    4.2145 O   0  0  0  0  0  0  0  0  0  0  0  0
   -0.0458   -7.4600    3.0403 C   0  0  0  0  0  0  0  0  0  0  0  0
   -0.5414   -6.6524    2.2410 O   0  0  0  0  0  0  0  0  0  0  0  0
   -1.4805   -9.0580    1.3041 H   0  0  0  0  0  0  0  0  0  0  0  0
   -2.1046   -9.4153    2.9246 H   0  0  0  0  0  0  0  0  0  0  0  0
   -1.0838  -10.6063    2.0424 H   0  0  0  0  0  0  0  0  0  0  0  0
    0.8742   -9.1278    2.1475 H   0  0  0  0  0  0  0  0  0  0  0  0
   -0.4674   -9.7742    4.7591 H   0  0  0  0  0  0  0  0  0  0  0  0
    1.0417  -10.3559    4.0879 H   0  0  0  0  0  0  0  0  0  0  0  0
    0.7694   -8.2510    5.9508 H   0  0  0  0  0  0  0  0  0  0  0  0
    2.8110   -7.0928    6.3754 H   0  0  0  0  0  0  0  0  0  0  0  0
    3.5289   -9.2339    6.6401 H   0  0  0  0  0  0  0  0  0  0  0  0
    2.7160  -10.3729    5.5978 H   0  0  0  0  0  0  0  0  0  0  0  0
    5.4517  -10.1186    5.2814 H   0  0  0  0  0  0  0  0  0  0  0  0
    2.5700   -8.8984    2.5965 H   0  0  0  0  0  0  0  0  0  0  0  0
    4.3857   -6.4924    3.3314 H   0  0  0  0  0  0  0  0  0  0  0  0
    2.3794   -6.2194   -0.1334 H   0  0  0  0  0  0  0  0  0  0  0  0
    2.1274   -5.8494    1.5668 H   0  0  0  0  0  0  0  0  0  0  0  0
    1.8244   -7.4776    0.9392 H   0  0  0  0  0  0  0  0  0  0  0  0
    5.9044   -6.1933    0.9203 H   0  0  0  0  0  0  0  0  0  0  0  0
    4.8084   -5.8071   -0.3763 H   0  0  0  0  0  0  0  0  0  0  0  0
    4.4053   -4.6069    2.4145 H   0  0  0  0  0  0  0  0  0  0  0  0
    2.7702   -1.1647   -0.0886 H   0  0  0  0  0  0  0  0  0  0  0  0
    4.3069   -0.6308   -0.7252 H   0  0  0  0  0  0  0  0  0  0  0  0
    2.5465   -2.7942   -1.8134 H   0  0  0  0  0  0  0  0  0  0  0  0
    3.2725   -1.4825   -2.6765 H   0  0  0  0  0  0  0  0  0  0  0  0
    6.4458   -2.1485   -0.4353 H   0  0  0  0  0  0  0  0  0  0  0  0
    6.7400   -3.7563    1.5496 H   0  0  0  0  0  0  0  0  0  0  0  0
    6.7017   -0.8386    2.5996 H   0  0  0  0  0  0  0  0  0  0  0  0
    5.5760    0.0337    1.5946 H   0  0  0  0  0  0  0  0  0  0  0  0
    6.9174   -0.8260    0.8805 H   0  0  0  0  0  0  0  0  0  0  0  0
    4.9907   -2.2730    3.7968 H   0  0  0  0  0  0  0  0  0  0  0  0
    3.5319   -2.6483    2.9121 H   0  0  0  0  0  0  0  0  0  0  0  0
    4.0101   -1.0000    3.0710 H   0  0  0  0  0  0  0  0  0  0  0  0
    3.5035   -9.0313    0.4898 H   0  0  0  0  0  0  0  0  0  0  0  0
    4.6125   -8.1845   -0.5667 H   0  0  0  0  0  0  0  0  0  0  0  0
    5.4545  -10.0416    1.2930 H   0  0  0  0  0  0  0  0  0  0  0  0
    6.4379   -8.6462    0.8731 H   0  0  0  0  0  0  0  0  0  0  0  0
    7.1579   -7.1654    2.7655 H   0  0  0  0  0  0  0  0  0  0  0  0
    7.3386   -8.8002    3.4362 H   0  0  0  0  0  0  0  0  0  0  0  0
    6.4761   -7.5479    4.3377 H   0  0  0  0  0  0  0  0  0  0  0  0
  1  2  1  0
  1 35  1  0
  1 36  1  0
  1 37  1  0
  2 33  1  0
  2  3  1  0
  2 38  1  6
  3  4  1  0
  3 39  1  0
  3 40  1  0
  4  5  1  0
  4 32  1  0
  4 41  1  1
  5 10  1  0
  5  6  1  1
  5  7  1  0
  6 42  1  0
  7  8  1  0
  7 43  1  0
  7 44  1  0
  8  9  2  0
  8 45  1  0
  9 30  1  0
  9 10  1  0
 10 11  1  0
 10 46  1  6
 11 30  1  0
 11 12  1  0
 11 47  1  1
 12 13  1  1
 12 14  1  0
 12 28  1  0
 13 48  1  0
 13 49  1  0
 13 50  1  0
 14 15  1  0
 14 51  1  0
 14 52  1  0
 15 24  1  0
 15 16  1  0
 15 53  1  1
 16 17  1  0
 17 23  1  0
 17 25  1  0
 17 18  1  6
 18 19  1  0
 18 54  1  0
 18 55  1  0
 19 20  1  0
 19 56  1  0
 19 57  1  0
 20 21  2  0
 20 22  1  0
 22 23  1  0
 23 24  1  0
 23 58  1  6
 24 25  1  0
 24 59  1  1
 25 26  1  0
 25 27  1  0
 26 60  1  0
 26 61  1  0
 26 62  1  0
 27 63  1  0
 27 64  1  0
 27 65  1  0
 28 29  1  0
 28 66  1  0
 28 67  1  0
 29 30  1  0
 29 68  1  0
 29 69  1  0
 30 31  1  1
 31 70  1  0
 31 71  1  0
 31 72  1  0
 32 33  1  0
 33 34  2  0
M  END
>  <i_m_ct_stereo_status>  (27) 
1

>  <s_m_source_file>  (27) 
/var/tmp/pbs.5076255.sched01/tmplremgrqo/0ygzoxw5b.sdf

>  <i_m_source_file_index>  (27) 
12

>  <i_lp_mmshare_version>  (27) 
48012

>  <i_f3d_flags>  (27) 
0

>  <s_epik_input>  (27) 
W0NIM11bQ0BASF0xW0NIMl1bQ0BIXShPQzE9TylbQ0BAXShbT0hdKShbQ0gyXVtDSF09MilbQ0BIXShDMltDQF0zNFtDSDNdKVtDQEBIXTNbQ0BdKFtDSDNdKShbQ0gyXVtDSDJdNClbQ0gyXVtDQEhdKE81KVtDQEhdKEM2KFtDSDNdKVtDSDNdKVtDQEhdKFtDQEBdNTY3KU9DKD1PKVtDSDJdW0NIMl03

>  <s_epik_cmdline>  (27) 
J2VwaWtfcHl0aG9uJywgJy1waHQnLCAnMi4wJywgJy1waCcsICc3LjAnLCAnLXRuJywgJzgnLCAnLW1hJywgJzIwMCcsICctaW1hZScsICc8aW5maWxlLm1hZT4nLCAnLW9tYWUnLCAnPG91dGZpbGUubWFlPic=

>  <r_lp_tautomer_probability>  (27) 
1

>  <r_epik_Ionization_Penalty>  (27) 
3.22564e-08

>  <r_epik_Ionization_Penalty_Charging>  (27) 
0

>  <r_epik_Ionization_Penalty_Neutral>  (27) 
3.22564e-08

>  <r_epik_State_Penalty>  (27) 
-0

>  <r_epik_Charging_Adjusted_Penalty>  (27) 
0

>  <i_epik_Tot_Q>  (27) 
0

>  <i_epik_Tot_abs_Q>  (27) 
0

>  <s_epik_Chemistry_Notes>  (27) 
This compound has an ester and may undergo hydrolysis at high or low pH.

>  <s_lp_Force_Field>  (27) 
OPLS3e

>  <r_lp_Energy>  (27) 
92.6283

>  <b_lp_Chiralities_Consistent>  (27) 
1

>  <s_lp_Variant>  (27) 
7:0-1

>  <s_i_glide_gridfile>  (27) 
pfpi4k_grid

>  <i_i_glide_lignum>  (27) 
12

>  <i_i_glide_rotatable_bonds>  (27) 
4

>  <r_i_docking_score>  (27) 
-3.08764

>  <r_i_glide_ligand_efficiency>  (27) 
-0.0908128

>  <r_i_glide_ligand_efficiency_sa>  (27) 
-0.294198

>  <r_i_glide_ligand_efficiency_ln>  (27) 
-0.682145

>  <r_i_glide_gscore>  (27) 
-3.08764

>  <r_i_glide_lipo>  (27) 
-0.718289

>  <r_i_glide_hbond>  (27) 
-0.16

>  <r_i_glide_metal>  (27) 
-0

>  <r_i_glide_rewards>  (27) 
-0.234217

>  <r_i_glide_evdw>  (27) 
-30.3416

>  <r_i_glide_ecoul>  (27) 
-4.5376

>  <r_i_glide_erotb>  (27) 
0.273721

>  <r_i_glide_esite>  (27) 
-0.05113

>  <r_i_glide_emodel>  (27) 
-38.3294

>  <r_i_glide_energy>  (27) 
-34.8792

>  <r_i_glide_einternal>  (27) 
4.76123

>  <r_i_glide_intrahb_reward>  (27) 
-0

>  <i_i_glide_confnum>  (27) 
2

>  <i_i_glide_posenum>  (27) 
1

>  <r_i_glide_eff_state_penalty>  (27) 
0

>  <ligand_id>  (27) 
7

>  <original_smiles>  (27) 
CC1CC(C2(O)CC=C3C2C2C(C)(CC4OC56CCC(=O)OC5C4C6(C)C)CCC32C)OC1=O

>  <smiles>  (27) 
[H]OC1(C2([H])OC(=O)C([H])(C([H])([H])[H])C2([H])[H])C([H])([H])C([H])=C2C1([H])C1([H])C2(C([H])([H])[H])C([H])([H])C([H])([H])C1(C([H])([H])[H])C([H])([H])C1([H])OC23C([H])([H])C([H])([H])C(=O)OC2([H])C1([H])C3(C([H])([H])[H])C([H])([H])[H]

$$$$
7:0:1
     RDKit          3D

 72 78  0  0  1  0  0  0  0  0999 V2000
   -1.3122   -9.5412    2.2290 C   0  0  0  0  0  0  0  0  0  0  0  0
   -0.0316   -8.9538    2.8181 C   0  0  2  0  0  0  0  0  0  0  0  0
    0.3439   -9.5192    4.1751 C   0  0  0  0  0  0  0  0  0  0  0  0
    0.9989   -8.3501    4.9230 C   0  0  1  0  0  0  0  0  0  0  0  0
    2.5356   -8.3370    4.8333 C   0  0  1  0  0  0  0  0  0  0  0  0
    2.9726   -7.1670    5.4985 O   0  0  0  0  0  0  0  0  0  0  0  0
    3.2072   -9.5293    5.5867 C   0  0  0  0  0  0  0  0  0  0  0  0
    4.4851   -9.7284    4.8141 C   0  0  0  0  0  0  0  0  0  0  0  0
    4.3405   -9.1212    3.6288 C   0  0  0  0  0  0  0  0  0  0  0  0
    3.0886   -8.3715    3.3661 C   0  0  2  0  0  0  0  0  0  0  0  0
    4.0806   -7.3502    2.7137 C   0  0  2  0  0  0  0  0  0  0  0  0
    3.8323   -6.9787    1.2313 C   0  0  1  0  0  0  0  0  0  0  0  0
    2.3693   -6.5942    0.9322 C   0  0  0  0  0  0  0  0  0  0  0  0
    4.7677   -5.8353    0.7725 C   0  0  0  0  0  0  0  0  0  0  0  0
    4.5296   -4.4703    1.4531 C   0  0  2  0  0  0  0  0  0  0  0  0
    3.6049   -3.6249    0.7738 O   0  0  0  0  0  0  0  0  0  0  0  0
    4.3458   -2.4078    0.5219 C   0  0  2  0  0  0  0  0  0  0  0  0
    3.6462   -1.4175   -0.3800 C   0  0  0  0  0  0  0  0  0  0  0  0
    3.4198   -2.0753   -1.7534 C   0  0  0  0  0  0  0  0  0  0  0  0
    4.5125   -3.0557   -2.2400 C   0  0  0  0  0  0  0  0  0  0  0  0
    4.5708   -3.4043   -3.4151 O   0  0  0  0  0  0  0  0  0  0  0  0
    5.4025   -3.5702   -1.2984 O   0  0  0  0  0  0  0  0  0  0  0  0
    5.6415   -2.8615   -0.0859 C   0  0  2  0  0  0  0  0  0  0  0  0
    5.6545   -3.4670    1.3284 C   0  0  1  0  0  0  0  0  0  0  0  0
    5.0983   -2.0903    1.8228 C   0  0  0  0  0  0  0  0  0  0  0  0
    6.0618   -0.8762    1.9066 C   0  0  0  0  0  0  0  0  0  0  0  0
    4.2477   -2.0250    3.0993 C   0  0  0  0  0  0  0  0  0  0  0  0
    4.2380   -8.2829    0.4899 C   0  0  0  0  0  0  0  0  0  0  0  0
    5.3909   -8.9085    1.2945 C   0  0  0  0  0  0  0  0  0  0  0  0
    5.2526   -8.3613    2.7188 C   0  0  2  0  0  0  0  0  0  0  0  0
    6.5654   -7.9394    3.3619 C   0  0  0  0  0  0  0  0  0  0  0  0
    0.4485   -7.2053    4.2730 O   0  0  0  0  0  0  0  0  0  0  0  0
   -0.1156   -7.4678    3.0918 C   0  0  0  0  0  0  0  0  0  0  0  0
   -0.6018   -6.6492    2.3168 O   0  0  0  0  0  0  0  0  0  0  0  0
   -1.5525   -9.0546    1.2813 H   0  0  0  0  0  0  0  0  0  0  0  0
   -2.1659   -9.4313    2.9022 H   0  0  0  0  0  0  0  0  0  0  0  0
   -1.1535  -10.5971    2.0143 H   0  0  0  0  0  0  0  0  0  0  0  0
    0.7812   -9.1156    2.1224 H   0  0  0  0  0  0  0  0  0  0  0  0
   -0.5407   -9.8424    4.7189 H   0  0  0  0  0  0  0  0  0  0  0  0
    0.9875  -10.3890    4.0638 H   0  0  0  0  0  0  0  0  0  0  0  0
    0.6890   -8.3504    5.9702 H   0  0  0  0  0  0  0  0  0  0  0  0
    2.6449   -6.4157    5.0177 H   0  0  0  0  0  0  0  0  0  0  0  0
    3.4266   -9.3188    6.6362 H   0  0  0  0  0  0  0  0  0  0  0  0
    2.6158  -10.4427    5.5602 H   0  0  0  0  0  0  0  0  0  0  0  0
    5.3812  -10.1499    5.2377 H   0  0  0  0  0  0  0  0  0  0  0  0
    2.4696   -8.8932    2.6332 H   0  0  0  0  0  0  0  0  0  0  0  0
    4.2727   -6.5085    3.3725 H   0  0  0  0  0  0  0  0  0  0  0  0
    2.2600   -6.1832   -0.0708 H   0  0  0  0  0  0  0  0  0  0  0  0
    2.0061   -5.8460    1.6357 H   0  0  0  0  0  0  0  0  0  0  0  0
    1.7120   -7.4599    0.9825 H   0  0  0  0  0  0  0  0  0  0  0  0
    5.7934   -6.1415    0.9689 H   0  0  0  0  0  0  0  0  0  0  0  0
    4.6874   -5.7362   -0.3078 H   0  0  0  0  0  0  0  0  0  0  0  0
    4.2659   -4.5995    2.5027 H   0  0  0  0  0  0  0  0  0  0  0  0
    2.7161   -1.0692    0.0686 H   0  0  0  0  0  0  0  0  0  0  0  0
    4.2742   -0.5338   -0.5191 H   0  0  0  0  0  0  0  0  0  0  0  0
    2.5037   -2.6522   -1.7069 H   0  0  0  0  0  0  0  0  0  0  0  0
    3.2713   -1.3204   -2.5207 H   0  0  0  0  0  0  0  0  0  0  0  0
    6.3839   -2.0895   -0.2568 H   0  0  0  0  0  0  0  0  0  0  0  0
    6.6234   -3.7572    1.7199 H   0  0  0  0  0  0  0  0  0  0  0  0
    6.6101   -0.8685    2.8499 H   0  0  0  0  0  0  0  0  0  0  0  0
    5.4927    0.0519    1.8593 H   0  0  0  0  0  0  0  0  0  0  0  0
    6.8254   -0.8110    1.1362 H   0  0  0  0  0  0  0  0  0  0  0  0
    4.8181   -2.3219    3.9785 H   0  0  0  0  0  0  0  0  0  0  0  0
    3.3708   -2.6662    3.0461 H   0  0  0  0  0  0  0  0  0  0  0  0
    3.8598   -1.0193    3.2668 H   0  0  0  0  0  0  0  0  0  0  0  0
    3.4113   -8.9965    0.4931 H   0  0  0  0  0  0  0  0  0  0  0  0
    4.5064   -8.1142   -0.5531 H   0  0  0  0  0  0  0  0  0  0  0  0
    5.3783   -9.9995    1.2580 H   0  0  0  0  0  0  0  0  0  0  0  0
    6.3338   -8.5850    0.8497 H   0  0  0  0  0  0  0  0  0  0  0  0
    7.0436   -7.1392    2.7931 H   0  0  0  0  0  0  0  0  0  0  0  0
    7.2560   -8.7820    3.4363 H   0  0  0  0  0  0  0  0  0  0  0  0
    6.3817   -7.5587    4.3674 H   0  0  0  0  0  0  0  0  0  0  0  0
  1  2  1  0
  1 35  1  0
  1 36  1  0
  1 37  1  0
  2 33  1  0
  2  3  1  0
  2 38  1  6
  3  4  1  0
  3 39  1  0
  3 40  1  0
  4  5  1  0
  4 32  1  0
  4 41  1  1
  5 10  1  0
  5  6  1  1
  5  7  1  0
  6 42  1  0
  7  8  1  0
  7 43  1  0
  7 44  1  0
  8  9  2  0
  8 45  1  0
  9 30  1  0
  9 10  1  0
 10 11  1  0
 10 46  1  6
 11 30  1  0
 11 12  1  0
 11 47  1  1
 12 13  1  1
 12 14  1  0
 12 28  1  0
 13 48  1  0
 13 49  1  0
 13 50  1  0
 14 15  1  0
 14 51  1  0
 14 52  1  0
 15 24  1  0
 15 16  1  0
 15 53  1  1
 16 17  1  0
 17 23  1  0
 17 25  1  0
 17 18  1  6
 18 19  1  0
 18 54  1  0
 18 55  1  0
 19 20  1  0
 19 56  1  0
 19 57  1  0
 20 21  2  0
 20 22  1  0
 22 23  1  0
 23 24  1  0
 23 58  1  6
 24 25  1  0
 24 59  1  1
 25 26  1  0
 25 27  1  0
 26 60  1  0
 26 61  1  0
 26 62  1  0
 27 63  1  0
 27 64  1  0
 27 65  1  0
 28 29  1  0
 28 66  1  0
 28 67  1  0
 29 30  1  0
 29 68  1  0
 29 69  1  0
 30 31  1  1
 31 70  1  0
 31 71  1  0
 31 72  1  0
 32 33  1  0
 33 34  2  0
M  END
>  <i_m_ct_stereo_status>  (28) 
1

>  <s_m_source_file>  (28) 
/var/tmp/pbs.5076255.sched01/tmplremgrqo/0ygzoxw5b.sdf

>  <i_m_source_file_index>  (28) 
12

>  <i_lp_mmshare_version>  (28) 
48012

>  <i_f3d_flags>  (28) 
0

>  <s_epik_input>  (28) 
W0NIM11bQ0BASF0xW0NIMl1bQ0BIXShPQzE9TylbQ0BAXShbT0hdKShbQ0gyXVtDSF09MilbQ0BIXShDMltDQF0zNFtDSDNdKVtDQEBIXTNbQ0BdKFtDSDNdKShbQ0gyXVtDSDJdNClbQ0gyXVtDQEhdKE81KVtDQEhdKEM2KFtDSDNdKVtDSDNdKVtDQEhdKFtDQEBdNTY3KU9DKD1PKVtDSDJdW0NIMl03

>  <s_epik_cmdline>  (28) 
J2VwaWtfcHl0aG9uJywgJy1waHQnLCAnMi4wJywgJy1waCcsICc3LjAnLCAnLXRuJywgJzgnLCAnLW1hJywgJzIwMCcsICctaW1hZScsICc8aW5maWxlLm1hZT4nLCAnLW9tYWUnLCAnPG91dGZpbGUubWFlPic=

>  <r_lp_tautomer_probability>  (28) 
1

>  <r_epik_Ionization_Penalty>  (28) 
3.22564e-08

>  <r_epik_Ionization_Penalty_Charging>  (28) 
0

>  <r_epik_Ionization_Penalty_Neutral>  (28) 
3.22564e-08

>  <r_epik_State_Penalty>  (28) 
-0

>  <r_epik_Charging_Adjusted_Penalty>  (28) 
0

>  <i_epik_Tot_Q>  (28) 
0

>  <i_epik_Tot_abs_Q>  (28) 
0

>  <s_epik_Chemistry_Notes>  (28) 
This compound has an ester and may undergo hydrolysis at high or low pH.

>  <s_lp_Force_Field>  (28) 
OPLS3e

>  <r_lp_Energy>  (28) 
92.6283

>  <b_lp_Chiralities_Consistent>  (28) 
1

>  <s_lp_Variant>  (28) 
7:0-1

>  <s_i_glide_gridfile>  (28) 
pfpi4k_grid

>  <i_i_glide_lignum>  (28) 
12

>  <i_i_glide_rotatable_bonds>  (28) 
4

>  <r_i_docking_score>  (28) 
-3.02457

>  <r_i_glide_ligand_efficiency>  (28) 
-0.0889579

>  <r_i_glide_ligand_efficiency_sa>  (28) 
-0.288189

>  <r_i_glide_ligand_efficiency_ln>  (28) 
-0.668212

>  <r_i_glide_gscore>  (28) 
-3.02457

>  <r_i_glide_lipo>  (28) 
-0.666908

>  <r_i_glide_hbond>  (28) 
-0.16

>  <r_i_glide_metal>  (28) 
-0

>  <r_i_glide_rewards>  (28) 
-0.224344

>  <r_i_glide_evdw>  (28) 
-29.8268

>  <r_i_glide_ecoul>  (28) 
-4.6911

>  <r_i_glide_erotb>  (28) 
0.273721

>  <r_i_glide_esite>  (28) 
-0.0520339

>  <r_i_glide_emodel>  (28) 
-38.2433

>  <r_i_glide_energy>  (28) 
-34.5179

>  <r_i_glide_einternal>  (28) 
4.86835

>  <r_i_glide_intrahb_reward>  (28) 
-0

>  <i_i_glide_confnum>  (28) 
2

>  <i_i_glide_posenum>  (28) 
12

>  <r_i_glide_eff_state_penalty>  (28) 
0

>  <ligand_id>  (28) 
7

>  <original_smiles>  (28) 
CC1CC(C2(O)CC=C3C2C2C(C)(CC4OC56CCC(=O)OC5C4C6(C)C)CCC32C)OC1=O

>  <smiles>  (28) 
[H]OC1(C2([H])OC(=O)C([H])(C([H])([H])[H])C2([H])[H])C([H])([H])C([H])=C2C1([H])C1([H])C2(C([H])([H])[H])C([H])([H])C([H])([H])C1(C([H])([H])[H])C([H])([H])C1([H])OC23C([H])([H])C([H])([H])C(=O)OC2([H])C1([H])C3(C([H])([H])[H])C([H])([H])[H]

$$$$
7:0:2
     RDKit          3D

 72 78  0  0  1  0  0  0  0  0999 V2000
    3.6113   -2.0852   -4.0171 C   0  0  0  0  0  0  0  0  0  0  0  0
    3.8482   -2.7252   -2.6503 C   0  0  2  0  0  0  0  0  0  0  0  0
    2.5687   -3.1723   -1.9586 C   0  0  0  0  0  0  0  0  0  0  0  0
    2.8635   -2.9677   -0.4626 C   0  0  1  0  0  0  0  0  0  0  0  0
    3.4064   -4.2203    0.2704 C   0  0  1  0  0  0  0  0  0  0  0  0
    2.4335   -5.2454    0.0822 O   0  0  0  0  0  0  0  0  0  0  0  0
    4.7496   -4.8023   -0.2781 C   0  0  0  0  0  0  0  0  0  0  0  0
    5.3528   -5.4323    0.9326 C   0  0  0  0  0  0  0  0  0  0  0  0
    4.7748   -4.9030    2.0031 C   0  0  0  0  0  0  0  0  0  0  0  0
    3.6196   -3.9844    1.7885 C   0  0  2  0  0  0  0  0  0  0  0  0
    2.9799   -4.8252    2.9438 C   0  0  2  0  0  0  0  0  0  0  0  0
    2.5296   -4.1028    4.2319 C   0  0  1  0  0  0  0  0  0  0  0  0
    1.6805   -2.8376    3.9440 C   0  0  0  0  0  0  0  0  0  0  0  0
    1.7667   -5.0605    5.2034 C   0  0  0  0  0  0  0  0  0  0  0  0
    0.7247   -6.0352    4.5842 C   0  0  2  0  0  0  0  0  0  0  0  0
    0.0090   -6.8174    5.5562 O   0  0  0  0  0  0  0  0  0  0  0  0
    0.2196   -8.1983    5.1497 C   0  0  2  0  0  0  0  0  0  0  0  0
   -0.2229   -9.2624    6.1127 C   0  0  0  0  0  0  0  0  0  0  0  0
    0.5438   -9.1087    7.4337 C   0  0  0  0  0  0  0  0  0  0  0  0
    2.0056   -8.6030    7.3183 C   0  0  0  0  0  0  0  0  0  0  0  0
    2.7495   -8.6422    8.2848 O   0  0  0  0  0  0  0  0  0  0  0  0
    2.4083   -8.0259    6.1242 O   0  0  0  0  0  0  0  0  0  0  0  0
    1.7154   -8.3046    4.8995 C   0  0  2  0  0  0  0  0  0  0  0  0
    1.2298   -7.2759    3.8763 C   0  0  1  0  0  0  0  0  0  0  0  0
    0.0377   -8.2315    3.6197 C   0  0  0  0  0  0  0  0  0  0  0  0
    0.3168   -9.4967    2.7763 C   0  0  0  0  0  0  0  0  0  0  0  0
   -1.2649   -7.6459    3.0663 C   0  0  0  0  0  0  0  0  0  0  0  0
    3.8967   -3.7205    4.9055 C   0  0  0  0  0  0  0  0  0  0  0  0
    4.8699   -4.8700    4.5612 C   0  0  0  0  0  0  0  0  0  0  0  0
    4.3238   -5.5229    3.2830 C   0  0  2  0  0  0  0  0  0  0  0  0
    4.4516   -7.0508    3.2983 C   0  0  0  0  0  0  0  0  0  0  0  0
    3.8207   -1.9163   -0.4679 O   0  0  0  0  0  0  0  0  0  0  0  0
    4.4552   -1.7851   -1.6290 C   0  0  0  0  0  0  0  0  0  0  0  0
    5.4134   -1.0390   -1.8617 O   0  0  0  0  0  0  0  0  0  0  0  0
    4.5465   -1.7123   -4.4411 H   0  0  0  0  0  0  0  0  0  0  0  0
    2.9279   -1.2396   -3.9164 H   0  0  0  0  0  0  0  0  0  0  0  0
    3.1631   -2.8046   -4.7095 H   0  0  0  0  0  0  0  0  0  0  0  0
    4.5297   -3.5636   -2.7473 H   0  0  0  0  0  0  0  0  0  0  0  0
    1.7255   -2.5567   -2.2731 H   0  0  0  0  0  0  0  0  0  0  0  0
    2.2787   -4.1848   -2.2157 H   0  0  0  0  0  0  0  0  0  0  0  0
    1.9576   -2.6499    0.0488 H   0  0  0  0  0  0  0  0  0  0  0  0
    2.4593   -5.5028   -0.8352 H   0  0  0  0  0  0  0  0  0  0  0  0
    4.6120   -5.5231   -1.0879 H   0  0  0  0  0  0  0  0  0  0  0  0
    5.4753   -4.0461   -0.5749 H   0  0  0  0  0  0  0  0  0  0  0  0
    6.0154   -6.2939    0.8615 H   0  0  0  0  0  0  0  0  0  0  0  0
    3.8497   -2.9400    2.0611 H   0  0  0  0  0  0  0  0  0  0  0  0
    2.1976   -5.4421    2.5100 H   0  0  0  0  0  0  0  0  0  0  0  0
    1.2762   -2.4090    4.8620 H   0  0  0  0  0  0  0  0  0  0  0  0
    0.8481   -3.0922    3.2868 H   0  0  0  0  0  0  0  0  0  0  0  0
    2.2681   -2.0591    3.4539 H   0  0  0  0  0  0  0  0  0  0  0  0
    2.5086   -5.6105    5.7802 H   0  0  0  0  0  0  0  0  0  0  0  0
    1.2413   -4.4752    5.9436 H   0  0  0  0  0  0  0  0  0  0  0  0
    0.0455   -5.4532    3.9525 H   0  0  0  0  0  0  0  0  0  0  0  0
   -1.3031   -9.2598    6.2694 H   0  0  0  0  0  0  0  0  0  0  0  0
    0.0334  -10.2463    5.7009 H   0  0  0  0  0  0  0  0  0  0  0  0
    0.0550   -8.3437    8.0188 H   0  0  0  0  0  0  0  0  0  0  0  0
    0.5659  -10.0308    7.9979 H   0  0  0  0  0  0  0  0  0  0  0  0
    2.0634   -9.2473    4.4891 H   0  0  0  0  0  0  0  0  0  0  0  0
    1.8191   -7.1422    2.9603 H   0  0  0  0  0  0  0  0  0  0  0  0
    0.3025   -9.2346    1.7185 H   0  0  0  0  0  0  0  0  0  0  0  0
   -0.4299  -10.2623    2.9505 H   0  0  0  0  0  0  0  0  0  0  0  0
    1.2932   -9.9733    2.9061 H   0  0  0  0  0  0  0  0  0  0  0  0
   -1.0955   -7.1984    2.0885 H   0  0  0  0  0  0  0  0  0  0  0  0
   -1.6580   -6.8805    3.7203 H   0  0  0  0  0  0  0  0  0  0  0  0
   -2.0309   -8.4078    2.9782 H   0  0  0  0  0  0  0  0  0  0  0  0
    4.2957   -2.8129    4.4463 H   0  0  0  0  0  0  0  0  0  0  0  0
    3.8191   -3.5448    5.9821 H   0  0  0  0  0  0  0  0  0  0  0  0
    5.9026   -4.5487    4.4438 H   0  0  0  0  0  0  0  0  0  0  0  0
    4.8622   -5.5959    5.3853 H   0  0  0  0  0  0  0  0  0  0  0  0
    3.9402   -7.4492    4.1822 H   0  0  0  0  0  0  0  0  0  0  0  0
    5.4869   -7.3902    3.3636 H   0  0  0  0  0  0  0  0  0  0  0  0
    4.0002   -7.4838    2.4007 H   0  0  0  0  0  0  0  0  0  0  0  0
  1  2  1  0
  1 35  1  0
  1 36  1  0
  1 37  1  0
  2 33  1  0
  2  3  1  0
  2 38  1  6
  3  4  1  0
  3 39  1  0
  3 40  1  0
  4  5  1  0
  4 32  1  0
  4 41  1  1
  5 10  1  0
  5  6  1  1
  5  7  1  0
  6 42  1  0
  7  8  1  0
  7 43  1  0
  7 44  1  0
  8  9  2  0
  8 45  1  0
  9 30  1  0
  9 10  1  0
 10 11  1  0
 10 46  1  1
 11 30  1  0
 11 12  1  0
 11 47  1  6
 12 13  1  6
 12 14  1  0
 12 28  1  0
 13 48  1  0
 13 49  1  0
 13 50  1  0
 14 15  1  0
 14 51  1  0
 14 52  1  0
 15 24  1  0
 15 16  1  0
 15 53  1  6
 16 17  1  0
 17 23  1  0
 17 25  1  0
 17 18  1  1
 18 19  1  0
 18 54  1  0
 18 55  1  0
 19 20  1  0
 19 56  1  0
 19 57  1  0
 20 21  2  0
 20 22  1  0
 22 23  1  0
 23 24  1  0
 23 58  1  6
 24 25  1  0
 24 59  1  6
 25 26  1  0
 25 27  1  0
 26 60  1  0
 26 61  1  0
 26 62  1  0
 27 63  1  0
 27 64  1  0
 27 65  1  0
 28 29  1  0
 28 66  1  0
 28 67  1  0
 29 30  1  0
 29 68  1  0
 29 69  1  0
 30 31  1  6
 31 70  1  0
 31 71  1  0
 31 72  1  0
 32 33  1  0
 33 34  2  0
M  END
>  <i_m_ct_stereo_status>  (29) 
1

>  <s_m_source_file>  (29) 
/var/tmp/pbs.5076255.sched01/tmplremgrqo/0ygzoxw5b.sdf

>  <i_m_source_file_index>  (29) 
12

>  <i_lp_mmshare_version>  (29) 
48012

>  <i_f3d_flags>  (29) 
0

>  <s_epik_input>  (29) 
W0NIM11bQ0BASF0xW0NIMl1bQ0BIXShPQzE9TylbQ0BAXShbT0hdKShbQ0gyXVtDSF09MilbQ0BIXShDMltDQF0zNFtDSDNdKVtDQEBIXTNbQ0BdKFtDSDNdKShbQ0gyXVtDSDJdNClbQ0gyXVtDQEhdKE81KVtDQEhdKEM2KFtDSDNdKVtDSDNdKVtDQEhdKFtDQEBdNTY3KU9DKD1PKVtDSDJdW0NIMl03

>  <s_epik_cmdline>  (29) 
J2VwaWtfcHl0aG9uJywgJy1waHQnLCAnMi4wJywgJy1waCcsICc3LjAnLCAnLXRuJywgJzgnLCAnLW1hJywgJzIwMCcsICctaW1hZScsICc8aW5maWxlLm1hZT4nLCAnLW9tYWUnLCAnPG91dGZpbGUubWFlPic=

>  <r_lp_tautomer_probability>  (29) 
1

>  <r_epik_Ionization_Penalty>  (29) 
3.22564e-08

>  <r_epik_Ionization_Penalty_Charging>  (29) 
0

>  <r_epik_Ionization_Penalty_Neutral>  (29) 
3.22564e-08

>  <r_epik_State_Penalty>  (29) 
-0

>  <r_epik_Charging_Adjusted_Penalty>  (29) 
0

>  <i_epik_Tot_Q>  (29) 
0

>  <i_epik_Tot_abs_Q>  (29) 
0

>  <s_epik_Chemistry_Notes>  (29) 
This compound has an ester and may undergo hydrolysis at high or low pH.

>  <s_lp_Force_Field>  (29) 
OPLS3e

>  <r_lp_Energy>  (29) 
92.6283

>  <b_lp_Chiralities_Consistent>  (29) 
1

>  <s_lp_Variant>  (29) 
7:0-1

>  <s_i_glide_gridfile>  (29) 
pfpi4k_grid

>  <i_i_glide_lignum>  (29) 
12

>  <i_i_glide_rotatable_bonds>  (29) 
4

>  <r_i_docking_score>  (29) 
-2.96207

>  <r_i_glide_ligand_efficiency>  (29) 
-0.0871198

>  <r_i_glide_ligand_efficiency_sa>  (29) 
-0.282234

>  <r_i_glide_ligand_efficiency_ln>  (29) 
-0.654405

>  <r_i_glide_gscore>  (29) 
-2.96207

>  <r_i_glide_lipo>  (29) 
-0.206032

>  <r_i_glide_hbond>  (29) 
-0.328148

>  <r_i_glide_metal>  (29) 
-0

>  <r_i_glide_rewards>  (29) 
-0.20047

>  <r_i_glide_evdw>  (29) 
-27.3623

>  <r_i_glide_ecoul>  (29) 
-7.08269

>  <r_i_glide_erotb>  (29) 
0.273721

>  <r_i_glide_esite>  (29) 
-0.0706252

>  <r_i_glide_emodel>  (29) 
-37.5371

>  <r_i_glide_energy>  (29) 
-34.445

>  <r_i_glide_einternal>  (29) 
3.14089

>  <r_i_glide_intrahb_reward>  (29) 
-0

>  <i_i_glide_confnum>  (29) 
1

>  <i_i_glide_posenum>  (29) 
39

>  <r_i_glide_eff_state_penalty>  (29) 
0

>  <ligand_id>  (29) 
7

>  <original_smiles>  (29) 
CC1CC(C2(O)CC=C3C2C2C(C)(CC4OC56CCC(=O)OC5C4C6(C)C)CCC32C)OC1=O

>  <smiles>  (29) 
[H]OC1(C2([H])OC(=O)C([H])(C([H])([H])[H])C2([H])[H])C([H])([H])C([H])=C2C1([H])C1([H])C2(C([H])([H])[H])C([H])([H])C([H])([H])C1(C([H])([H])[H])C([H])([H])C1([H])OC23C([H])([H])C([H])([H])C(=O)OC2([H])C1([H])C3(C([H])([H])[H])C([H])([H])[H]

$$$$
8:0:0
     RDKit          3D

 31 34  0  0  1  0  0  0  0  0999 V2000
   -7.6044   -4.5154   -5.7120 C   0  0  0  0  0  0  0  0  0  0  0  0
   -6.5603   -4.9597   -4.9446 C   0  0  0  0  0  0  0  0  0  0  0  0
   -6.2465   -6.6497   -5.2205 S   0  0  0  0  0  0  0  0  0  0  0  0
   -7.5089   -6.7387   -6.4268 C   0  0  0  0  0  0  0  0  0  0  0  0
   -7.7763   -8.0418   -7.1140 C   0  0  2  0  0  0  0  0  0  0  0  0
   -6.6038   -8.5144   -8.0001 C   0  0  0  0  0  0  0  0  0  0  0  0
   -6.9034   -9.8955   -8.6380 C   0  0  1  0  0  0  0  0  0  0  0  0
   -6.6656  -11.0385   -7.6856 C   0  0  0  0  0  0  0  0  0  0  0  0
   -7.5406  -12.0142   -7.2733 C   0  0  0  0  0  0  0  0  0  0  0  0
   -6.9599  -12.9467   -6.3681 C   0  0  0  0  0  0  0  0  0  0  0  0
   -5.6472  -12.6782   -6.0951 C   0  0  0  0  0  0  0  0  0  0  0  0
   -5.0881  -11.2814   -6.9688 S   0  0  0  0  0  0  0  0  0  0  0  0
   -8.2582   -9.8712   -9.1938 N   0  0  0  0  0  0  0  0  0  0  0  0
   -8.7005  -10.7279  -10.1486 N   0  0  0  0  0  0  0  0  0  0  0  0
   -9.9723  -10.3387  -10.3007 C   0  0  0  0  0  0  0  0  0  0  0  0
  -10.3805   -9.2832   -9.5251 N   0  0  0  0  0  0  0  0  0  0  0  0
   -9.2573   -9.0481   -8.8721 C   0  0  0  0  0  0  0  0  0  0  0  0
   -8.9934   -8.0816   -7.9153 N   0  0  0  0  0  0  0  0  0  0  0  0
   -8.1454   -5.5274   -6.5595 C   0  0  0  0  0  0  0  0  0  0  0  0
   -7.9872   -3.5058   -5.6960 H   0  0  0  0  0  0  0  0  0  0  0  0
   -5.9643   -4.4059   -4.2335 H   0  0  0  0  0  0  0  0  0  0  0  0
   -7.9208   -8.7897   -6.3332 H   0  0  0  0  0  0  0  0  0  0  0  0
   -6.4879   -7.7872   -8.8044 H   0  0  0  0  0  0  0  0  0  0  0  0
   -5.6557   -8.5135   -7.4582 H   0  0  0  0  0  0  0  0  0  0  0  0
   -6.2248  -10.0255   -9.4762 H   0  0  0  0  0  0  0  0  0  0  0  0
   -8.5685  -12.0940   -7.5927 H   0  0  0  0  0  0  0  0  0  0  0  0
   -7.5241  -13.7632   -5.9477 H   0  0  0  0  0  0  0  0  0  0  0  0
   -4.9793  -13.2057   -5.4297 H   0  0  0  0  0  0  0  0  0  0  0  0
  -10.6281  -10.8392  -10.9936 H   0  0  0  0  0  0  0  0  0  0  0  0
   -9.7952   -7.5671   -7.5759 H   0  0  0  0  0  0  0  0  0  0  0  0
   -8.9733   -5.3288   -7.2214 H   0  0  0  0  0  0  0  0  0  0  0  0
  1 19  1  0
  1  2  2  0
  1 20  1  0
  2  3  1  0
  2 21  1  0
  3  4  1  0
  4  5  1  0
  4 19  2  0
  5 18  1  0
  5  6  1  0
  5 22  1  1
  6  7  1  0
  6 23  1  0
  6 24  1  0
  7  8  1  0
  7 13  1  0
  7 25  1  6
  8 12  1  0
  8  9  2  0
  9 10  1  0
  9 26  1  0
 10 11  2  0
 10 27  1  0
 11 12  1  0
 11 28  1  0
 13 17  1  0
 13 14  1  0
 14 15  2  0
 15 16  1  0
 15 29  1  0
 16 17  2  0
 17 18  1  0
 18 30  1  0
 19 31  1  0
M  END
>  <i_m_ct_stereo_status>  (30) 
1

>  <s_m_source_file>  (30) 
/var/tmp/pbs.5076255.sched01/tmplremgrqo/0ygzoxw5b.sdf

>  <i_m_source_file_index>  (30) 
13

>  <i_lp_mmshare_version>  (30) 
48012

>  <i_f3d_flags>  (30) 
0

>  <s_epik_input>  (30) 
bjFbY0hdbmMobjEyKVtOSF1bQ0BIXShjM3NbY0hdW2NIXVtjSF0zKVtDSDJdW0NASF0yYzRbY0hdW2NIXVtjSF1zNA==

>  <s_epik_cmdline>  (30) 
J2VwaWtfcHl0aG9uJywgJy1waHQnLCAnMi4wJywgJy1waCcsICc3LjAnLCAnLXRuJywgJzgnLCAnLW1hJywgJzIwMCcsICctaW1hZScsICc8aW5maWxlLm1hZT4nLCAnLW9tYWUnLCAnPG91dGZpbGUubWFlPic=

>  <r_lp_tautomer_probability>  (30) 
1

>  <r_epik_Ionization_Penalty>  (30) 
0.00167485

>  <r_epik_Ionization_Penalty_Charging>  (30) 
0

>  <r_epik_Ionization_Penalty_Neutral>  (30) 
0.00167485

>  <r_epik_State_Penalty>  (30) 
-0

>  <r_epik_Charging_Adjusted_Penalty>  (30) 
0

>  <i_epik_Tot_Q>  (30) 
0

>  <i_epik_Tot_abs_Q>  (30) 
0

>  <s_lp_Force_Field>  (30) 
OPLS3e

>  <r_lp_Energy>  (30) 
23.4194

>  <b_lp_Chiralities_Consistent>  (30) 
1

>  <s_lp_Variant>  (30) 
8:0-1

>  <s_i_glide_gridfile>  (30) 
pfpi4k_grid

>  <i_i_glide_lignum>  (30) 
13

>  <i_i_glide_rotatable_bonds>  (30) 
2

>  <r_i_docking_score>  (30) 
-5.45528

>  <r_i_glide_ligand_efficiency>  (30) 
-0.28712

>  <r_i_glide_ligand_efficiency_sa>  (30) 
-0.766151

>  <r_i_glide_ligand_efficiency_ln>  (30) 
-1.38303

>  <r_i_glide_gscore>  (30) 
-5.45528

>  <r_i_glide_lipo>  (30) 
-2.264

>  <r_i_glide_hbond>  (30) 
0

>  <r_i_glide_metal>  (30) 
-0

>  <r_i_glide_rewards>  (30) 
-2.09117

>  <r_i_glide_evdw>  (30) 
-29.5215

>  <r_i_glide_ecoul>  (30) 
-0.409959

>  <r_i_glide_erotb>  (30) 
0.437461

>  <r_i_glide_esite>  (30) 
0

>  <r_i_glide_emodel>  (30) 
-39.4514

>  <r_i_glide_energy>  (30) 
-29.9315

>  <r_i_glide_einternal>  (30) 
0.449119

>  <r_i_glide_intrahb_reward>  (30) 
-0

>  <i_i_glide_confnum>  (30) 
4

>  <i_i_glide_posenum>  (30) 
37

>  <r_i_glide_eff_state_penalty>  (30) 
0

>  <ligand_id>  (30) 
8

>  <original_smiles>  (30) 
c1csc(C2CC(c3cccs3)n3ncnc3N2)c1

>  <smiles>  (30) 
[H]c1nc2n(n1)C([H])(c1sc([H])c([H])c1[H])C([H])([H])C([H])(c1sc([H])c([H])c1[H])N2[H]

$$$$
8:0:1
     RDKit          3D

 31 34  0  0  1  0  0  0  0  0999 V2000
   -6.7003   -5.1378   -4.3475 C   0  0  0  0  0  0  0  0  0  0  0  0
   -7.4948   -4.3307   -5.1053 C   0  0  0  0  0  0  0  0  0  0  0  0
   -8.1715   -5.1893   -6.4631 S   0  0  0  0  0  0  0  0  0  0  0  0
   -7.3835   -6.6698   -5.9659 C   0  0  0  0  0  0  0  0  0  0  0  0
   -7.5278   -7.9664   -6.6991 C   0  0  2  0  0  0  0  0  0  0  0  0
   -6.3083   -8.3481   -7.5423 C   0  0  0  0  0  0  0  0  0  0  0  0
   -6.5471   -9.6930   -8.2745 C   0  0  1  0  0  0  0  0  0  0  0  0
   -6.3151  -10.8781   -7.3973 C   0  0  0  0  0  0  0  0  0  0  0  0
   -7.2373  -11.6805   -6.7816 C   0  0  0  0  0  0  0  0  0  0  0  0
   -6.6407  -12.7393   -6.0310 C   0  0  0  0  0  0  0  0  0  0  0  0
   -5.2749  -12.7145   -6.0591 C   0  0  0  0  0  0  0  0  0  0  0  0
   -4.6862  -11.3991   -7.0395 S   0  0  0  0  0  0  0  0  0  0  0  0
   -7.8720   -9.6977   -8.8990 N   0  0  0  0  0  0  0  0  0  0  0  0
   -8.2395  -10.5172   -9.9177 N   0  0  0  0  0  0  0  0  0  0  0  0
   -9.5130  -10.1546  -10.1191 C   0  0  0  0  0  0  0  0  0  0  0  0
  -10.0017   -9.1494   -9.3080 N   0  0  0  0  0  0  0  0  0  0  0  0
   -8.9088   -8.9323   -8.5909 C   0  0  0  0  0  0  0  0  0  0  0  0
   -8.7045   -8.0305   -7.5553 N   0  0  0  0  0  0  0  0  0  0  0  0
   -6.6276   -6.4752   -4.8440 C   0  0  0  0  0  0  0  0  0  0  0  0
   -6.1924   -4.8236   -3.4459 H   0  0  0  0  0  0  0  0  0  0  0  0
   -7.7364   -3.2885   -4.9464 H   0  0  0  0  0  0  0  0  0  0  0  0
   -7.6764   -8.7498   -5.9573 H   0  0  0  0  0  0  0  0  0  0  0  0
   -6.1977   -7.5729   -8.2989 H   0  0  0  0  0  0  0  0  0  0  0  0
   -5.3835   -8.3504   -6.9630 H   0  0  0  0  0  0  0  0  0  0  0  0
   -5.8111   -9.7386   -9.0576 H   0  0  0  0  0  0  0  0  0  0  0  0
   -8.3123  -11.5583   -6.8421 H   0  0  0  0  0  0  0  0  0  0  0  0
   -7.2333  -13.4419   -5.4641 H   0  0  0  0  0  0  0  0  0  0  0  0
   -4.5823  -13.3618   -5.5286 H   0  0  0  0  0  0  0  0  0  0  0  0
  -10.1265  -10.6383  -10.8735 H   0  0  0  0  0  0  0  0  0  0  0  0
   -9.5241   -7.5242   -7.2747 H   0  0  0  0  0  0  0  0  0  0  0  0
   -6.0603   -7.2432   -4.3374 H   0  0  0  0  0  0  0  0  0  0  0  0
  1 19  1  0
  1  2  2  0
  1 20  1  0
  2  3  1  0
  2 21  1  0
  3  4  1  0
  4  5  1  0
  4 19  2  0
  5 18  1  0
  5  6  1  0
  5 22  1  1
  6  7  1  0
  6 23  1  0
  6 24  1  0
  7  8  1  0
  7 13  1  0
  7 25  1  6
  8 12  1  0
  8  9  2  0
  9 10  1  0
  9 26  1  0
 10 11  2  0
 10 27  1  0
 11 12  1  0
 11 28  1  0
 13 17  1  0
 13 14  1  0
 14 15  2  0
 15 16  1  0
 15 29  1  0
 16 17  2  0
 17 18  1  0
 18 30  1  0
 19 31  1  0
M  END
>  <i_m_ct_stereo_status>  (31) 
1

>  <s_m_source_file>  (31) 
/var/tmp/pbs.5076255.sched01/tmplremgrqo/0ygzoxw5b.sdf

>  <i_m_source_file_index>  (31) 
13

>  <i_lp_mmshare_version>  (31) 
48012

>  <i_f3d_flags>  (31) 
0

>  <s_epik_input>  (31) 
bjFbY0hdbmMobjEyKVtOSF1bQ0BIXShjM3NbY0hdW2NIXVtjSF0zKVtDSDJdW0NASF0yYzRbY0hdW2NIXVtjSF1zNA==

>  <s_epik_cmdline>  (31) 
J2VwaWtfcHl0aG9uJywgJy1waHQnLCAnMi4wJywgJy1waCcsICc3LjAnLCAnLXRuJywgJzgnLCAnLW1hJywgJzIwMCcsICctaW1hZScsICc8aW5maWxlLm1hZT4nLCAnLW9tYWUnLCAnPG91dGZpbGUubWFlPic=

>  <r_lp_tautomer_probability>  (31) 
1

>  <r_epik_Ionization_Penalty>  (31) 
0.00167485

>  <r_epik_Ionization_Penalty_Charging>  (31) 
0

>  <r_epik_Ionization_Penalty_Neutral>  (31) 
0.00167485

>  <r_epik_State_Penalty>  (31) 
-0

>  <r_epik_Charging_Adjusted_Penalty>  (31) 
0

>  <i_epik_Tot_Q>  (31) 
0

>  <i_epik_Tot_abs_Q>  (31) 
0

>  <s_lp_Force_Field>  (31) 
OPLS3e

>  <r_lp_Energy>  (31) 
23.4194

>  <b_lp_Chiralities_Consistent>  (31) 
1

>  <s_lp_Variant>  (31) 
8:0-1

>  <s_i_glide_gridfile>  (31) 
pfpi4k_grid

>  <i_i_glide_lignum>  (31) 
13

>  <i_i_glide_rotatable_bonds>  (31) 
2

>  <r_i_docking_score>  (31) 
-5.42989

>  <r_i_glide_ligand_efficiency>  (31) 
-0.285784

>  <r_i_glide_ligand_efficiency_sa>  (31) 
-0.762586

>  <r_i_glide_ligand_efficiency_ln>  (31) 
-1.37659

>  <r_i_glide_gscore>  (31) 
-5.42989

>  <r_i_glide_lipo>  (31) 
-2.27443

>  <r_i_glide_hbond>  (31) 
0

>  <r_i_glide_metal>  (31) 
-0

>  <r_i_glide_rewards>  (31) 
-2.16749

>  <r_i_glide_evdw>  (31) 
-27.1963

>  <r_i_glide_ecoul>  (31) 
-0.437449

>  <r_i_glide_erotb>  (31) 
0.437461

>  <r_i_glide_esite>  (31) 
0

>  <r_i_glide_emodel>  (31) 
-36.5882

>  <r_i_glide_energy>  (31) 
-27.6337

>  <r_i_glide_einternal>  (31) 
1.55076

>  <r_i_glide_intrahb_reward>  (31) 
-0

>  <i_i_glide_confnum>  (31) 
4

>  <i_i_glide_posenum>  (31) 
1

>  <r_i_glide_eff_state_penalty>  (31) 
0

>  <ligand_id>  (31) 
8

>  <original_smiles>  (31) 
c1csc(C2CC(c3cccs3)n3ncnc3N2)c1

>  <smiles>  (31) 
[H]c1nc2n(n1)C([H])(c1sc([H])c([H])c1[H])C([H])([H])C([H])(c1sc([H])c([H])c1[H])N2[H]

$$$$
8:0:2
     RDKit          3D

 31 34  0  0  1  0  0  0  0  0999 V2000
  -10.5499   -3.4665   -6.7178 C   0  0  0  0  0  0  0  0  0  0  0  0
   -9.3793   -3.2223   -6.0639 C   0  0  0  0  0  0  0  0  0  0  0  0
   -8.2782   -4.5580   -6.1888 S   0  0  0  0  0  0  0  0  0  0  0  0
   -9.3900   -5.4342   -7.2129 C   0  0  0  0  0  0  0  0  0  0  0  0
   -9.0270   -6.7961   -7.7171 C   0  0  2  0  0  0  0  0  0  0  0  0
   -7.7884   -6.7858   -8.6026 C   0  0  0  0  0  0  0  0  0  0  0  0
   -7.3875   -8.2265   -9.0385 C   0  0  1  0  0  0  0  0  0  0  0  0
   -6.6680   -8.9971   -7.9468 C   0  0  0  0  0  0  0  0  0  0  0  0
   -6.8273  -10.3104   -7.5693 C   0  0  0  0  0  0  0  0  0  0  0  0
   -5.9586  -10.7066   -6.5129 C   0  0  0  0  0  0  0  0  0  0  0  0
   -5.1308   -9.7025   -6.0927 C   0  0  0  0  0  0  0  0  0  0  0  0
   -5.3925   -8.2525   -7.0113 S   0  0  0  0  0  0  0  0  0  0  0  0
   -8.5976   -8.9060   -9.5191 N   0  0  0  0  0  0  0  0  0  0  0  0
   -8.5932   -9.9881  -10.3316 N   0  0  0  0  0  0  0  0  0  0  0  0
   -9.8964  -10.2435  -10.4662 C   0  0  0  0  0  0  0  0  0  0  0  0
  -10.7534   -9.4032   -9.8060 N   0  0  0  0  0  0  0  0  0  0  0  0
   -9.8675   -8.6053   -9.2368 C   0  0  0  0  0  0  0  0  0  0  0  0
  -10.0813   -7.5090   -8.4219 N   0  0  0  0  0  0  0  0  0  0  0  0
  -10.5525   -4.7275   -7.3822 C   0  0  0  0  0  0  0  0  0  0  0  0
  -11.3864   -2.7802   -6.7333 H   0  0  0  0  0  0  0  0  0  0  0  0
   -9.1094   -2.3333   -5.5154 H   0  0  0  0  0  0  0  0  0  0  0  0
   -8.7806   -7.4030   -6.8549 H   0  0  0  0  0  0  0  0  0  0  0  0
   -7.9973   -6.1898   -9.4929 H   0  0  0  0  0  0  0  0  0  0  0  0
   -6.9918   -6.2813   -8.0730 H   0  0  0  0  0  0  0  0  0  0  0  0
   -6.7157   -8.1332   -9.8865 H   0  0  0  0  0  0  0  0  0  0  0  0
   -7.5316  -11.0000   -8.0158 H   0  0  0  0  0  0  0  0  0  0  0  0
   -5.9712  -11.6992   -6.0948 H   0  0  0  0  0  0  0  0  0  0  0  0
   -4.3856   -9.7291   -5.3049 H   0  0  0  0  0  0  0  0  0  0  0  0
  -10.2320  -11.0785  -11.0603 H   0  0  0  0  0  0  0  0  0  0  0  0
  -11.0337   -7.3576   -8.1249 H   0  0  0  0  0  0  0  0  0  0  0  0
  -11.4023   -5.0848   -7.9403 H   0  0  0  0  0  0  0  0  0  0  0  0
  1 19  1  0
  1  2  2  0
  1 20  1  0
  2  3  1  0
  2 21  1  0
  3  4  1  0
  4  5  1  0
  4 19  2  0
  5 18  1  0
  5  6  1  0
  5 22  1  1
  6  7  1  0
  6 23  1  0
  6 24  1  0
  7  8  1  0
  7 13  1  0
  7 25  1  6
  8 12  1  0
  8  9  2  0
  9 10  1  0
  9 26  1  0
 10 11  2  0
 10 27  1  0
 11 12  1  0
 11 28  1  0
 13 17  1  0
 13 14  1  0
 14 15  2  0
 15 16  1  0
 15 29  1  0
 16 17  2  0
 17 18  1  0
 18 30  1  0
 19 31  1  0
M  END
>  <i_m_ct_stereo_status>  (32) 
1

>  <s_m_source_file>  (32) 
/var/tmp/pbs.5076255.sched01/tmplremgrqo/0ygzoxw5b.sdf

>  <i_m_source_file_index>  (32) 
13

>  <i_lp_mmshare_version>  (32) 
48012

>  <i_f3d_flags>  (32) 
0

>  <s_epik_input>  (32) 
bjFbY0hdbmMobjEyKVtOSF1bQ0BIXShjM3NbY0hdW2NIXVtjSF0zKVtDSDJdW0NASF0yYzRbY0hdW2NIXVtjSF1zNA==

>  <s_epik_cmdline>  (32) 
J2VwaWtfcHl0aG9uJywgJy1waHQnLCAnMi4wJywgJy1waCcsICc3LjAnLCAnLXRuJywgJzgnLCAnLW1hJywgJzIwMCcsICctaW1hZScsICc8aW5maWxlLm1hZT4nLCAnLW9tYWUnLCAnPG91dGZpbGUubWFlPic=

>  <r_lp_tautomer_probability>  (32) 
1

>  <r_epik_Ionization_Penalty>  (32) 
0.00167485

>  <r_epik_Ionization_Penalty_Charging>  (32) 
0

>  <r_epik_Ionization_Penalty_Neutral>  (32) 
0.00167485

>  <r_epik_State_Penalty>  (32) 
-0

>  <r_epik_Charging_Adjusted_Penalty>  (32) 
0

>  <i_epik_Tot_Q>  (32) 
0

>  <i_epik_Tot_abs_Q>  (32) 
0

>  <s_lp_Force_Field>  (32) 
OPLS3e

>  <r_lp_Energy>  (32) 
23.4194

>  <b_lp_Chiralities_Consistent>  (32) 
1

>  <s_lp_Variant>  (32) 
8:0-1

>  <s_i_glide_gridfile>  (32) 
pfpi4k_grid

>  <i_i_glide_lignum>  (32) 
13

>  <i_i_glide_rotatable_bonds>  (32) 
2

>  <r_i_docking_score>  (32) 
-5.16214

>  <r_i_glide_ligand_efficiency>  (32) 
-0.271691

>  <r_i_glide_ligand_efficiency_sa>  (32) 
-0.724982

>  <r_i_glide_ligand_efficiency_ln>  (32) 
-1.30871

>  <r_i_glide_gscore>  (32) 
-5.16214

>  <r_i_glide_lipo>  (32) 
-1.94577

>  <r_i_glide_hbond>  (32) 
0

>  <r_i_glide_metal>  (32) 
-0

>  <r_i_glide_rewards>  (32) 
-2.05542

>  <r_i_glide_evdw>  (32) 
-27.393

>  <r_i_glide_ecoul>  (32) 
-1.52503

>  <r_i_glide_erotb>  (32) 
0.437461

>  <r_i_glide_esite>  (32) 
0

>  <r_i_glide_emodel>  (32) 
-37.3875

>  <r_i_glide_energy>  (32) 
-28.9181

>  <r_i_glide_einternal>  (32) 
1.2489

>  <r_i_glide_intrahb_reward>  (32) 
-0

>  <i_i_glide_confnum>  (32) 
6

>  <i_i_glide_posenum>  (32) 
38

>  <r_i_glide_eff_state_penalty>  (32) 
0

>  <ligand_id>  (32) 
8

>  <original_smiles>  (32) 
c1csc(C2CC(c3cccs3)n3ncnc3N2)c1

>  <smiles>  (32) 
[H]c1nc2n(n1)C([H])(c1sc([H])c([H])c1[H])C([H])([H])C([H])(c1sc([H])c([H])c1[H])N2[H]

$$$$
9:0:0
     RDKit          3D

 82 87  0  0  1  0  0  0  0  0999 V2000
    1.7613   -7.4678    9.3030 C   0  0  0  0  0  0  0  0  0  0  0  0
    0.9385   -7.8984    8.0804 C   0  0  2  0  0  0  0  0  0  0  0  0
    0.8514   -9.4388    7.8872 C   0  0  0  0  0  0  0  0  0  0  0  0
    0.9679   -9.7265    6.3647 C   0  0  0  0  0  0  0  0  0  0  0  0
    0.8069   -8.3360    5.7633 C   0  0  1  0  0  0  0  0  0  0  0  0
    1.5404   -7.4633    6.7475 C   0  0  1  0  0  0  0  0  0  0  0  0
    1.3838   -6.0711    6.1430 C   0  0  0  0  0  0  0  0  0  0  0  0
    1.2784   -6.3310    4.6076 C   0  0  1  0  0  0  0  0  0  0  0  0
    2.2113   -5.4759    3.6868 C   0  0  2  0  0  0  0  0  0  0  0  0
    1.4907   -5.2795    2.3444 C   0  0  0  0  0  0  0  0  0  0  0  0
    2.3461   -4.6943    1.2496 C   0  0  0  0  0  0  0  0  0  0  0  0
    3.6749   -4.5739    1.2816 C   0  0  0  0  0  0  0  0  0  0  0  0
    4.4342   -3.7232    0.2482 C   0  0  1  0  0  0  0  0  0  0  0  0
    3.7025   -3.3999   -1.0786 C   0  0  0  0  0  0  0  0  0  0  0  0
    4.6204   -2.7244   -2.1266 C   0  0  0  0  0  0  0  0  0  0  0  0
    5.7624   -3.6381   -2.5767 C   0  0  0  0  0  0  0  0  0  0  0  0
    3.7912   -2.4031   -3.3916 C   0  0  0  0  0  0  0  0  0  0  0  0
    5.2549   -1.4636   -1.5084 C   0  0  1  0  0  0  0  0  0  0  0  0
    4.2927   -0.4649   -1.4512 O   0  0  0  0  0  0  0  0  0  0  0  0
    5.8583   -1.6651   -0.0981 C   0  0  0  0  0  0  0  0  0  0  0  0
    4.9553   -2.4234    0.9129 C   0  0  1  0  0  0  0  0  0  0  0  0
    3.8023   -1.5111    1.4195 C   0  0  0  0  0  0  0  0  0  0  0  0
    5.8082   -2.8366    2.1331 C   0  0  0  0  0  0  0  0  0  0  0  0
    5.1078   -3.8226    3.1133 C   0  0  0  0  0  0  0  0  0  0  0  0
    4.5143   -5.1106    2.4536 C   0  0  2  0  0  0  0  0  0  0  0  0
    5.6963   -5.9664    1.9063 C   0  0  0  0  0  0  0  0  0  0  0  0
    3.6675   -6.0110    3.4938 C   0  0  1  0  0  0  0  0  0  0  0  0
    4.4190   -5.9984    4.8572 C   0  0  0  0  0  0  0  0  0  0  0  0
    3.4986   -7.4989    3.0330 C   0  0  0  0  0  0  0  0  0  0  0  0
    2.7116   -8.4031    4.0124 C   0  0  0  0  0  0  0  0  0  0  0  0
    1.2949   -7.8858    4.3737 C   0  0  1  0  0  0  0  0  0  0  0  0
    0.2784   -8.3786    3.3158 C   0  0  0  0  0  0  0  0  0  0  0  0
    2.7812   -7.8501    9.2554 H   0  0  0  0  0  0  0  0  0  0  0  0
    1.3168   -7.8336   10.2290 H   0  0  0  0  0  0  0  0  0  0  0  0
    1.8200   -6.3820    9.3712 H   0  0  0  0  0  0  0  0  0  0  0  0
   -0.0727   -7.4985    8.1677 H   0  0  0  0  0  0  0  0  0  0  0  0
    1.6528   -9.9563    8.4190 H   0  0  0  0  0  0  0  0  0  0  0  0
   -0.0913   -9.8155    8.2775 H   0  0  0  0  0  0  0  0  0  0  0  0
    1.9457  -10.1563    6.1400 H   0  0  0  0  0  0  0  0  0  0  0  0
    0.2079  -10.4272    6.0171 H   0  0  0  0  0  0  0  0  0  0  0  0
   -0.2590   -8.0984    5.8227 H   0  0  0  0  0  0  0  0  0  0  0  0
    2.5946   -7.7350    6.7719 H   0  0  0  0  0  0  0  0  0  0  0  0
    0.4703   -5.5997    6.5096 H   0  0  0  0  0  0  0  0  0  0  0  0
    2.2139   -5.4236    6.4199 H   0  0  0  0  0  0  0  0  0  0  0  0
    0.2603   -6.0070    4.3866 H   0  0  0  0  0  0  0  0  0  0  0  0
    2.2882   -4.4851    4.1362 H   0  0  0  0  0  0  0  0  0  0  0  0
    1.0531   -6.1913    1.9506 H   0  0  0  0  0  0  0  0  0  0  0  0
    0.6710   -4.5885    2.5295 H   0  0  0  0  0  0  0  0  0  0  0  0
    1.8148   -4.2617    0.4151 H   0  0  0  0  0  0  0  0  0  0  0  0
    5.2903   -4.3267   -0.0401 H   0  0  0  0  0  0  0  0  0  0  0  0
    3.3005   -4.3007   -1.5145 H   0  0  0  0  0  0  0  0  0  0  0  0
    2.8349   -2.7641   -0.8978 H   0  0  0  0  0  0  0  0  0  0  0  0
    6.3181   -3.2048   -3.4110 H   0  0  0  0  0  0  0  0  0  0  0  0
    5.3682   -4.6025   -2.9050 H   0  0  0  0  0  0  0  0  0  0  0  0
    6.4850   -3.8346   -1.7824 H   0  0  0  0  0  0  0  0  0  0  0  0
    4.3743   -1.8428   -4.1252 H   0  0  0  0  0  0  0  0  0  0  0  0
    2.9002   -1.8148   -3.1575 H   0  0  0  0  0  0  0  0  0  0  0  0
    3.4472   -3.3208   -3.8717 H   0  0  0  0  0  0  0  0  0  0  0  0
    6.0281   -1.0880   -2.1767 H   0  0  0  0  0  0  0  0  0  0  0  0
    4.6982    0.3388   -1.1610 H   0  0  0  0  0  0  0  0  0  0  0  0
    6.7899   -2.2188   -0.2143 H   0  0  0  0  0  0  0  0  0  0  0  0
    6.1606   -0.7053    0.3218 H   0  0  0  0  0  0  0  0  0  0  0  0
    4.1901   -0.5909    1.8610 H   0  0  0  0  0  0  0  0  0  0  0  0
    3.1879   -1.9967    2.1797 H   0  0  0  0  0  0  0  0  0  0  0  0
    3.1113   -1.2147    0.6313 H   0  0  0  0  0  0  0  0  0  0  0  0
    6.7373   -3.2840    1.7833 H   0  0  0  0  0  0  0  0  0  0  0  0
    6.1116   -1.9432    2.6831 H   0  0  0  0  0  0  0  0  0  0  0  0
    5.8396   -4.0919    3.8729 H   0  0  0  0  0  0  0  0  0  0  0  0
    4.3178   -3.2891    3.6432 H   0  0  0  0  0  0  0  0  0  0  0  0
    6.2262   -6.4878    2.7015 H   0  0  0  0  0  0  0  0  0  0  0  0
    6.4576   -5.3893    1.3914 H   0  0  0  0  0  0  0  0  0  0  0  0
    5.3447   -6.7139    1.1939 H   0  0  0  0  0  0  0  0  0  0  0  0
    5.4658   -6.2754    4.7492 H   0  0  0  0  0  0  0  0  0  0  0  0
    4.0094   -6.6831    5.5861 H   0  0  0  0  0  0  0  0  0  0  0  0
    4.3750   -5.0179    5.3305 H   0  0  0  0  0  0  0  0  0  0  0  0
    3.0156   -7.5324    2.0568 H   0  0  0  0  0  0  0  0  0  0  0  0
    4.4631   -7.9776    2.8886 H   0  0  0  0  0  0  0  0  0  0  0  0
    2.6278   -9.3982    3.5727 H   0  0  0  0  0  0  0  0  0  0  0  0
    3.3134   -8.5678    4.9009 H   0  0  0  0  0  0  0  0  0  0  0  0
    0.6296   -8.2413    2.2971 H   0  0  0  0  0  0  0  0  0  0  0  0
   -0.6865   -7.8831    3.4113 H   0  0  0  0  0  0  0  0  0  0  0  0
    0.0942   -9.4459    3.4282 H   0  0  0  0  0  0  0  0  0  0  0  0
  1  2  1  0
  1 33  1  0
  1 34  1  0
  1 35  1  0
  2  6  1  0
  2  3  1  0
  2 36  1  1
  3  4  1  0
  3 37  1  0
  3 38  1  0
  4  5  1  0
  4 39  1  0
  4 40  1  0
  5 31  1  0
  5  6  1  0
  5 41  1  6
  6  7  1  0
  6 42  1  1
  7  8  1  0
  7 43  1  0
  7 44  1  0
  8 31  1  0
  8  9  1  0
  8 45  1  6
  9 27  1  0
  9 10  1  0
  9 46  1  1
 10 11  1  0
 10 47  1  0
 10 48  1  0
 11 12  2  0
 11 49  1  0
 12 25  1  0
 12 13  1  0
 13 21  1  0
 13 14  1  0
 13 50  1  6
 14 15  1  0
 14 51  1  0
 14 52  1  0
 15 16  1  0
 15 17  1  0
 15 18  1  0
 16 53  1  0
 16 54  1  0
 16 55  1  0
 17 56  1  0
 17 57  1  0
 17 58  1  0
 18 19  1  0
 18 20  1  0
 18 59  1  6
 19 60  1  0
 20 21  1  0
 20 61  1  0
 20 62  1  0
 21 22  1  1
 21 23  1  0
 22 63  1  0
 22 64  1  0
 22 65  1  0
 23 24  1  0
 23 66  1  0
 23 67  1  0
 24 25  1  0
 24 68  1  0
 24 69  1  0
 25 26  1  6
 25 27  1  0
 26 70  1  0
 26 71  1  0
 26 72  1  0
 27 28  1  1
 27 29  1  0
 28 73  1  0
 28 74  1  0
 28 75  1  0
 29 30  1  0
 29 76  1  0
 29 77  1  0
 30 31  1  0
 30 78  1  0
 30 79  1  0
 31 32  1  6
 32 80  1  0
 32 81  1  0
 32 82  1  0
M  END
>  <i_m_ct_stereo_status>  (33) 
1

>  <s_m_source_file>  (33) 
/var/tmp/pbs.5076255.sched01/tmplremgrqo/0ygzoxw5b.sdf

>  <i_m_source_file_index>  (33) 
14

>  <i_lp_mmshare_version>  (33) 
48012

>  <i_f3d_flags>  (33) 
0

>  <s_epik_input>  (33) 
W0NIMl0xW0NIMl1bQ0BASF0oW0NIM10pW0NASF0oW0NIMl0yKVtDQEhdMVtDQF0oW0NIM10pKFtDSDJdW0NIMl0zKVtDQEBIXTJbQ0BIXShbQ0gyXVtDSF09NClbQ0BdMyhbQ0gzXSlbQ0BdKFtDSDNdKShbQ0gyXVtDSDJdNSlDNFtDQEhdKFtDQEBdNTZbQ0gzXSlbQ0gyXUMoW0NIM10pKFtDSDNdKVtDQEBIXShbT0hdKVtDSDJdNg==

>  <s_epik_cmdline>  (33) 
J2VwaWtfcHl0aG9uJywgJy1waHQnLCAnMi4wJywgJy1waCcsICc3LjAnLCAnLXRuJywgJzgnLCAnLW1hJywgJzIwMCcsICctaW1hZScsICc8aW5maWxlLm1hZT4nLCAnLW9tYWUnLCAnPG91dGZpbGUubWFlPic=

>  <r_lp_tautomer_probability>  (33) 
1

>  <r_epik_Ionization_Penalty>  (33) 
1.76364e-06

>  <r_epik_Ionization_Penalty_Charging>  (33) 
0

>  <r_epik_Ionization_Penalty_Neutral>  (33) 
1.76364e-06

>  <r_epik_State_Penalty>  (33) 
-0

>  <r_epik_Charging_Adjusted_Penalty>  (33) 
0

>  <i_epik_Tot_Q>  (33) 
0

>  <i_epik_Tot_abs_Q>  (33) 
0

>  <s_lp_Force_Field>  (33) 
OPLS3e

>  <r_lp_Energy>  (33) 
88.1283

>  <b_lp_Chiralities_Consistent>  (33) 
1

>  <s_lp_Variant>  (33) 
9:0-1

>  <s_i_glide_gridfile>  (33) 
pfpi4k_grid

>  <i_i_glide_lignum>  (33) 
14

>  <i_i_glide_rotatable_bonds>  (33) 
1

>  <r_i_docking_score>  (33) 
-2.69464

>  <r_i_glide_ligand_efficiency>  (33) 
-0.0842074

>  <r_i_glide_ligand_efficiency_sa>  (33) 
-0.267342

>  <r_i_glide_ligand_efficiency_ln>  (33) 
-0.603403

>  <r_i_glide_gscore>  (33) 
-2.69464

>  <r_i_glide_lipo>  (33) 
-0.622167

>  <r_i_glide_hbond>  (33) 
-0.32

>  <r_i_glide_metal>  (33) 
-0

>  <r_i_glide_rewards>  (33) 
-0.417763

>  <r_i_glide_evdw>  (33) 
-22.327

>  <r_i_glide_ecoul>  (33) 
-1.45572

>  <r_i_glide_erotb>  (33) 
0

>  <r_i_glide_esite>  (33) 
0

>  <r_i_glide_emodel>  (33) 
-26.9104

>  <r_i_glide_energy>  (33) 
-23.7827

>  <r_i_glide_einternal>  (33) 
0.330103

>  <r_i_glide_intrahb_reward>  (33) 
-0

>  <i_i_glide_confnum>  (33) 
1

>  <i_i_glide_posenum>  (33) 
35

>  <r_i_glide_eff_state_penalty>  (33) 
0

>  <ligand_id>  (33) 
9

>  <original_smiles>  (33) 
CC1CCC2C1CC1C3CC=C4C5CC(C)(C)C(O)CC5(C)CCC4(C)C3(C)CCC21C

>  <smiles>  (33) 
[H]OC1([H])C([H])([H])C2(C([H])([H])[H])C([H])([H])C([H])([H])C3(C([H])([H])[H])C(=C([H])C([H])([H])C4([H])C5([H])C([H])([H])C6([H])C([H])(C([H])([H])[H])C([H])([H])C([H])([H])C6([H])C5(C([H])([H])[H])C([H])([H])C([H])([H])C43C([H])([H])[H])C2([H])C([H])([H])C1(C([H])([H])[H])C([H])([H])[H]

$$$$
9:0:1
     RDKit          3D

 82 87  0  0  1  0  0  0  0  0999 V2000
    4.6141  -12.3820    7.9638 C   0  0  0  0  0  0  0  0  0  0  0  0
    5.0406  -12.7773    6.5450 C   0  0  2  0  0  0  0  0  0  0  0  0
    6.4088  -13.5097    6.4856 C   0  0  0  0  0  0  0  0  0  0  0  0
    7.1668  -12.9778    5.2385 C   0  0  0  0  0  0  0  0  0  0  0  0
    6.0710  -12.2139    4.4998 C   0  0  1  0  0  0  0  0  0  0  0  0
    5.2877  -11.5883    5.6215 C   0  0  1  0  0  0  0  0  0  0  0  0
    4.1925  -10.8232    4.8804 C   0  0  0  0  0  0  0  0  0  0  0  0
    4.8433  -10.4527    3.5092 C   0  0  1  0  0  0  0  0  0  0  0  0
    4.7170   -8.9591    3.0546 C   0  0  2  0  0  0  0  0  0  0  0  0
    4.6570   -8.9220    1.5082 C   0  0  0  0  0  0  0  0  0  0  0  0
    4.7943   -7.5476    0.9029 C   0  0  0  0  0  0  0  0  0  0  0  0
    5.2045   -6.4564    1.5691 C   0  0  0  0  0  0  0  0  0  0  0  0
    5.0976   -5.0366    0.9731 C   0  0  1  0  0  0  0  0  0  0  0  0
    4.9720   -4.9409   -0.5488 C   0  0  0  0  0  0  0  0  0  0  0  0
    5.0183   -3.4949   -1.1058 C   0  0  0  0  0  0  0  0  0  0  0  0
    6.4093   -2.8574   -0.8665 C   0  0  0  0  0  0  0  0  0  0  0  0
    4.8207   -3.5140   -2.6402 C   0  0  0  0  0  0  0  0  0  0  0  0
    3.9146   -2.6412   -0.4095 C   0  0  1  0  0  0  0  0  0  0  0  0
    2.6230   -2.9288   -0.9112 O   0  0  0  0  0  0  0  0  0  0  0  0
    3.9223   -2.7950    1.1312 C   0  0  0  0  0  0  0  0  0  0  0  0
    3.9576   -4.2564    1.6709 C   0  0  1  0  0  0  0  0  0  0  0  0
    2.5787   -4.9368    1.4727 C   0  0  0  0  0  0  0  0  0  0  0  0
    4.2674   -4.2442    3.1877 C   0  0  0  0  0  0  0  0  0  0  0  0
    4.5660   -5.6444    3.8001 C   0  0  0  0  0  0  0  0  0  0  0  0
    5.6413   -6.5035    3.0444 C   0  0  2  0  0  0  0  0  0  0  0  0
    7.0066   -5.7963    3.1930 C   0  0  0  0  0  0  0  0  0  0  0  0
    5.7972   -7.9924    3.6404 C   0  0  1  0  0  0  0  0  0  0  0  0
    5.6635   -7.8960    5.1904 C   0  0  0  0  0  0  0  0  0  0  0  0
    7.1815   -8.6509    3.3116 C   0  0  0  0  0  0  0  0  0  0  0  0
    7.3785  -10.0720    3.8858 C   0  0  0  0  0  0  0  0  0  0  0  0
    6.2829  -11.0862    3.4730 C   0  0  1  0  0  0  0  0  0  0  0  0
    6.6544  -11.7220    2.1154 C   0  0  0  0  0  0  0  0  0  0  0  0
    5.3454  -11.7394    8.4506 H   0  0  0  0  0  0  0  0  0  0  0  0
    4.4658  -13.2639    8.5877 H   0  0  0  0  0  0  0  0  0  0  0  0
    3.6655  -11.8455    7.9358 H   0  0  0  0  0  0  0  0  0  0  0  0
    4.2717  -13.4191    6.1083 H   0  0  0  0  0  0  0  0  0  0  0  0
    6.9988  -13.3237    7.3853 H   0  0  0  0  0  0  0  0  0  0  0  0
    6.2497  -14.5855    6.4259 H   0  0  0  0  0  0  0  0  0  0  0  0
    7.9781  -12.3178    5.5481 H   0  0  0  0  0  0  0  0  0  0  0  0
    7.5932  -13.7804    4.6368 H   0  0  0  0  0  0  0  0  0  0  0  0
    5.4368  -12.9649    4.0225 H   0  0  0  0  0  0  0  0  0  0  0  0
    5.9144  -10.8889    6.1709 H   0  0  0  0  0  0  0  0  0  0  0  0
    3.3229  -11.4631    4.7192 H   0  0  0  0  0  0  0  0  0  0  0  0
    3.8543   -9.9623    5.4545 H   0  0  0  0  0  0  0  0  0  0  0  0
    4.2441  -11.0238    2.7968 H   0  0  0  0  0  0  0  0  0  0  0  0
    3.7484   -8.5944    3.4002 H   0  0  0  0  0  0  0  0  0  0  0  0
    5.4169   -9.5457    1.0452 H   0  0  0  0  0  0  0  0  0  0  0  0
    3.6928   -9.3199    1.1891 H   0  0  0  0  0  0  0  0  0  0  0  0
    4.4712   -7.4788   -0.1214 H   0  0  0  0  0  0  0  0  0  0  0  0
    6.0348   -4.5376    1.1814 H   0  0  0  0  0  0  0  0  0  0  0  0
    5.7690   -5.5160   -0.9955 H   0  0  0  0  0  0  0  0  0  0  0  0
    4.0408   -5.4062   -0.8389 H   0  0  0  0  0  0  0  0  0  0  0  0
    6.4919   -1.8912   -1.3670 H   0  0  0  0  0  0  0  0  0  0  0  0
    7.2091   -3.4917   -1.2567 H   0  0  0  0  0  0  0  0  0  0  0  0
    6.6203   -2.6866    0.1889 H   0  0  0  0  0  0  0  0  0  0  0  0
    4.7839   -2.5086   -3.0654 H   0  0  0  0  0  0  0  0  0  0  0  0
    3.8952   -4.0176   -2.9207 H   0  0  0  0  0  0  0  0  0  0  0  0
    5.6347   -4.0502   -3.1345 H   0  0  0  0  0  0  0  0  0  0  0  0
    4.0931   -1.5917   -0.6561 H   0  0  0  0  0  0  0  0  0  0  0  0
    2.0525   -2.1605   -0.8113 H   0  0  0  0  0  0  0  0  0  0  0  0
    4.8015   -2.2745    1.5061 H   0  0  0  0  0  0  0  0  0  0  0  0
    3.0763   -2.2541    1.5552 H   0  0  0  0  0  0  0  0  0  0  0  0
    1.7972   -4.3557    1.9624 H   0  0  0  0  0  0  0  0  0  0  0  0
    2.5388   -5.9451    1.8884 H   0  0  0  0  0  0  0  0  0  0  0  0
    2.2977   -5.0358    0.4258 H   0  0  0  0  0  0  0  0  0  0  0  0
    5.1127   -3.5835    3.3768 H   0  0  0  0  0  0  0  0  0  0  0  0
    3.4336   -3.7913    3.7275 H   0  0  0  0  0  0  0  0  0  0  0  0
    4.8635   -5.4706    4.8341 H   0  0  0  0  0  0  0  0  0  0  0  0
    3.6337   -6.2087    3.8489 H   0  0  0  0  0  0  0  0  0  0  0  0
    7.4107   -5.8623    4.2011 H   0  0  0  0  0  0  0  0  0  0  0  0
    6.9122   -4.7405    2.9929 H   0  0  0  0  0  0  0  0  0  0  0  0
    7.7554   -6.1697    2.4945 H   0  0  0  0  0  0  0  0  0  0  0  0
    6.3384   -7.1570    5.6190 H   0  0  0  0  0  0  0  0  0  0  0  0
    5.8861   -8.8194    5.7054 H   0  0  0  0  0  0  0  0  0  0  0  0
    4.6493   -7.6387    5.4930 H   0  0  0  0  0  0  0  0  0  0  0  0
    7.3290   -8.6774    2.2325 H   0  0  0  0  0  0  0  0  0  0  0  0
    8.0091   -8.0594    3.6965 H   0  0  0  0  0  0  0  0  0  0  0  0
    8.3503  -10.4392    3.5565 H   0  0  0  0  0  0  0  0  0  0  0  0
    7.4824  -10.0085    4.9654 H   0  0  0  0  0  0  0  0  0  0  0  0
    6.9596  -10.9863    1.3781 H   0  0  0  0  0  0  0  0  0  0  0  0
    5.8251  -12.2925    1.6960 H   0  0  0  0  0  0  0  0  0  0  0  0
    7.4873  -12.4109    2.2276 H   0  0  0  0  0  0  0  0  0  0  0  0
  1  2  1  0
  1 33  1  0
  1 34  1  0
  1 35  1  0
  2  6  1  0
  2  3  1  0
  2 36  1  6
  3  4  1  0
  3 37  1  0
  3 38  1  0
  4  5  1  0
  4 39  1  0
  4 40  1  0
  5 31  1  0
  5  6  1  0
  5 41  1  6
  6  7  1  0
  6 42  1  1
  7  8  1  0
  7 43  1  0
  7 44  1  0
  8 31  1  0
  8  9  1  0
  8 45  1  6
  9 27  1  0
  9 10  1  0
  9 46  1  1
 10 11  1  0
 10 47  1  0
 10 48  1  0
 11 12  2  0
 11 49  1  0
 12 25  1  0
 12 13  1  0
 13 21  1  0
 13 14  1  0
 13 50  1  1
 14 15  1  0
 14 51  1  0
 14 52  1  0
 15 16  1  0
 15 17  1  0
 15 18  1  0
 16 53  1  0
 16 54  1  0
 16 55  1  0
 17 56  1  0
 17 57  1  0
 17 58  1  0
 18 19  1  0
 18 20  1  0
 18 59  1  1
 19 60  1  0
 20 21  1  0
 20 61  1  0
 20 62  1  0
 21 22  1  1
 21 23  1  0
 22 63  1  0
 22 64  1  0
 22 65  1  0
 23 24  1  0
 23 66  1  0
 23 67  1  0
 24 25  1  0
 24 68  1  0
 24 69  1  0
 25 26  1  6
 25 27  1  0
 26 70  1  0
 26 71  1  0
 26 72  1  0
 27 28  1  1
 27 29  1  0
 28 73  1  0
 28 74  1  0
 28 75  1  0
 29 30  1  0
 29 76  1  0
 29 77  1  0
 30 31  1  0
 30 78  1  0
 30 79  1  0
 31 32  1  6
 32 80  1  0
 32 81  1  0
 32 82  1  0
M  END
>  <i_m_ct_stereo_status>  (34) 
1

>  <s_m_source_file>  (34) 
/var/tmp/pbs.5076255.sched01/tmplremgrqo/0ygzoxw5b.sdf

>  <i_m_source_file_index>  (34) 
14

>  <i_lp_mmshare_version>  (34) 
48012

>  <i_f3d_flags>  (34) 
0

>  <s_epik_input>  (34) 
W0NIMl0xW0NIMl1bQ0BASF0oW0NIM10pW0NASF0oW0NIMl0yKVtDQEhdMVtDQF0oW0NIM10pKFtDSDJdW0NIMl0zKVtDQEBIXTJbQ0BIXShbQ0gyXVtDSF09NClbQ0BdMyhbQ0gzXSlbQ0BdKFtDSDNdKShbQ0gyXVtDSDJdNSlDNFtDQEhdKFtDQEBdNTZbQ0gzXSlbQ0gyXUMoW0NIM10pKFtDSDNdKVtDQEBIXShbT0hdKVtDSDJdNg==

>  <s_epik_cmdline>  (34) 
J2VwaWtfcHl0aG9uJywgJy1waHQnLCAnMi4wJywgJy1waCcsICc3LjAnLCAnLXRuJywgJzgnLCAnLW1hJywgJzIwMCcsICctaW1hZScsICc8aW5maWxlLm1hZT4nLCAnLW9tYWUnLCAnPG91dGZpbGUubWFlPic=

>  <r_lp_tautomer_probability>  (34) 
1

>  <r_epik_Ionization_Penalty>  (34) 
1.76364e-06

>  <r_epik_Ionization_Penalty_Charging>  (34) 
0

>  <r_epik_Ionization_Penalty_Neutral>  (34) 
1.76364e-06

>  <r_epik_State_Penalty>  (34) 
-0

>  <r_epik_Charging_Adjusted_Penalty>  (34) 
0

>  <i_epik_Tot_Q>  (34) 
0

>  <i_epik_Tot_abs_Q>  (34) 
0

>  <s_lp_Force_Field>  (34) 
OPLS3e

>  <r_lp_Energy>  (34) 
88.1283

>  <b_lp_Chiralities_Consistent>  (34) 
1

>  <s_lp_Variant>  (34) 
9:0-1

>  <s_i_glide_gridfile>  (34) 
pfpi4k_grid

>  <i_i_glide_lignum>  (34) 
14

>  <i_i_glide_rotatable_bonds>  (34) 
1

>  <r_i_docking_score>  (34) 
-2.57832

>  <r_i_glide_ligand_efficiency>  (34) 
-0.0805725

>  <r_i_glide_ligand_efficiency_sa>  (34) 
-0.255802

>  <r_i_glide_ligand_efficiency_ln>  (34) 
-0.577356

>  <r_i_glide_gscore>  (34) 
-2.57832

>  <r_i_glide_lipo>  (34) 
-0.377846

>  <r_i_glide_hbond>  (34) 
-0.16

>  <r_i_glide_metal>  (34) 
-0

>  <r_i_glide_rewards>  (34) 
-0.417763

>  <r_i_glide_evdw>  (34) 
-24.6112

>  <r_i_glide_ecoul>  (34) 
-2.61433

>  <r_i_glide_erotb>  (34) 
0

>  <r_i_glide_esite>  (34) 
0

>  <r_i_glide_emodel>  (34) 
-29.8817

>  <r_i_glide_energy>  (34) 
-27.2256

>  <r_i_glide_einternal>  (34) 
0.670018

>  <r_i_glide_intrahb_reward>  (34) 
-0

>  <i_i_glide_confnum>  (34) 
1

>  <i_i_glide_posenum>  (34) 
1

>  <r_i_glide_eff_state_penalty>  (34) 
0

>  <ligand_id>  (34) 
9

>  <original_smiles>  (34) 
CC1CCC2C1CC1C3CC=C4C5CC(C)(C)C(O)CC5(C)CCC4(C)C3(C)CCC21C

>  <smiles>  (34) 
[H]OC1([H])C([H])([H])C2(C([H])([H])[H])C([H])([H])C([H])([H])C3(C([H])([H])[H])C(=C([H])C([H])([H])C4([H])C5([H])C([H])([H])C6([H])C([H])(C([H])([H])[H])C([H])([H])C([H])([H])C6([H])C5(C([H])([H])[H])C([H])([H])C([H])([H])C43C([H])([H])[H])C2([H])C([H])([H])C1(C([H])([H])[H])C([H])([H])[H]

$$$$
9:0:2
     RDKit          3D

 82 87  0  0  1  0  0  0  0  0999 V2000
    2.2219   -6.5741    9.7612 C   0  0  0  0  0  0  0  0  0  0  0  0
    1.4376   -7.2451    8.6232 C   0  0  2  0  0  0  0  0  0  0  0  0
    1.5184   -8.7990    8.6251 C   0  0  0  0  0  0  0  0  0  0  0  0
    1.6490   -9.2551    7.1453 C   0  0  0  0  0  0  0  0  0  0  0  0
    1.3279   -7.9735    6.3816 C   0  0  1  0  0  0  0  0  0  0  0  0
    1.9701   -6.9123    7.2314 C   0  0  1  0  0  0  0  0  0  0  0  0
    1.6516   -5.6296    6.4641 C   0  0  0  0  0  0  0  0  0  0  0  0
    1.5543   -6.0853    4.9723 C   0  0  1  0  0  0  0  0  0  0  0  0
    2.3706   -5.2515    3.9271 C   0  0  2  0  0  0  0  0  0  0  0  0
    1.6145   -5.2920    2.5832 C   0  0  0  0  0  0  0  0  0  0  0  0
    2.3910   -4.7628    1.4092 C   0  0  0  0  0  0  0  0  0  0  0  0
    3.7019   -4.4920    1.4026 C   0  0  0  0  0  0  0  0  0  0  0  0
    4.3540   -3.6919    0.2641 C   0  0  1  0  0  0  0  0  0  0  0  0
    3.5760   -3.6131   -1.0645 C   0  0  0  0  0  0  0  0  0  0  0  0
    4.3862   -2.9742   -2.2241 C   0  0  0  0  0  0  0  0  0  0  0  0
    5.6108   -3.8047   -2.5879 C   0  0  0  0  0  0  0  0  0  0  0  0
    3.5152   -2.9223   -3.5032 C   0  0  0  0  0  0  0  0  0  0  0  0
    4.8774   -1.5753   -1.7940 C   0  0  1  0  0  0  0  0  0  0  0  0
    3.8258   -0.6606   -1.8923 O   0  0  0  0  0  0  0  0  0  0  0  0
    5.5188   -1.5439   -0.3795 C   0  0  0  0  0  0  0  0  0  0  0  0
    4.7335   -2.2737    0.7480 C   0  0  1  0  0  0  0  0  0  0  0  0
    3.4931   -1.4428    1.1677 C   0  0  0  0  0  0  0  0  0  0  0  0
    5.6421   -2.4428    1.9916 C   0  0  0  0  0  0  0  0  0  0  0  0
    5.0576   -3.3704    3.0967 C   0  0  0  0  0  0  0  0  0  0  0  0
    4.6064   -4.7885    2.6101 C   0  0  2  0  0  0  0  0  0  0  0  0
    5.8700   -5.5729    2.1399 C   0  0  0  0  0  0  0  0  0  0  0  0
    3.8769   -5.6432    3.7676 C   0  0  1  0  0  0  0  0  0  0  0  0
    4.6394   -5.3823    5.0991 C   0  0  0  0  0  0  0  0  0  0  0  0
    3.8732   -7.1860    3.4975 C   0  0  0  0  0  0  0  0  0  0  0  0
    3.2061   -8.0402    4.6031 C   0  0  0  0  0  0  0  0  0  0  0  0
    1.7437   -7.6444    4.9340 C   0  0  1  0  0  0  0  0  0  0  0  0
    0.7771   -8.3726    3.9699 C   0  0  0  0  0  0  0  0  0  0  0  0
    3.2780   -6.8434    9.7351 H   0  0  0  0  0  0  0  0  0  0  0  0
    1.8307   -6.8653   10.7363 H   0  0  0  0  0  0  0  0  0  0  0  0
    2.1568   -5.4884    9.6904 H   0  0  0  0  0  0  0  0  0  0  0  0
    0.3896   -6.9473    8.6860 H   0  0  0  0  0  0  0  0  0  0  0  0
    2.3802   -9.1552    9.1929 H   0  0  0  0  0  0  0  0  0  0  0  0
    0.6316   -9.2267    9.0949 H   0  0  0  0  0  0  0  0  0  0  0  0
    2.6654   -9.5993    6.9475 H   0  0  0  0  0  0  0  0  0  0  0  0
    0.9665  -10.0688    6.8958 H   0  0  0  0  0  0  0  0  0  0  0  0
    0.2429   -7.8473    6.4401 H   0  0  0  0  0  0  0  0  0  0  0  0
    3.0483   -7.0614    7.2591 H   0  0  0  0  0  0  0  0  0  0  0  0
    0.6956   -5.2186    6.7923 H   0  0  0  0  0  0  0  0  0  0  0  0
    2.4074   -4.8658    6.6386 H   0  0  0  0  0  0  0  0  0  0  0  0
    0.5018   -5.9069    4.7422 H   0  0  0  0  0  0  0  0  0  0  0  0
    2.3427   -4.2118    4.2549 H   0  0  0  0  0  0  0  0  0  0  0  0
    1.2738   -6.2875    2.3156 H   0  0  0  0  0  0  0  0  0  0  0  0
    0.7239   -4.6747    2.6973 H   0  0  0  0  0  0  0  0  0  0  0  0
    1.8154   -4.5089    0.5404 H   0  0  0  0  0  0  0  0  0  0  0  0
    5.2629   -4.2329    0.0232 H   0  0  0  0  0  0  0  0  0  0  0  0
    3.3033   -4.6284   -1.3042 H   0  0  0  0  0  0  0  0  0  0  0  0
    2.6382   -3.0743   -0.9450 H   0  0  0  0  0  0  0  0  0  0  0  0
    6.1160   -3.4277   -3.4790 H   0  0  0  0  0  0  0  0  0  0  0  0
    5.2962   -4.8237   -2.7917 H   0  0  0  0  0  0  0  0  0  0  0  0
    6.3631   -3.8371   -1.8004 H   0  0  0  0  0  0  0  0  0  0  0  0
    4.0287   -2.4006   -4.3120 H   0  0  0  0  0  0  0  0  0  0  0  0
    2.5631   -2.4196   -3.3297 H   0  0  0  0  0  0  0  0  0  0  0  0
    3.2817   -3.9277   -3.8605 H   0  0  0  0  0  0  0  0  0  0  0  0
    5.6221   -1.2255   -2.5100 H   0  0  0  0  0  0  0  0  0  0  0  0
    3.0977   -0.9811   -1.3722 H   0  0  0  0  0  0  0  0  0  0  0  0
    6.4994   -2.0134   -0.4575 H   0  0  0  0  0  0  0  0  0  0  0  0
    5.7234   -0.5131   -0.0906 H   0  0  0  0  0  0  0  0  0  0  0  0
    3.7810   -0.4387    1.4820 H   0  0  0  0  0  0  0  0  0  0  0  0
    2.9494   -1.9002    1.9953 H   0  0  0  0  0  0  0  0  0  0  0  0
    2.7661   -1.3283    0.3666 H   0  0  0  0  0  0  0  0  0  0  0  0
    6.6130   -2.8287    1.6817 H   0  0  0  0  0  0  0  0  0  0  0  0
    5.8544   -1.4657    2.4237 H   0  0  0  0  0  0  0  0  0  0  0  0
    5.8146   -3.4618    3.8725 H   0  0  0  0  0  0  0  0  0  0  0  0
    4.2079   -2.8672    3.5641 H   0  0  0  0  0  0  0  0  0  0  0  0
    6.4657   -5.9321    2.9787 H   0  0  0  0  0  0  0  0  0  0  0  0
    6.5571   -4.9852    1.5379 H   0  0  0  0  0  0  0  0  0  0  0  0
    5.5984   -6.4380    1.5327 H   0  0  0  0  0  0  0  0  0  0  0  0
    5.7090   -5.5549    4.9973 H   0  0  0  0  0  0  0  0  0  0  0  0
    4.3189   -6.0123    5.9157 H   0  0  0  0  0  0  0  0  0  0  0  0
    4.4926   -4.3623    5.4521 H   0  0  0  0  0  0  0  0  0  0  0  0
    3.3836   -7.3959    2.5462 H   0  0  0  0  0  0  0  0  0  0  0  0
    4.8839   -7.5710    3.3876 H   0  0  0  0  0  0  0  0  0  0  0  0
    3.2256   -9.0831    4.2852 H   0  0  0  0  0  0  0  0  0  0  0  0
    3.8325   -8.0332    5.4909 H   0  0  0  0  0  0  0  0  0  0  0  0
    1.0992   -8.3210    2.9331 H   0  0  0  0  0  0  0  0  0  0  0  0
   -0.2370   -7.9782    4.0284 H   0  0  0  0  0  0  0  0  0  0  0  0
    0.7137   -9.4328    4.2139 H   0  0  0  0  0  0  0  0  0  0  0  0
  1  2  1  0
  1 33  1  0
  1 34  1  0
  1 35  1  0
  2  6  1  0
  2  3  1  0
  2 36  1  6
  3  4  1  0
  3 37  1  0
  3 38  1  0
  4  5  1  0
  4 39  1  0
  4 40  1  0
  5 31  1  0
  5  6  1  0
  5 41  1  6
  6  7  1  0
  6 42  1  1
  7  8  1  0
  7 43  1  0
  7 44  1  0
  8 31  1  0
  8  9  1  0
  8 45  1  6
  9 27  1  0
  9 10  1  0
  9 46  1  1
 10 11  1  0
 10 47  1  0
 10 48  1  0
 11 12  2  0
 11 49  1  0
 12 25  1  0
 12 13  1  0
 13 21  1  0
 13 14  1  0
 13 50  1  6
 14 15  1  0
 14 51  1  0
 14 52  1  0
 15 16  1  0
 15 17  1  0
 15 18  1  0
 16 53  1  0
 16 54  1  0
 16 55  1  0
 17 56  1  0
 17 57  1  0
 17 58  1  0
 18 19  1  0
 18 20  1  0
 18 59  1  6
 19 60  1  0
 20 21  1  0
 20 61  1  0
 20 62  1  0
 21 22  1  1
 21 23  1  0
 22 63  1  0
 22 64  1  0
 22 65  1  0
 23 24  1  0
 23 66  1  0
 23 67  1  0
 24 25  1  0
 24 68  1  0
 24 69  1  0
 25 26  1  6
 25 27  1  0
 26 70  1  0
 26 71  1  0
 26 72  1  0
 27 28  1  1
 27 29  1  0
 28 73  1  0
 28 74  1  0
 28 75  1  0
 29 30  1  0
 29 76  1  0
 29 77  1  0
 30 31  1  0
 30 78  1  0
 30 79  1  0
 31 32  1  6
 32 80  1  0
 32 81  1  0
 32 82  1  0
M  END
>  <i_m_ct_stereo_status>  (35) 
1

>  <s_m_source_file>  (35) 
/var/tmp/pbs.5076255.sched01/tmplremgrqo/0ygzoxw5b.sdf

>  <i_m_source_file_index>  (35) 
14

>  <i_lp_mmshare_version>  (35) 
48012

>  <i_f3d_flags>  (35) 
0

>  <s_epik_input>  (35) 
W0NIMl0xW0NIMl1bQ0BASF0oW0NIM10pW0NASF0oW0NIMl0yKVtDQEhdMVtDQF0oW0NIM10pKFtDSDJdW0NIMl0zKVtDQEBIXTJbQ0BIXShbQ0gyXVtDSF09NClbQ0BdMyhbQ0gzXSlbQ0BdKFtDSDNdKShbQ0gyXVtDSDJdNSlDNFtDQEhdKFtDQEBdNTZbQ0gzXSlbQ0gyXUMoW0NIM10pKFtDSDNdKVtDQEBIXShbT0hdKVtDSDJdNg==

>  <s_epik_cmdline>  (35) 
J2VwaWtfcHl0aG9uJywgJy1waHQnLCAnMi4wJywgJy1waCcsICc3LjAnLCAnLXRuJywgJzgnLCAnLW1hJywgJzIwMCcsICctaW1hZScsICc8aW5maWxlLm1hZT4nLCAnLW9tYWUnLCAnPG91dGZpbGUubWFlPic=

>  <r_lp_tautomer_probability>  (35) 
1

>  <r_epik_Ionization_Penalty>  (35) 
1.76364e-06

>  <r_epik_Ionization_Penalty_Charging>  (35) 
0

>  <r_epik_Ionization_Penalty_Neutral>  (35) 
1.76364e-06

>  <r_epik_State_Penalty>  (35) 
-0

>  <r_epik_Charging_Adjusted_Penalty>  (35) 
0

>  <i_epik_Tot_Q>  (35) 
0

>  <i_epik_Tot_abs_Q>  (35) 
0

>  <s_lp_Force_Field>  (35) 
OPLS3e

>  <r_lp_Energy>  (35) 
88.1283

>  <b_lp_Chiralities_Consistent>  (35) 
1

>  <s_lp_Variant>  (35) 
9:0-1

>  <s_i_glide_gridfile>  (35) 
pfpi4k_grid

>  <i_i_glide_lignum>  (35) 
14

>  <i_i_glide_rotatable_bonds>  (35) 
1

>  <r_i_docking_score>  (35) 
-2.17918

>  <r_i_glide_ligand_efficiency>  (35) 
-0.0680995

>  <r_i_glide_ligand_efficiency_sa>  (35) 
-0.216202

>  <r_i_glide_ligand_efficiency_ln>  (35) 
-0.487979

>  <r_i_glide_gscore>  (35) 
-2.17918

>  <r_i_glide_lipo>  (35) 
-0.499454

>  <r_i_glide_hbond>  (35) 
-0.0014631

>  <r_i_glide_metal>  (35) 
-0

>  <r_i_glide_rewards>  (35) 
-0.417763

>  <r_i_glide_evdw>  (35) 
-22.7065

>  <r_i_glide_ecoul>  (35) 
-0.834535

>  <r_i_glide_erotb>  (35) 
0

>  <r_i_glide_esite>  (35) 
0

>  <r_i_glide_emodel>  (35) 
-25.8071

>  <r_i_glide_energy>  (35) 
-23.541

>  <r_i_glide_einternal>  (35) 
0.0799487

>  <r_i_glide_intrahb_reward>  (35) 
-0

>  <i_i_glide_confnum>  (35) 
1

>  <i_i_glide_posenum>  (35) 
17

>  <r_i_glide_eff_state_penalty>  (35) 
0

>  <ligand_id>  (35) 
9

>  <original_smiles>  (35) 
CC1CCC2C1CC1C3CC=C4C5CC(C)(C)C(O)CC5(C)CCC4(C)C3(C)CCC21C

>  <smiles>  (35) 
[H]OC1([H])C([H])([H])C2(C([H])([H])[H])C([H])([H])C([H])([H])C3(C([H])([H])[H])C(=C([H])C([H])([H])C4([H])C5([H])C([H])([H])C6([H])C([H])(C([H])([H])[H])C([H])([H])C([H])([H])C6([H])C5(C([H])([H])[H])C([H])([H])C([H])([H])C43C([H])([H])[H])C2([H])C([H])([H])C1(C([H])([H])[H])C([H])([H])[H]

$$$$
10:0:0
     RDKit          3D

 80 85  0  0  1  0  0  0  0  0999 V2000
    4.0151   -3.0688   -3.4398 C   0  0  0  0  0  0  0  0  0  0  0  0
    4.8181   -2.5382   -2.2650 C   0  0  0  0  0  0  0  0  0  0  0  0
    5.2522   -1.3884   -2.2412 O   0  0  0  0  0  0  0  0  0  0  0  0
    4.9737   -3.4506   -1.2979 O   0  0  0  0  0  0  0  0  0  0  0  0
    5.7399   -3.1521   -0.1333 C   0  0  2  0  0  0  0  0  0  0  0  0
    5.7744   -4.3394    0.8121 C   0  0  0  0  0  0  0  0  0  0  0  0
    5.6055   -3.6597    2.1461 C   0  0  1  0  0  0  0  0  0  0  0  0
    5.8107   -2.2773    2.0244 O   0  0  0  0  0  0  0  0  0  0  0  0
    5.2057   -2.0008    0.7744 C   0  0  2  0  0  0  0  0  0  0  0  0
    3.6647   -1.9278    0.9881 C   0  0  0  0  0  0  0  0  0  0  0  0
    2.9210   -3.2940    1.2005 C   0  0  0  0  0  0  0  0  0  0  0  0
    3.0802   -4.0628    2.5736 C   0  0  1  0  0  0  0  0  0  0  0  0
    1.9803   -3.4386    3.4760 C   0  0  0  0  0  0  0  0  0  0  0  0
    2.8505   -5.6084    2.5449 C   0  0  0  0  0  0  0  0  0  0  0  0
    2.9752   -6.4888    3.5923 C   0  0  0  0  0  0  0  0  0  0  0  0
    3.4329   -6.1049    5.0105 C   0  0  0  0  0  0  0  0  0  0  0  0
    2.5864   -7.9961    3.4049 C   0  0  2  0  0  0  0  0  0  0  0  0
    3.9067   -8.7975    3.3897 C   0  0  0  0  0  0  0  0  0  0  0  0
    4.2796   -9.8644    2.6360 C   0  0  0  0  0  0  0  0  0  0  0  0
    5.6325  -10.5752    2.6654 C   0  0  0  0  0  0  0  0  0  0  0  0
    6.4399  -10.2334    1.4106 C   0  0  0  0  0  0  0  0  0  0  0  0
    6.4490  -10.3121    3.9426 C   0  0  0  0  0  0  0  0  0  0  0  0
    5.4245  -11.9683    2.5959 O   0  0  0  0  0  0  0  0  0  0  0  0
    1.8016   -8.2730    2.0785 C   0  0  2  0  0  0  0  0  0  0  0  0
    1.3109   -7.1043    1.4578 O   0  0  0  0  0  0  0  0  0  0  0  0
    2.3613   -6.1920    1.2153 C   0  0  0  0  0  0  0  0  0  0  0  0
    0.6633   -9.2725    2.4084 C   0  0  2  0  0  0  0  0  0  0  0  0
   -0.7737   -8.7434    2.1850 C   0  0  0  0  0  0  0  0  0  0  0  0
   -1.3691   -7.8016    3.2419 C   0  0  1  0  0  0  0  0  0  0  0  0
   -2.1787   -8.4944    4.1159 O   0  0  0  0  0  0  0  0  0  0  0  0
   -0.4181   -6.9146    4.0473 C   0  0  0  0  0  0  0  0  0  0  0  0
    0.5060   -7.6367    5.0529 C   0  0  0  0  0  0  0  0  0  0  0  0
    1.6004   -8.5857    4.4873 C   0  0  2  0  0  0  0  0  0  0  0  0
    2.2945   -9.0783    5.6145 O   0  0  0  0  0  0  0  0  0  0  0  0
    0.9409   -9.7848    3.8123 C   0  0  0  0  0  0  0  0  0  0  0  0
    4.4389   -3.6430    3.1295 C   0  0  1  0  0  0  0  0  0  0  0  0
    5.6993   -4.4240    3.4047 C   0  0  0  0  0  0  0  0  0  0  0  0
    6.3531   -5.1874    4.1257 O   0  0  0  0  0  0  0  0  0  0  0  0
    3.0788   -3.5006   -3.0835 H   0  0  0  0  0  0  0  0  0  0  0  0
    4.5837   -3.8484   -3.9485 H   0  0  0  0  0  0  0  0  0  0  0  0
    3.7883   -2.2657   -4.1423 H   0  0  0  0  0  0  0  0  0  0  0  0
    6.7670   -2.9187   -0.4322 H   0  0  0  0  0  0  0  0  0  0  0  0
    4.9945   -5.0820    0.6392 H   0  0  0  0  0  0  0  0  0  0  0  0
    6.7370   -4.8458    0.7815 H   0  0  0  0  0  0  0  0  0  0  0  0
    5.5873   -1.0378    0.4466 H   0  0  0  0  0  0  0  0  0  0  0  0
    3.4384   -1.2214    1.7920 H   0  0  0  0  0  0  0  0  0  0  0  0
    3.2596   -1.4710    0.0848 H   0  0  0  0  0  0  0  0  0  0  0  0
    1.8718   -3.0868    1.0307 H   0  0  0  0  0  0  0  0  0  0  0  0
    3.1970   -3.9008    0.3508 H   0  0  0  0  0  0  0  0  0  0  0  0
    2.0065   -2.3494    3.4687 H   0  0  0  0  0  0  0  0  0  0  0  0
    2.0324   -3.7457    4.5186 H   0  0  0  0  0  0  0  0  0  0  0  0
    0.9867   -3.7019    3.1196 H   0  0  0  0  0  0  0  0  0  0  0  0
    3.7753   -6.9994    5.5224 H   0  0  0  0  0  0  0  0  0  0  0  0
    2.6187   -5.7002    5.6161 H   0  0  0  0  0  0  0  0  0  0  0  0
    4.2676   -5.4046    5.0369 H   0  0  0  0  0  0  0  0  0  0  0  0
    4.6205   -8.4250    4.0934 H   0  0  0  0  0  0  0  0  0  0  0  0
    3.5955  -10.3119    1.9292 H   0  0  0  0  0  0  0  0  0  0  0  0
    6.6746   -9.1702    1.3556 H   0  0  0  0  0  0  0  0  0  0  0  0
    5.9052  -10.5086    0.5008 H   0  0  0  0  0  0  0  0  0  0  0  0
    7.3727  -10.7942    1.4130 H   0  0  0  0  0  0  0  0  0  0  0  0
    6.7073   -9.2590    4.0528 H   0  0  0  0  0  0  0  0  0  0  0  0
    7.3879  -10.8696    3.9309 H   0  0  0  0  0  0  0  0  0  0  0  0
    5.8885  -10.6238    4.8255 H   0  0  0  0  0  0  0  0  0  0  0  0
    4.8933  -12.1422    1.8182 H   0  0  0  0  0  0  0  0  0  0  0  0
    2.4156   -8.7196    1.2842 H   0  0  0  0  0  0  0  0  0  0  0  0
    1.8875   -5.5009    0.5092 H   0  0  0  0  0  0  0  0  0  0  0  0
    3.2202   -6.6623    0.7113 H   0  0  0  0  0  0  0  0  0  0  0  0
    0.7863  -10.1232    1.7412 H   0  0  0  0  0  0  0  0  0  0  0  0
   -0.8089   -8.2281    1.2266 H   0  0  0  0  0  0  0  0  0  0  0  0
   -1.4311   -9.5974    2.0359 H   0  0  0  0  0  0  0  0  0  0  0  0
   -2.0919   -7.1786    2.7328 H   0  0  0  0  0  0  0  0  0  0  0  0
   -1.8652   -9.3406    4.3217 H   0  0  0  0  0  0  0  0  0  0  0  0
    0.1436   -6.2636    3.3774 H   0  0  0  0  0  0  0  0  0  0  0  0
   -1.0602   -6.2555    4.6299 H   0  0  0  0  0  0  0  0  0  0  0  0
    0.9584   -6.8604    5.6523 H   0  0  0  0  0  0  0  0  0  0  0  0
   -0.1030   -8.1783    5.7777 H   0  0  0  0  0  0  0  0  0  0  0  0
    1.7245   -9.6753    6.0757 H   0  0  0  0  0  0  0  0  0  0  0  0
    0.0561  -10.1642    4.3289 H   0  0  0  0  0  0  0  0  0  0  0  0
    1.6534  -10.6087    3.7568 H   0  0  0  0  0  0  0  0  0  0  0  0
    4.3590   -2.7301    3.7132 H   0  0  0  0  0  0  0  0  0  0  0  0
  1  2  1  0
  1 39  1  0
  1 40  1  0
  1 41  1  0
  2  3  2  0
  2  4  1  0
  4  5  1  0
  5  9  1  0
  5  6  1  0
  5 42  1  6
  7  6  1  6
  6 43  1  0
  6 44  1  0
  7 36  1  0
  7 37  1  0
  7  8  1  0
  8  9  1  0
  9 10  1  0
  9 45  1  6
 10 11  1  0
 10 46  1  0
 10 47  1  0
 11 12  1  0
 11 48  1  0
 11 49  1  0
 12 13  1  1
 12 14  1  0
 12 36  1  0
 13 50  1  0
 13 51  1  0
 13 52  1  0
 14 26  1  0
 14 15  2  0
 15 16  1  0
 15 17  1  0
 16 53  1  0
 16 54  1  0
 16 55  1  0
 17 33  1  0
 17 18  1  6
 17 24  1  0
 18 19  2  3
 18 56  1  0
 19 20  1  0
 19 57  1  0
 20 21  1  0
 20 22  1  0
 20 23  1  0
 21 58  1  0
 21 59  1  0
 21 60  1  0
 22 61  1  0
 22 62  1  0
 22 63  1  0
 23 64  1  0
 24 25  1  0
 24 27  1  0
 24 65  1  6
 25 26  1  0
 26 66  1  0
 26 67  1  0
 27 35  1  0
 27 28  1  0
 27 68  1  6
 28 29  1  0
 28 69  1  0
 28 70  1  0
 29 30  1  0
 29 31  1  0
 29 71  1  6
 30 72  1  0
 31 32  1  0
 31 73  1  0
 31 74  1  0
 32 33  1  0
 32 75  1  0
 32 76  1  0
 33 34  1  1
 33 35  1  0
 34 77  1  0
 35 78  1  0
 35 79  1  0
 36 37  1  0
 36 80  1  1
 37 38  2  0
M  END
>  <i_m_ct_stereo_status>  (36) 
1

>  <s_m_source_file>  (36) 
/var/tmp/pbs.5076255.sched01/tmplremgrqo/0ygzoxw5b.sdf

>  <i_m_source_file_index>  (36) 
15

>  <i_lp_mmshare_version>  (36) 
48012

>  <i_f3d_flags>  (36) 
0

>  <s_epik_input>  (36) 
W0NIM11DKD1PKU9bQ0BIXShbQ0gyXTEpW0NASF0oTzIpW0NIMl1bQ0gyXVtDQF0oW0NIM10pKFtDSF0oQzEyMylDMz1PKUMoPUM0W0NIM10pW0NIMl1PW0NAQEhdKFtDQEBdNDUvW0NIXT1bQ0hdL0MoW0NIM10pKFtDSDNdKVtPSF0pW0NAQEhdNltDSDJdW0NAQEhdKFtPSF0pW0NIMl1bQ0gyXVtDQEBdNShbT0hdKVtDSDJdNg==

>  <s_epik_cmdline>  (36) 
J2VwaWtfcHl0aG9uJywgJy1waHQnLCAnMi4wJywgJy1waCcsICc3LjAnLCAnLXRuJywgJzgnLCAnLW1hJywgJzIwMCcsICctaW1hZScsICc8aW5maWxlLm1hZT4nLCAnLW9tYWUnLCAnPG91dGZpbGUubWFlPic=

>  <r_lp_tautomer_probability>  (36) 
1

>  <r_epik_Ionization_Penalty>  (36) 
8.27755e-07

>  <r_epik_Ionization_Penalty_Charging>  (36) 
0

>  <r_epik_Ionization_Penalty_Neutral>  (36) 
8.27755e-07

>  <r_epik_State_Penalty>  (36) 
-0

>  <r_epik_Charging_Adjusted_Penalty>  (36) 
0

>  <i_epik_Tot_Q>  (36) 
0

>  <i_epik_Tot_abs_Q>  (36) 
0

>  <s_epik_Chemistry_Notes>  (36) 
This compound has an ester and may undergo hydrolysis at high or low pH.

>  <s_lp_Force_Field>  (36) 
OPLS3e

>  <r_lp_Energy>  (36) 
84.872

>  <b_lp_Chiralities_Consistent>  (36) 
1

>  <s_lp_Variant>  (36) 
10:0-1

>  <s_i_glide_gridfile>  (36) 
pfpi4k_grid

>  <i_i_glide_lignum>  (36) 
15

>  <i_i_glide_rotatable_bonds>  (36) 
8

>  <r_i_docking_score>  (36) 
-3.52103

>  <r_i_glide_ligand_efficiency>  (36) 
-0.0926587

>  <r_i_glide_ligand_efficiency_sa>  (36) 
-0.311516

>  <r_i_glide_ligand_efficiency_ln>  (36) 
-0.759238

>  <r_i_glide_gscore>  (36) 
-3.52103

>  <r_i_glide_lipo>  (36) 
-0.400721

>  <r_i_glide_hbond>  (36) 
-0.296718

>  <r_i_glide_metal>  (36) 
-0

>  <r_i_glide_rewards>  (36) 
-0.115562

>  <r_i_glide_evdw>  (36) 
-32.7513

>  <r_i_glide_ecoul>  (36) 
-9.0887

>  <r_i_glide_erotb>  (36) 
0.29284

>  <r_i_glide_esite>  (36) 
0

>  <r_i_glide_emodel>  (36) 
-46.3281

>  <r_i_glide_energy>  (36) 
-41.84

>  <r_i_glide_einternal>  (36) 
7.95808

>  <r_i_glide_intrahb_reward>  (36) 
-0

>  <i_i_glide_confnum>  (36) 
3

>  <i_i_glide_posenum>  (36) 
20

>  <r_i_glide_eff_state_penalty>  (36) 
0

>  <ligand_id>  (36) 
10

>  <original_smiles>  (36) 
CC(=O)OC1CC23OC1CCC(C)(C1=C(C)C4(C=CC(C)(C)O)C(OC1)C1CC(O)CCC4(O)C1)C2C3=O

>  <smiles>  (36) 
[H]OC1([H])C([H])([H])C([H])([H])C2(O[H])C([H])([H])C([H])(C1([H])[H])C1([H])OC([H])([H])C(C3(C([H])([H])[H])C([H])([H])C([H])([H])C4([H])OC5(C(=O)C53[H])C([H])([H])C4([H])OC(=O)C([H])([H])[H])=C(C([H])([H])[H])C12C([H])=C([H])C(O[H])(C([H])([H])[H])C([H])([H])[H]

$$$$
10:0:1
     RDKit          3D

 80 85  0  0  1  0  0  0  0  0999 V2000
    4.9298   -3.0213   -2.8191 C   0  0  0  0  0  0  0  0  0  0  0  0
    5.7451   -2.5546   -1.6249 C   0  0  0  0  0  0  0  0  0  0  0  0
    6.9628   -2.3826   -1.6942 O   0  0  0  0  0  0  0  0  0  0  0  0
    4.9894   -2.3494   -0.5398 O   0  0  0  0  0  0  0  0  0  0  0  0
    5.5945   -2.0650    0.7109 C   0  0  2  0  0  0  0  0  0  0  0  0
    5.6217   -3.2877    1.6260 C   0  0  0  0  0  0  0  0  0  0  0  0
    5.2300   -2.6852    2.9212 C   0  0  1  0  0  0  0  0  0  0  0  0
    5.3549   -1.2756    2.8651 O   0  0  0  0  0  0  0  0  0  0  0  0
    4.8409   -1.0137    1.5616 C   0  0  2  0  0  0  0  0  0  0  0  0
    3.2871   -1.1099    1.6023 C   0  0  0  0  0  0  0  0  0  0  0  0
    2.6480   -2.5426    1.6701 C   0  0  0  0  0  0  0  0  0  0  0  0
    2.7358   -3.3576    3.0399 C   0  0  1  0  0  0  0  0  0  0  0  0
    1.4658   -2.9003    3.8115 C   0  0  0  0  0  0  0  0  0  0  0  0
    2.6342   -4.9283    2.9087 C   0  0  0  0  0  0  0  0  0  0  0  0
    2.7757   -5.8429    3.9203 C   0  0  0  0  0  0  0  0  0  0  0  0
    3.1556   -5.5047    5.3974 C   0  0  0  0  0  0  0  0  0  0  0  0
    2.5983   -7.3563    3.6294 C   0  0  2  0  0  0  0  0  0  0  0  0
    4.0025   -8.0006    3.6216 C   0  0  0  0  0  0  0  0  0  0  0  0
    5.2058   -7.3662    3.5843 C   0  0  0  0  0  0  0  0  0  0  0  0
    6.5963   -8.0020    3.6164 C   0  0  0  0  0  0  0  0  0  0  0  0
    6.5747   -9.5257    3.8034 C   0  0  0  0  0  0  0  0  0  0  0  0
    7.3921   -7.6132    2.3628 C   0  0  0  0  0  0  0  0  0  0  0  0
    7.3164   -7.4598    4.7178 O   0  0  0  0  0  0  0  0  0  0  0  0
    1.9546   -7.6669    2.2331 C   0  0  2  0  0  0  0  0  0  0  0  0
    1.3879   -6.5286    1.6106 O   0  0  0  0  0  0  0  0  0  0  0  0
    2.3266   -5.4740    1.5226 C   0  0  0  0  0  0  0  0  0  0  0  0
    0.8858   -8.7851    2.4217 C   0  0  2  0  0  0  0  0  0  0  0  0
   -0.5860   -8.3866    2.1602 C   0  0  0  0  0  0  0  0  0  0  0  0
   -1.3469   -7.6450    3.2720 C   0  0  1  0  0  0  0  0  0  0  0  0
   -2.0870   -8.5509    4.0616 O   0  0  0  0  0  0  0  0  0  0  0  0
   -0.5411   -6.6777    4.1548 C   0  0  0  0  0  0  0  0  0  0  0  0
    0.4167   -7.3348    5.1675 C   0  0  0  0  0  0  0  0  0  0  0  0
    1.6278   -8.1283    4.6034 C   0  0  2  0  0  0  0  0  0  0  0  0
    2.2981   -8.6310    5.7520 O   0  0  0  0  0  0  0  0  0  0  0  0
    1.1357   -9.3455    3.8132 C   0  0  0  0  0  0  0  0  0  0  0  0
    3.9429   -2.8403    3.7814 C   0  0  1  0  0  0  0  0  0  0  0  0
    5.2950   -3.4690    4.1743 C   0  0  0  0  0  0  0  0  0  0  0  0
    5.9648   -4.1506    4.9454 O   0  0  0  0  0  0  0  0  0  0  0  0
    4.0979   -2.3372   -2.9937 H   0  0  0  0  0  0  0  0  0  0  0  0
    4.5269   -4.0176   -2.6300 H   0  0  0  0  0  0  0  0  0  0  0  0
    5.5486   -3.0646   -3.7157 H   0  0  0  0  0  0  0  0  0  0  0  0
    6.6277   -1.7093    0.6011 H   0  0  0  0  0  0  0  0  0  0  0  0
    4.9456   -4.0990    1.3180 H   0  0  0  0  0  0  0  0  0  0  0  0
    6.6337   -3.7068    1.6874 H   0  0  0  0  0  0  0  0  0  0  0  0
    5.1526   -0.0103    1.2900 H   0  0  0  0  0  0  0  0  0  0  0  0
    2.8995   -0.4802    2.4017 H   0  0  0  0  0  0  0  0  0  0  0  0
    2.9372   -0.6460    0.6806 H   0  0  0  0  0  0  0  0  0  0  0  0
    1.6180   -2.4188    1.3837 H   0  0  0  0  0  0  0  0  0  0  0  0
    3.0777   -3.0887    0.8481 H   0  0  0  0  0  0  0  0  0  0  0  0
    1.3834   -1.8123    3.8580 H   0  0  0  0  0  0  0  0  0  0  0  0
    1.4337   -3.2647    4.8381 H   0  0  0  0  0  0  0  0  0  0  0  0
    0.5544   -3.2361    3.3283 H   0  0  0  0  0  0  0  0  0  0  0  0
    3.5930   -6.4247    5.8193 H   0  0  0  0  0  0  0  0  0  0  0  0
    2.2715   -5.2360    5.9901 H   0  0  0  0  0  0  0  0  0  0  0  0
    3.8806   -4.7503    5.4860 H   0  0  0  0  0  0  0  0  0  0  0  0
    3.9942   -9.0770    3.6846 H   0  0  0  0  0  0  0  0  0  0  0  0
    5.2476   -6.2950    3.5269 H   0  0  0  0  0  0  0  0  0  0  0  0
    6.0266  -10.0041    2.9877 H   0  0  0  0  0  0  0  0  0  0  0  0
    6.0931   -9.8057    4.7412 H   0  0  0  0  0  0  0  0  0  0  0  0
    7.5817   -9.9520    3.8078 H   0  0  0  0  0  0  0  0  0  0  0  0
    6.8898   -7.9584    1.4582 H   0  0  0  0  0  0  0  0  0  0  0  0
    8.3961   -8.0484    2.3671 H   0  0  0  0  0  0  0  0  0  0  0  0
    7.5163   -6.5324    2.2795 H   0  0  0  0  0  0  0  0  0  0  0  0
    6.9456   -7.7710    5.5075 H   0  0  0  0  0  0  0  0  0  0  0  0
    2.7197   -8.0618    1.5455 H   0  0  0  0  0  0  0  0  0  0  0  0
    1.8510   -4.7764    0.8186 H   0  0  0  0  0  0  0  0  0  0  0  0
    3.2598   -5.8236    1.0619 H   0  0  0  0  0  0  0  0  0  0  0  0
    1.1148   -9.5711    1.7052 H   0  0  0  0  0  0  0  0  0  0  0  0
   -0.6409   -7.8135    1.2355 H   0  0  0  0  0  0  0  0  0  0  0  0
   -1.1431   -9.2913    1.9221 H   0  0  0  0  0  0  0  0  0  0  0  0
   -2.1173   -7.0587    2.7766 H   0  0  0  0  0  0  0  0  0  0  0  0
   -1.5717   -9.2920    4.3348 H   0  0  0  0  0  0  0  0  0  0  0  0
   -0.0254   -5.9379    3.5426 H   0  0  0  0  0  0  0  0  0  0  0  0
   -1.2643   -6.1073    4.7391 H   0  0  0  0  0  0  0  0  0  0  0  0
    0.7526   -6.5433    5.8249 H   0  0  0  0  0  0  0  0  0  0  0  0
   -0.1641   -7.9675    5.8320 H   0  0  0  0  0  0  0  0  0  0  0  0
    1.7480   -9.2470    6.1746 H   0  0  0  0  0  0  0  0  0  0  0  0
    0.2729   -9.8360    4.2595 H   0  0  0  0  0  0  0  0  0  0  0  0
    1.9246  -10.0931    3.7635 H   0  0  0  0  0  0  0  0  0  0  0  0
    3.7131   -1.9960    4.4058 H   0  0  0  0  0  0  0  0  0  0  0  0
  1  2  1  0
  1 39  1  0
  1 40  1  0
  1 41  1  0
  2  3  2  0
  2  4  1  0
  4  5  1  0
  5  9  1  0
  5  6  1  0
  5 42  1  6
  7  6  1  6
  6 43  1  0
  6 44  1  0
  7 36  1  0
  7 37  1  0
  7  8  1  0
  8  9  1  0
  9 10  1  0
  9 45  1  6
 10 11  1  0
 10 46  1  0
 10 47  1  0
 11 12  1  0
 11 48  1  0
 11 49  1  0
 12 13  1  1
 12 14  1  0
 12 36  1  0
 13 50  1  0
 13 51  1  0
 13 52  1  0
 14 26  1  0
 14 15  2  0
 15 16  1  0
 15 17  1  0
 16 53  1  0
 16 54  1  0
 16 55  1  0
 17 33  1  0
 17 18  1  6
 17 24  1  0
 18 19  2  3
 18 56  1  0
 19 20  1  0
 19 57  1  0
 20 21  1  0
 20 22  1  0
 20 23  1  0
 21 58  1  0
 21 59  1  0
 21 60  1  0
 22 61  1  0
 22 62  1  0
 22 63  1  0
 23 64  1  0
 24 25  1  0
 24 27  1  0
 24 65  1  6
 25 26  1  0
 26 66  1  0
 26 67  1  0
 27 35  1  0
 27 28  1  0
 27 68  1  6
 28 29  1  0
 28 69  1  0
 28 70  1  0
 29 30  1  0
 29 31  1  0
 29 71  1  6
 30 72  1  0
 31 32  1  0
 31 73  1  0
 31 74  1  0
 32 33  1  0
 32 75  1  0
 32 76  1  0
 33 34  1  1
 33 35  1  0
 34 77  1  0
 35 78  1  0
 35 79  1  0
 36 37  1  0
 36 80  1  1
 37 38  2  0
M  END
>  <i_m_ct_stereo_status>  (37) 
1

>  <s_m_source_file>  (37) 
/var/tmp/pbs.5076255.sched01/tmplremgrqo/0ygzoxw5b.sdf

>  <i_m_source_file_index>  (37) 
15

>  <i_lp_mmshare_version>  (37) 
48012

>  <i_f3d_flags>  (37) 
0

>  <s_epik_input>  (37) 
W0NIM11DKD1PKU9bQ0BIXShbQ0gyXTEpW0NASF0oTzIpW0NIMl1bQ0gyXVtDQF0oW0NIM10pKFtDSF0oQzEyMylDMz1PKUMoPUM0W0NIM10pW0NIMl1PW0NAQEhdKFtDQEBdNDUvW0NIXT1bQ0hdL0MoW0NIM10pKFtDSDNdKVtPSF0pW0NAQEhdNltDSDJdW0NAQEhdKFtPSF0pW0NIMl1bQ0gyXVtDQEBdNShbT0hdKVtDSDJdNg==

>  <s_epik_cmdline>  (37) 
J2VwaWtfcHl0aG9uJywgJy1waHQnLCAnMi4wJywgJy1waCcsICc3LjAnLCAnLXRuJywgJzgnLCAnLW1hJywgJzIwMCcsICctaW1hZScsICc8aW5maWxlLm1hZT4nLCAnLW9tYWUnLCAnPG91dGZpbGUubWFlPic=

>  <r_lp_tautomer_probability>  (37) 
1

>  <r_epik_Ionization_Penalty>  (37) 
8.27755e-07

>  <r_epik_Ionization_Penalty_Charging>  (37) 
0

>  <r_epik_Ionization_Penalty_Neutral>  (37) 
8.27755e-07

>  <r_epik_State_Penalty>  (37) 
-0

>  <r_epik_Charging_Adjusted_Penalty>  (37) 
0

>  <i_epik_Tot_Q>  (37) 
0

>  <i_epik_Tot_abs_Q>  (37) 
0

>  <s_epik_Chemistry_Notes>  (37) 
This compound has an ester and may undergo hydrolysis at high or low pH.

>  <s_lp_Force_Field>  (37) 
OPLS3e

>  <r_lp_Energy>  (37) 
84.872

>  <b_lp_Chiralities_Consistent>  (37) 
1

>  <s_lp_Variant>  (37) 
10:0-1

>  <s_i_glide_gridfile>  (37) 
pfpi4k_grid

>  <i_i_glide_lignum>  (37) 
15

>  <i_i_glide_rotatable_bonds>  (37) 
8

>  <r_i_docking_score>  (37) 
-3.00808

>  <r_i_glide_ligand_efficiency>  (37) 
-0.0791601

>  <r_i_glide_ligand_efficiency_sa>  (37) 
-0.266134

>  <r_i_glide_ligand_efficiency_ln>  (37) 
-0.648632

>  <r_i_glide_gscore>  (37) 
-3.00808

>  <r_i_glide_lipo>  (37) 
-0.477837

>  <r_i_glide_hbond>  (37) 
-0.249976

>  <r_i_glide_metal>  (37) 
-0

>  <r_i_glide_rewards>  (37) 
-0.040959

>  <r_i_glide_evdw>  (37) 
-32.8802

>  <r_i_glide_ecoul>  (37) 
-5.78663

>  <r_i_glide_erotb>  (37) 
0.29284

>  <r_i_glide_esite>  (37) 
-0.0201468

>  <r_i_glide_emodel>  (37) 
-43.1862

>  <r_i_glide_energy>  (37) 
-38.6669

>  <r_i_glide_einternal>  (37) 
5.50362

>  <r_i_glide_intrahb_reward>  (37) 
-0

>  <i_i_glide_confnum>  (37) 
3

>  <i_i_glide_posenum>  (37) 
6

>  <r_i_glide_eff_state_penalty>  (37) 
0

>  <ligand_id>  (37) 
10

>  <original_smiles>  (37) 
CC(=O)OC1CC23OC1CCC(C)(C1=C(C)C4(C=CC(C)(C)O)C(OC1)C1CC(O)CCC4(O)C1)C2C3=O

>  <smiles>  (37) 
[H]OC1([H])C([H])([H])C([H])([H])C2(O[H])C([H])([H])C([H])(C1([H])[H])C1([H])OC([H])([H])C(C3(C([H])([H])[H])C([H])([H])C([H])([H])C4([H])OC5(C(=O)C53[H])C([H])([H])C4([H])OC(=O)C([H])([H])[H])=C(C([H])([H])[H])C12C([H])=C([H])C(O[H])(C([H])([H])[H])C([H])([H])[H]

$$$$
10:0:2
     RDKit          3D

 80 85  0  0  1  0  0  0  0  0999 V2000
    5.4174   -0.8058    5.3895 C   0  0  0  0  0  0  0  0  0  0  0  0
    5.0037   -0.9626    3.9307 C   0  0  0  0  0  0  0  0  0  0  0  0
    5.2283   -0.0860    3.1003 O   0  0  0  0  0  0  0  0  0  0  0  0
    4.3999   -2.1381    3.6992 O   0  0  0  0  0  0  0  0  0  0  0  0
    3.8159   -2.4115    2.4242 C   0  0  2  0  0  0  0  0  0  0  0  0
    2.9762   -3.6668    2.4829 C   0  0  0  0  0  0  0  0  0  0  0  0
    3.3506   -4.3240    1.1608 C   0  0  1  0  0  0  0  0  0  0  0  0
    3.9801   -3.4041    0.3299 O   0  0  0  0  0  0  0  0  0  0  0  0
    4.7959   -2.6935    1.2452 C   0  0  2  0  0  0  0  0  0  0  0  0
    6.0520   -3.5663    1.5672 C   0  0  0  0  0  0  0  0  0  0  0  0
    5.8389   -4.8035    2.5160 C   0  0  0  0  0  0  0  0  0  0  0  0
    5.0821   -6.0734    1.9667 C   0  0  1  0  0  0  0  0  0  0  0  0
    6.2163   -6.9083    1.3165 C   0  0  0  0  0  0  0  0  0  0  0  0
    4.3907   -6.9820    3.0264 C   0  0  0  0  0  0  0  0  0  0  0  0
    3.7342   -8.1668    2.8039 C   0  0  0  0  0  0  0  0  0  0  0  0
    3.4565   -8.7680    1.4319 C   0  0  0  0  0  0  0  0  0  0  0  0
    3.1199   -8.9918    3.9722 C   0  0  2  0  0  0  0  0  0  0  0  0
    1.5842   -8.8164    3.9479 C   0  0  0  0  0  0  0  0  0  0  0  0
    0.8820   -7.8835    3.2452 C   0  0  0  0  0  0  0  0  0  0  0  0
   -0.6238   -7.7310    3.1710 C   0  0  0  0  0  0  0  0  0  0  0  0
   -1.3536   -9.0533    2.8807 C   0  0  0  0  0  0  0  0  0  0  0  0
   -1.1558   -7.0589    4.4365 C   0  0  0  0  0  0  0  0  0  0  0  0
   -0.9435   -6.8625    2.1037 O   0  0  0  0  0  0  0  0  0  0  0  0
    3.6056   -8.5306    5.3761 C   0  0  2  0  0  0  0  0  0  0  0  0
    4.7118   -7.6569    5.3282 O   0  0  0  0  0  0  0  0  0  0  0  0
    4.4724   -6.5457    4.4933 C   0  0  0  0  0  0  0  0  0  0  0  0
    3.9584   -9.7723    6.2362 C   0  0  2  0  0  0  0  0  0  0  0  0
    5.4533   -9.9674    6.6248 C   0  0  0  0  0  0  0  0  0  0  0  0
    6.4172  -10.5729    5.5758 C   0  0  1  0  0  0  0  0  0  0  0  0
    6.5268  -11.9752    5.7419 O   0  0  0  0  0  0  0  0  0  0  0  0
    6.1545  -10.2289    4.0995 C   0  0  0  0  0  0  0  0  0  0  0  0
    4.9257  -10.9023    3.4530 C   0  0  0  0  0  0  0  0  0  0  0  0
    3.5159  -10.5230    3.9942 C   0  0  2  0  0  0  0  0  0  0  0  0
    2.5999  -11.3007    3.2551 O   0  0  0  0  0  0  0  0  0  0  0  0
    3.3761  -10.9438    5.4587 C   0  0  0  0  0  0  0  0  0  0  0  0
    4.1496   -5.5795    0.8413 C   0  0  1  0  0  0  0  0  0  0  0  0
    2.6243   -5.5195    0.6756 C   0  0  0  0  0  0  0  0  0  0  0  0
    1.5539   -6.0210    0.3958 O   0  0  0  0  0  0  0  0  0  0  0  0
    6.0115   -1.6605    5.7066 H   0  0  0  0  0  0  0  0  0  0  0  0
    4.5276   -0.7516    6.0234 H   0  0  0  0  0  0  0  0  0  0  0  0
    6.0004    0.1024    5.5309 H   0  0  0  0  0  0  0  0  0  0  0  0
    3.1697   -1.5790    2.1470 H   0  0  0  0  0  0  0  0  0  0  0  0
    3.1929   -4.3212    3.3132 H   0  0  0  0  0  0  0  0  0  0  0  0
    1.9163   -3.4382    2.4929 H   0  0  0  0  0  0  0  0  0  0  0  0
    5.1102   -1.7573    0.7846 H   0  0  0  0  0  0  0  0  0  0  0  0
    6.5451   -3.8620    0.6345 H   0  0  0  0  0  0  0  0  0  0  0  0
    6.7486   -2.8881    2.0634 H   0  0  0  0  0  0  0  0  0  0  0  0
    6.8245   -5.0952    2.8831 H   0  0  0  0  0  0  0  0  0  0  0  0
    5.3699   -4.3737    3.3940 H   0  0  0  0  0  0  0  0  0  0  0  0
    6.8236   -6.3246    0.6240 H   0  0  0  0  0  0  0  0  0  0  0  0
    5.8371   -7.7625    0.7697 H   0  0  0  0  0  0  0  0  0  0  0  0
    6.9058   -7.2999    2.0662 H   0  0  0  0  0  0  0  0  0  0  0  0
    2.5854   -9.4267    1.4667 H   0  0  0  0  0  0  0  0  0  0  0  0
    4.2817   -9.3270    0.9847 H   0  0  0  0  0  0  0  0  0  0  0  0
    3.1904   -7.9884    0.7220 H   0  0  0  0  0  0  0  0  0  0  0  0
    1.0297   -9.5140    4.5572 H   0  0  0  0  0  0  0  0  0  0  0  0
    1.4260   -7.1680    2.6543 H   0  0  0  0  0  0  0  0  0  0  0  0
   -1.1448   -9.7895    3.6510 H   0  0  0  0  0  0  0  0  0  0  0  0
   -1.0498   -9.4869    1.9292 H   0  0  0  0  0  0  0  0  0  0  0  0
   -2.4344   -8.9147    2.8463 H   0  0  0  0  0  0  0  0  0  0  0  0
   -0.9280   -7.6749    5.3057 H   0  0  0  0  0  0  0  0  0  0  0  0
   -2.2374   -6.9300    4.3962 H   0  0  0  0  0  0  0  0  0  0  0  0
   -0.7039   -6.0772    4.5889 H   0  0  0  0  0  0  0  0  0  0  0  0
   -0.8313   -7.3604    1.3024 H   0  0  0  0  0  0  0  0  0  0  0  0
    2.7990   -7.9883    5.8899 H   0  0  0  0  0  0  0  0  0  0  0  0
    5.2950   -5.8816    4.7562 H   0  0  0  0  0  0  0  0  0  0  0  0
    3.5288   -6.0606    4.7640 H   0  0  0  0  0  0  0  0  0  0  0  0
    3.4182   -9.6833    7.1796 H   0  0  0  0  0  0  0  0  0  0  0  0
    5.8594   -9.0157    6.9668 H   0  0  0  0  0  0  0  0  0  0  0  0
    5.4927  -10.5924    7.5148 H   0  0  0  0  0  0  0  0  0  0  0  0
    7.4103  -10.1990    5.8183 H   0  0  0  0  0  0  0  0  0  0  0  0
    5.6641  -12.3658    5.6171 H   0  0  0  0  0  0  0  0  0  0  0  0
    6.1243   -9.1481    3.9650 H   0  0  0  0  0  0  0  0  0  0  0  0
    7.0272  -10.5507    3.5346 H   0  0  0  0  0  0  0  0  0  0  0  0
    4.9756  -10.7140    2.3896 H   0  0  0  0  0  0  0  0  0  0  0  0
    5.0507  -11.9821    3.5210 H   0  0  0  0  0  0  0  0  0  0  0  0
    2.9102  -12.2012    3.2436 H   0  0  0  0  0  0  0  0  0  0  0  0
    3.8371  -11.9031    5.6943 H   0  0  0  0  0  0  0  0  0  0  0  0
    2.3228  -11.0435    5.7184 H   0  0  0  0  0  0  0  0  0  0  0  0
    4.6956   -5.5532   -0.1051 H   0  0  0  0  0  0  0  0  0  0  0  0
  1  2  1  0
  1 39  1  0
  1 40  1  0
  1 41  1  0
  2  3  2  0
  2  4  1  0
  4  5  1  0
  5  9  1  0
  5  6  1  0
  5 42  1  6
  7  6  1  1
  6 43  1  0
  6 44  1  0
  7 36  1  0
  7 37  1  0
  7  8  1  0
  8  9  1  0
  9 10  1  0
  9 45  1  6
 10 11  1  0
 10 46  1  0
 10 47  1  0
 11 12  1  0
 11 48  1  0
 11 49  1  0
 12 13  1  6
 12 14  1  0
 12 36  1  0
 13 50  1  0
 13 51  1  0
 13 52  1  0
 14 26  1  0
 14 15  2  0
 15 16  1  0
 15 17  1  0
 16 53  1  0
 16 54  1  0
 16 55  1  0
 17 33  1  0
 17 18  1  1
 17 24  1  0
 18 19  2  3
 18 56  1  0
 19 20  1  0
 19 57  1  0
 20 21  1  0
 20 22  1  0
 20 23  1  0
 21 58  1  0
 21 59  1  0
 21 60  1  0
 22 61  1  0
 22 62  1  0
 22 63  1  0
 23 64  1  0
 24 25  1  0
 24 27  1  0
 24 65  1  1
 25 26  1  0
 26 66  1  0
 26 67  1  0
 27 35  1  0
 27 28  1  0
 27 68  1  1
 28 29  1  0
 28 69  1  0
 28 70  1  0
 29 30  1  0
 29 31  1  0
 29 71  1  1
 30 72  1  0
 31 32  1  0
 31 73  1  0
 31 74  1  0
 32 33  1  0
 32 75  1  0
 32 76  1  0
 33 34  1  6
 33 35  1  0
 34 77  1  0
 35 78  1  0
 35 79  1  0
 36 37  1  0
 36 80  1  6
 37 38  2  0
M  END
>  <i_m_ct_stereo_status>  (38) 
1

>  <s_m_source_file>  (38) 
/var/tmp/pbs.5076255.sched01/tmplremgrqo/0ygzoxw5b.sdf

>  <i_m_source_file_index>  (38) 
15

>  <i_lp_mmshare_version>  (38) 
48012

>  <i_f3d_flags>  (38) 
0

>  <s_epik_input>  (38) 
W0NIM11DKD1PKU9bQ0BIXShbQ0gyXTEpW0NASF0oTzIpW0NIMl1bQ0gyXVtDQF0oW0NIM10pKFtDSF0oQzEyMylDMz1PKUMoPUM0W0NIM10pW0NIMl1PW0NAQEhdKFtDQEBdNDUvW0NIXT1bQ0hdL0MoW0NIM10pKFtDSDNdKVtPSF0pW0NAQEhdNltDSDJdW0NAQEhdKFtPSF0pW0NIMl1bQ0gyXVtDQEBdNShbT0hdKVtDSDJdNg==

>  <s_epik_cmdline>  (38) 
J2VwaWtfcHl0aG9uJywgJy1waHQnLCAnMi4wJywgJy1waCcsICc3LjAnLCAnLXRuJywgJzgnLCAnLW1hJywgJzIwMCcsICctaW1hZScsICc8aW5maWxlLm1hZT4nLCAnLW9tYWUnLCAnPG91dGZpbGUubWFlPic=

>  <r_lp_tautomer_probability>  (38) 
1

>  <r_epik_Ionization_Penalty>  (38) 
8.27755e-07

>  <r_epik_Ionization_Penalty_Charging>  (38) 
0

>  <r_epik_Ionization_Penalty_Neutral>  (38) 
8.27755e-07

>  <r_epik_State_Penalty>  (38) 
-0

>  <r_epik_Charging_Adjusted_Penalty>  (38) 
0

>  <i_epik_Tot_Q>  (38) 
0

>  <i_epik_Tot_abs_Q>  (38) 
0

>  <s_epik_Chemistry_Notes>  (38) 
This compound has an ester and may undergo hydrolysis at high or low pH.

>  <s_lp_Force_Field>  (38) 
OPLS3e

>  <r_lp_Energy>  (38) 
84.872

>  <b_lp_Chiralities_Consistent>  (38) 
1

>  <s_lp_Variant>  (38) 
10:0-1

>  <s_i_glide_gridfile>  (38) 
pfpi4k_grid

>  <i_i_glide_lignum>  (38) 
15

>  <i_i_glide_rotatable_bonds>  (38) 
8

>  <r_i_docking_score>  (38) 
-2.923

>  <r_i_glide_ligand_efficiency>  (38) 
-0.076921

>  <r_i_glide_ligand_efficiency_sa>  (38) 
-0.258607

>  <r_i_glide_ligand_efficiency_ln>  (38) 
-0.630285

>  <r_i_glide_gscore>  (38) 
-2.923

>  <r_i_glide_lipo>  (38) 
-0.330179

>  <r_i_glide_hbond>  (38) 
-0.15436

>  <r_i_glide_metal>  (38) 
-0

>  <r_i_glide_rewards>  (38) 
-0.108409

>  <r_i_glide_evdw>  (38) 
-28.9878

>  <r_i_glide_ecoul>  (38) 
-7.58373

>  <r_i_glide_erotb>  (38) 
0.29284

>  <r_i_glide_esite>  (38) 
-0.0359423

>  <r_i_glide_emodel>  (38) 
-40.2188

>  <r_i_glide_energy>  (38) 
-36.5715

>  <r_i_glide_einternal>  (38) 
7.84725

>  <r_i_glide_intrahb_reward>  (38) 
-0

>  <i_i_glide_confnum>  (38) 
4

>  <i_i_glide_posenum>  (38) 
11

>  <r_i_glide_eff_state_penalty>  (38) 
0

>  <ligand_id>  (38) 
10

>  <original_smiles>  (38) 
CC(=O)OC1CC23OC1CCC(C)(C1=C(C)C4(C=CC(C)(C)O)C(OC1)C1CC(O)CCC4(O)C1)C2C3=O

>  <smiles>  (38) 
[H]OC1([H])C([H])([H])C([H])([H])C2(O[H])C([H])([H])C([H])(C1([H])[H])C1([H])OC([H])([H])C(C3(C([H])([H])[H])C([H])([H])C([H])([H])C4([H])OC5(C(=O)C53[H])C([H])([H])C4([H])OC(=O)C([H])([H])[H])=C(C([H])([H])[H])C12C([H])=C([H])C(O[H])(C([H])([H])[H])C([H])([H])[H]

$$$$
10:1:0
     RDKit          3D

 80 85  0  0  1  0  0  0  0  0999 V2000
    4.3398   -2.0936   -2.7416 C   0  0  0  0  0  0  0  0  0  0  0  0
    3.2673   -3.0248   -2.1862 C   0  0  0  0  0  0  0  0  0  0  0  0
    2.1521   -3.0596   -2.7048 O   0  0  0  0  0  0  0  0  0  0  0  0
    3.6267   -3.7742   -1.1132 O   0  0  0  0  0  0  0  0  0  0  0  0
    4.9589   -3.7209   -0.5833 C   0  0  2  0  0  0  0  0  0  0  0  0
    5.3672   -4.9337    0.2231 C   0  0  0  0  0  0  0  0  0  0  0  0
    6.0116   -4.3117    1.4340 C   0  0  1  0  0  0  0  0  0  0  0  0
    6.3648   -2.9912    1.1291 O   0  0  0  0  0  0  0  0  0  0  0  0
    5.2403   -2.5406    0.3852 C   0  0  2  0  0  0  0  0  0  0  0  0
    4.1029   -2.1395    1.3808 C   0  0  0  0  0  0  0  0  0  0  0  0
    3.2286   -3.2536    2.0396 C   0  0  0  0  0  0  0  0  0  0  0  0
    3.8791   -4.3158    3.0271 C   0  0  1  0  0  0  0  0  0  0  0  0
    3.6050   -3.7286    4.4589 C   0  0  0  0  0  0  0  0  0  0  0  0
    3.2383   -5.7869    2.9175 C   0  0  0  0  0  0  0  0  0  0  0  0
    3.3215   -6.7567    3.8736 C   0  0  0  0  0  0  0  0  0  0  0  0
    4.0751   -6.6359    5.2136 C   0  0  0  0  0  0  0  0  0  0  0  0
    2.6558   -8.1543    3.7228 C   0  0  2  0  0  0  0  0  0  0  0  0
    3.7833   -9.2296    3.8137 C   0  0  0  0  0  0  0  0  0  0  0  0
    4.8460   -9.6224    3.0340 C   0  0  0  0  0  0  0  0  0  0  0  0
    5.4198   -9.2004    1.6686 C   0  0  0  0  0  0  0  0  0  0  0  0
    4.4905   -8.4923    0.7196 C   0  0  0  0  0  0  0  0  0  0  0  0
    6.6436   -8.3424    1.8527 C   0  0  0  0  0  0  0  0  0  0  0  0
    5.8666  -10.2917    0.9536 O   0  0  0  0  0  0  0  0  0  0  0  0
    1.8249   -8.3238    2.4307 C   0  0  2  0  0  0  0  0  0  0  0  0
    1.3830   -7.1330    1.8136 O   0  0  0  0  0  0  0  0  0  0  0  0
    2.2753   -6.0551    1.6877 C   0  0  0  0  0  0  0  0  0  0  0  0
    0.6676   -9.2842    2.6538 C   0  0  2  0  0  0  0  0  0  0  0  0
   -0.6894   -8.7114    2.2318 C   0  0  0  0  0  0  0  0  0  0  0  0
   -1.3236   -7.7050    3.1955 C   0  0  1  0  0  0  0  0  0  0  0  0
   -2.1783   -8.3852    4.0721 O   0  0  0  0  0  0  0  0  0  0  0  0
   -0.3987   -6.7443    3.9773 C   0  0  0  0  0  0  0  0  0  0  0  0
    0.4972   -7.3456    5.0799 C   0  0  0  0  0  0  0  0  0  0  0  0
    1.5038   -8.4830    4.7489 C   0  0  2  0  0  0  0  0  0  0  0  0
    1.9822   -8.8684    6.0271 O   0  0  0  0  0  0  0  0  0  0  0  0
    0.7969   -9.6907    4.1085 C   0  0  0  0  0  0  0  0  0  0  0  0
    5.4067   -4.1401    2.8241 C   0  0  1  0  0  0  0  0  0  0  0  0
    6.6011   -5.0165    2.5887 C   0  0  0  0  0  0  0  0  0  0  0  0
    7.5079   -5.7458    3.0392 O   0  0  0  0  0  0  0  0  0  0  0  0
    4.5598   -1.3288   -1.9989 H   0  0  0  0  0  0  0  0  0  0  0  0
    4.0230   -1.5950   -3.6541 H   0  0  0  0  0  0  0  0  0  0  0  0
    5.2470   -2.6501   -2.9756 H   0  0  0  0  0  0  0  0  0  0  0  0
    5.6852   -3.7403   -1.3890 H   0  0  0  0  0  0  0  0  0  0  0  0
    4.5133   -5.4802    0.5594 H   0  0  0  0  0  0  0  0  0  0  0  0
    6.0212   -5.6221   -0.3111 H   0  0  0  0  0  0  0  0  0  0  0  0
    5.5427   -1.6596   -0.1732 H   0  0  0  0  0  0  0  0  0  0  0  0
    4.5327   -1.5012    2.1469 H   0  0  0  0  0  0  0  0  0  0  0  0
    3.4145   -1.5029    0.8259 H   0  0  0  0  0  0  0  0  0  0  0  0
    2.3861   -2.7657    2.5356 H   0  0  0  0  0  0  0  0  0  0  0  0
    2.7932   -3.6806    1.1564 H   0  0  0  0  0  0  0  0  0  0  0  0
    3.9240   -2.6881    4.5569 H   0  0  0  0  0  0  0  0  0  0  0  0
    4.2290   -4.1475    5.2357 H   0  0  0  0  0  0  0  0  0  0  0  0
    2.5586   -3.8357    4.7756 H   0  0  0  0  0  0  0  0  0  0  0  0
    3.4442   -6.1185    5.9421 H   0  0  0  0  0  0  0  0  0  0  0  0
    5.0233   -6.1266    5.0609 H   0  0  0  0  0  0  0  0  0  0  0  0
    4.3313   -7.5913    5.6640 H   0  0  0  0  0  0  0  0  0  0  0  0
    3.7528   -9.8139    4.7155 H   0  0  0  0  0  0  0  0  0  0  0  0
    5.4403  -10.4165    3.4695 H   0  0  0  0  0  0  0  0  0  0  0  0
    4.1413   -7.6953    1.3382 H   0  0  0  0  0  0  0  0  0  0  0  0
    3.7290   -9.1943    0.3749 H   0  0  0  0  0  0  0  0  0  0  0  0
    4.8936   -8.0363   -0.1868 H   0  0  0  0  0  0  0  0  0  0  0  0
    6.2014   -7.5633    2.4680 H   0  0  0  0  0  0  0  0  0  0  0  0
    7.0216   -7.9184    0.9161 H   0  0  0  0  0  0  0  0  0  0  0  0
    7.4555   -8.8151    2.4041 H   0  0  0  0  0  0  0  0  0  0  0  0
    5.1020  -10.8926    0.8131 H   0  0  0  0  0  0  0  0  0  0  0  0
    2.3582   -8.9742    1.7558 H   0  0  0  0  0  0  0  0  0  0  0  0
    1.5664   -5.2549    1.4878 H   0  0  0  0  0  0  0  0  0  0  0  0
    2.7369   -6.2318    0.7161 H   0  0  0  0  0  0  0  0  0  0  0  0
    0.8538  -10.1556    2.0154 H   0  0  0  0  0  0  0  0  0  0  0  0
   -0.5962   -8.2525    1.2464 H   0  0  0  0  0  0  0  0  0  0  0  0
   -1.3638   -9.5469    2.0510 H   0  0  0  0  0  0  0  0  0  0  0  0
   -1.9864   -7.0917    2.5896 H   0  0  0  0  0  0  0  0  0  0  0  0
   -1.8003   -9.2169    4.3442 H   0  0  0  0  0  0  0  0  0  0  0  0
    0.1763   -6.1136    3.3133 H   0  0  0  0  0  0  0  0  0  0  0  0
   -1.0369   -6.0220    4.4753 H   0  0  0  0  0  0  0  0  0  0  0  0
    1.0463   -6.5271    5.5404 H   0  0  0  0  0  0  0  0  0  0  0  0
   -0.1656   -7.7136    5.8597 H   0  0  0  0  0  0  0  0  0  0  0  0
    2.2723   -9.7666    5.9861 H   0  0  0  0  0  0  0  0  0  0  0  0
   -0.1661   -9.9465    4.5380 H   0  0  0  0  0  0  0  0  0  0  0  0
    1.4232  -10.5865    4.1536 H   0  0  0  0  0  0  0  0  0  0  0  0
    5.7238   -3.2805    3.4153 H   0  0  0  0  0  0  0  0  0  0  0  0
  1  2  1  0
  1 39  1  0
  1 40  1  0
  1 41  1  0
  2  3  2  0
  2  4  1  0
  4  5  1  0
  5  9  1  0
  5  6  1  0
  5 42  1  6
  7  6  1  6
  6 43  1  0
  6 44  1  0
  7 36  1  0
  7 37  1  0
  7  8  1  0
  8  9  1  0
  9 10  1  0
  9 45  1  6
 10 11  1  0
 10 46  1  0
 10 47  1  0
 11 12  1  0
 11 48  1  0
 11 49  1  0
 12 13  1  1
 12 14  1  0
 12 36  1  0
 13 50  1  0
 13 51  1  0
 13 52  1  0
 14 26  1  0
 14 15  2  0
 15 16  1  0
 15 17  1  0
 16 53  1  0
 16 54  1  0
 16 55  1  0
 17 33  1  0
 17 18  1  6
 17 24  1  0
 18 19  2  3
 18 56  1  0
 19 20  1  0
 19 57  1  0
 20 21  1  0
 20 22  1  0
 20 23  1  0
 21 58  1  0
 21 59  1  0
 21 60  1  0
 22 61  1  0
 22 62  1  0
 22 63  1  0
 23 64  1  0
 24 25  1  0
 24 27  1  0
 24 65  1  6
 25 26  1  0
 26 66  1  0
 26 67  1  0
 27 35  1  0
 27 28  1  0
 27 68  1  6
 28 29  1  0
 28 69  1  0
 28 70  1  0
 29 30  1  0
 29 31  1  0
 29 71  1  6
 30 72  1  0
 31 32  1  0
 31 73  1  0
 31 74  1  0
 32 33  1  0
 32 75  1  0
 32 76  1  0
 33 34  1  1
 33 35  1  0
 34 77  1  0
 35 78  1  0
 35 79  1  0
 36 37  1  0
 36 80  1  1
 37 38  2  0
M  END
>  <i_m_ct_stereo_status>  (39) 
1

>  <s_m_source_file>  (39) 
/var/tmp/pbs.5076255.sched01/tmplremgrqo/0ygzoxw5b.sdf

>  <i_m_source_file_index>  (39) 
16

>  <i_lp_mmshare_version>  (39) 
48012

>  <i_f3d_flags>  (39) 
0

>  <s_epik_input>  (39) 
W0NIM11DKD1PKU9bQ0BIXShbQ0gyXTEpW0NASF0oTzIpW0NIMl1bQ0gyXVtDQF0oW0NIM10pKFtDSF0oQzEyMylDMz1PKUMoPUM0W0NIM10pW0NIMl1PW0NAQEhdKFtDQEBdNDUvW0NIXT1bQ0hdL0MoW0NIM10pKFtDSDNdKVtPSF0pW0NAQEhdNltDSDJdW0NAQEhdKFtPSF0pW0NIMl1bQ0gyXVtDQEBdNShbT0hdKVtDSDJdNg==

>  <s_epik_cmdline>  (39) 
J2VwaWtfcHl0aG9uJywgJy1waHQnLCAnMi4wJywgJy1waCcsICc3LjAnLCAnLXRuJywgJzgnLCAnLW1hJywgJzIwMCcsICctaW1hZScsICc8aW5maWxlLm1hZT4nLCAnLW9tYWUnLCAnPG91dGZpbGUubWFlPic=

>  <r_lp_tautomer_probability>  (39) 
1

>  <r_epik_Ionization_Penalty>  (39) 
8.27755e-07

>  <r_epik_Ionization_Penalty_Charging>  (39) 
0

>  <r_epik_Ionization_Penalty_Neutral>  (39) 
8.27755e-07

>  <r_epik_State_Penalty>  (39) 
-0

>  <r_epik_Charging_Adjusted_Penalty>  (39) 
0

>  <i_epik_Tot_Q>  (39) 
0

>  <i_epik_Tot_abs_Q>  (39) 
0

>  <s_epik_Chemistry_Notes>  (39) 
This compound has an ester and may undergo hydrolysis at high or low pH.

>  <s_lp_Force_Field>  (39) 
OPLS3e

>  <r_lp_Energy>  (39) 
101.81

>  <b_lp_Chiralities_Consistent>  (39) 
1

>  <s_lp_Variant>  (39) 
10:0-2

>  <s_i_glide_gridfile>  (39) 
pfpi4k_grid

>  <i_i_glide_lignum>  (39) 
16

>  <i_i_glide_rotatable_bonds>  (39) 
8

>  <r_i_docking_score>  (39) 
-2.36521

>  <r_i_glide_ligand_efficiency>  (39) 
-0.0622423

>  <r_i_glide_ligand_efficiency_sa>  (39) 
-0.209257

>  <r_i_glide_ligand_efficiency_ln>  (39) 
-0.510008

>  <r_i_glide_gscore>  (39) 
-2.36521

>  <r_i_glide_lipo>  (39) 
-0.432273

>  <r_i_glide_hbond>  (39) 
-0.288134

>  <r_i_glide_metal>  (39) 
-0

>  <r_i_glide_rewards>  (39) 
-0.0288294

>  <r_i_glide_evdw>  (39) 
-34.7561

>  <r_i_glide_ecoul>  (39) 
-7.62097

>  <r_i_glide_erotb>  (39) 
0.29284

>  <r_i_glide_esite>  (39) 
-0.0215376

>  <r_i_glide_emodel>  (39) 
-39.0558

>  <r_i_glide_energy>  (39) 
-42.3771

>  <r_i_glide_einternal>  (39) 
12.6135

>  <r_i_glide_intrahb_reward>  (39) 
-0

>  <i_i_glide_confnum>  (39) 
3

>  <i_i_glide_posenum>  (39) 
10

>  <r_i_glide_eff_state_penalty>  (39) 
0

>  <ligand_id>  (39) 
10

>  <original_smiles>  (39) 
CC(=O)OC1CC23OC1CCC(C)(C1=C(C)C4(C=CC(C)(C)O)C(OC1)C1CC(O)CCC4(O)C1)C2C3=O

>  <smiles>  (39) 
[H]OC1([H])C([H])([H])C([H])([H])C2(O[H])C([H])([H])C([H])(C1([H])[H])C1([H])OC([H])([H])C(C3(C([H])([H])[H])C([H])([H])C([H])([H])C4([H])OC5(C(=O)C53[H])C([H])([H])C4([H])OC(=O)C([H])([H])[H])=C(C([H])([H])[H])C12C([H])=C([H])C(O[H])(C([H])([H])[H])C([H])([H])[H]

$$$$
10:1:1
     RDKit          3D

 80 85  0  0  1  0  0  0  0  0999 V2000
    3.4764   -2.8131   -2.4926 C   0  0  0  0  0  0  0  0  0  0  0  0
    2.6331   -3.4212   -1.3673 C   0  0  0  0  0  0  0  0  0  0  0  0
    1.4249   -3.5868   -1.5075 O   0  0  0  0  0  0  0  0  0  0  0  0
    3.3456   -3.8476   -0.2948 O   0  0  0  0  0  0  0  0  0  0  0  0
    4.7588   -4.0654   -0.3505 C   0  0  2  0  0  0  0  0  0  0  0  0
    5.0777   -5.4911   -0.0358 C   0  0  0  0  0  0  0  0  0  0  0  0
    6.2114   -5.3519    0.9181 C   0  0  1  0  0  0  0  0  0  0  0  0
    6.7990   -4.0700    0.7361 O   0  0  0  0  0  0  0  0  0  0  0  0
    5.6232   -3.2750    0.6624 C   0  0  2  0  0  0  0  0  0  0  0  0
    5.0476   -3.0641    2.1000 C   0  0  0  0  0  0  0  0  0  0  0  0
    4.2060   -4.1972    2.7966 C   0  0  0  0  0  0  0  0  0  0  0  0
    4.9064   -5.5750    3.2055 C   0  0  1  0  0  0  0  0  0  0  0  0
    5.3764   -5.3499    4.6787 C   0  0  0  0  0  0  0  0  0  0  0  0
    3.8764   -6.8201    3.1336 C   0  0  0  0  0  0  0  0  0  0  0  0
    3.8360   -7.8738    4.0238 C   0  0  0  0  0  0  0  0  0  0  0  0
    4.6712   -8.0711    5.3048 C   0  0  0  0  0  0  0  0  0  0  0  0
    2.9253   -9.1092    3.7923 C   0  0  2  0  0  0  0  0  0  0  0  0
    3.7742  -10.4240    3.7735 C   0  0  0  0  0  0  0  0  0  0  0  0
    4.9210  -10.8306    3.1823 C   0  0  0  0  0  0  0  0  0  0  0  0
    5.8981  -10.1805    2.2022 C   0  0  0  0  0  0  0  0  0  0  0  0
    5.2357   -9.1588    1.2787 C   0  0  0  0  0  0  0  0  0  0  0  0
    7.0988   -9.6324    2.9914 C   0  0  0  0  0  0  0  0  0  0  0  0
    6.4074  -11.1372    1.2940 O   0  0  0  0  0  0  0  0  0  0  0  0
    2.0941   -9.0880    2.4752 C   0  0  2  0  0  0  0  0  0  0  0  0
    1.8421   -7.7724    2.0469 O   0  0  0  0  0  0  0  0  0  0  0  0
    2.9216   -6.9330    1.9045 C   0  0  0  0  0  0  0  0  0  0  0  0
    0.7192   -9.7335    2.7681 C   0  0  2  0  0  0  0  0  0  0  0  0
   -0.5114   -8.8320    2.4983 C   0  0  0  0  0  0  0  0  0  0  0  0
   -0.8678   -7.7599    3.5630 C   0  0  1  0  0  0  0  0  0  0  0  0
   -1.7977   -8.2668    4.4685 O   0  0  0  0  0  0  0  0  0  0  0  0
    0.2832   -7.0615    4.3257 C   0  0  0  0  0  0  0  0  0  0  0  0
    1.0822   -7.9189    5.3324 C   0  0  0  0  0  0  0  0  0  0  0  0
    1.7832   -9.2366    4.8686 C   0  0  2  0  0  0  0  0  0  0  0  0
    2.2512   -9.7910    6.0868 O   0  0  0  0  0  0  0  0  0  0  0  0
    0.7978  -10.2078    4.2115 C   0  0  0  0  0  0  0  0  0  0  0  0
    6.2673   -5.6011    2.4233 C   0  0  1  0  0  0  0  0  0  0  0  0
    7.0063   -6.4698    1.4264 C   0  0  0  0  0  0  0  0  0  0  0  0
    7.7693   -7.3743    1.1445 O   0  0  0  0  0  0  0  0  0  0  0  0
    3.9289   -1.8954   -2.1089 H   0  0  0  0  0  0  0  0  0  0  0  0
    2.8666   -2.6094   -3.3615 H   0  0  0  0  0  0  0  0  0  0  0  0
    4.2538   -3.4955   -2.8353 H   0  0  0  0  0  0  0  0  0  0  0  0
    5.1981   -3.9467   -1.3228 H   0  0  0  0  0  0  0  0  0  0  0  0
    4.2396   -5.8085    0.4389 H   0  0  0  0  0  0  0  0  0  0  0  0
    5.2937   -6.1226   -0.8943 H   0  0  0  0  0  0  0  0  0  0  0  0
    5.8664   -2.3269    0.2047 H   0  0  0  0  0  0  0  0  0  0  0  0
    5.8672   -2.7630    2.7390 H   0  0  0  0  0  0  0  0  0  0  0  0
    4.3853   -2.2115    2.0291 H   0  0  0  0  0  0  0  0  0  0  0  0
    3.7747   -3.7571    3.6924 H   0  0  0  0  0  0  0  0  0  0  0  0
    3.3605   -4.3436    2.1563 H   0  0  0  0  0  0  0  0  0  0  0  0
    5.9059   -4.4184    4.8496 H   0  0  0  0  0  0  0  0  0  0  0  0
    6.1426   -6.0527    4.9238 H   0  0  0  0  0  0  0  0  0  0  0  0
    4.5350   -5.4060    5.3731 H   0  0  0  0  0  0  0  0  0  0  0  0
    4.2947   -7.4202    6.0981 H   0  0  0  0  0  0  0  0  0  0  0  0
    5.7239   -7.9142    5.1250 H   0  0  0  0  0  0  0  0  0  0  0  0
    4.6853   -9.0698    5.6814 H   0  0  0  0  0  0  0  0  0  0  0  0
    3.3874  -11.1890    4.4116 H   0  0  0  0  0  0  0  0  0  0  0  0
    5.2597  -11.8199    3.4330 H   0  0  0  0  0  0  0  0  0  0  0  0
    4.9795   -8.3970    1.9212 H   0  0  0  0  0  0  0  0  0  0  0  0
    4.3681   -9.5419    0.7258 H   0  0  0  0  0  0  0  0  0  0  0  0
    5.8817   -8.6822    0.5358 H   0  0  0  0  0  0  0  0  0  0  0  0
    6.8374   -8.8123    3.6571 H   0  0  0  0  0  0  0  0  0  0  0  0
    7.8052   -9.2476    2.3161 H   0  0  0  0  0  0  0  0  0  0  0  0
    7.6466  -10.4020    3.5280 H   0  0  0  0  0  0  0  0  0  0  0  0
    5.6426  -11.5382    0.8763 H   0  0  0  0  0  0  0  0  0  0  0  0
    2.5782   -9.6506    1.6833 H   0  0  0  0  0  0  0  0  0  0  0  0
    2.4544   -6.0065    1.6292 H   0  0  0  0  0  0  0  0  0  0  0  0
    3.4082   -7.3689    1.0450 H   0  0  0  0  0  0  0  0  0  0  0  0
    0.6224  -10.5924    2.1099 H   0  0  0  0  0  0  0  0  0  0  0  0
   -0.4054   -8.3373    1.5307 H   0  0  0  0  0  0  0  0  0  0  0  0
   -1.3787   -9.4784    2.3578 H   0  0  0  0  0  0  0  0  0  0  0  0
   -1.4216   -6.9828    3.0353 H   0  0  0  0  0  0  0  0  0  0  0  0
   -1.6424   -9.1920    4.6162 H   0  0  0  0  0  0  0  0  0  0  0  0
    0.9438   -6.5445    3.6449 H   0  0  0  0  0  0  0  0  0  0  0  0
   -0.1601   -6.2427    4.8907 H   0  0  0  0  0  0  0  0  0  0  0  0
    1.8206   -7.2639    5.7972 H   0  0  0  0  0  0  0  0  0  0  0  0
    0.3969   -8.1663    6.1461 H   0  0  0  0  0  0  0  0  0  0  0  0
    1.8519  -10.6401    6.2358 H   0  0  0  0  0  0  0  0  0  0  0  0
   -0.1639  -10.2532    4.7099 H   0  0  0  0  0  0  0  0  0  0  0  0
    1.1897  -11.2240    4.2213 H   0  0  0  0  0  0  0  0  0  0  0  0
    6.9877   -5.0339    2.9928 H   0  0  0  0  0  0  0  0  0  0  0  0
  1  2  1  0
  1 39  1  0
  1 40  1  0
  1 41  1  0
  2  3  2  0
  2  4  1  0
  4  5  1  0
  5  9  1  0
  5  6  1  0
  5 42  1  6
  7  6  1  6
  6 43  1  0
  6 44  1  0
  7 36  1  0
  7 37  1  0
  7  8  1  0
  8  9  1  0
  9 10  1  0
  9 45  1  6
 10 11  1  0
 10 46  1  0
 10 47  1  0
 11 12  1  0
 11 48  1  0
 11 49  1  0
 12 13  1  1
 12 14  1  0
 12 36  1  0
 13 50  1  0
 13 51  1  0
 13 52  1  0
 14 26  1  0
 14 15  2  0
 15 16  1  0
 15 17  1  0
 16 53  1  0
 16 54  1  0
 16 55  1  0
 17 33  1  0
 17 18  1  6
 17 24  1  0
 18 19  2  3
 18 56  1  0
 19 20  1  0
 19 57  1  0
 20 21  1  0
 20 22  1  0
 20 23  1  0
 21 58  1  0
 21 59  1  0
 21 60  1  0
 22 61  1  0
 22 62  1  0
 22 63  1  0
 23 64  1  0
 24 25  1  0
 24 27  1  0
 24 65  1  6
 25 26  1  0
 26 66  1  0
 26 67  1  0
 27 35  1  0
 27 28  1  0
 27 68  1  6
 28 29  1  0
 28 69  1  0
 28 70  1  0
 29 30  1  0
 29 31  1  0
 29 71  1  6
 30 72  1  0
 31 32  1  0
 31 73  1  0
 31 74  1  0
 32 33  1  0
 32 75  1  0
 32 76  1  0
 33 34  1  1
 33 35  1  0
 34 77  1  0
 35 78  1  0
 35 79  1  0
 36 37  1  0
 36 80  1  1
 37 38  2  0
M  END
>  <i_m_ct_stereo_status>  (40) 
1

>  <s_m_source_file>  (40) 
/var/tmp/pbs.5076255.sched01/tmplremgrqo/0ygzoxw5b.sdf

>  <i_m_source_file_index>  (40) 
16

>  <i_lp_mmshare_version>  (40) 
48012

>  <i_f3d_flags>  (40) 
0

>  <s_epik_input>  (40) 
W0NIM11DKD1PKU9bQ0BIXShbQ0gyXTEpW0NASF0oTzIpW0NIMl1bQ0gyXVtDQF0oW0NIM10pKFtDSF0oQzEyMylDMz1PKUMoPUM0W0NIM10pW0NIMl1PW0NAQEhdKFtDQEBdNDUvW0NIXT1bQ0hdL0MoW0NIM10pKFtDSDNdKVtPSF0pW0NAQEhdNltDSDJdW0NAQEhdKFtPSF0pW0NIMl1bQ0gyXVtDQEBdNShbT0hdKVtDSDJdNg==

>  <s_epik_cmdline>  (40) 
J2VwaWtfcHl0aG9uJywgJy1waHQnLCAnMi4wJywgJy1waCcsICc3LjAnLCAnLXRuJywgJzgnLCAnLW1hJywgJzIwMCcsICctaW1hZScsICc8aW5maWxlLm1hZT4nLCAnLW9tYWUnLCAnPG91dGZpbGUubWFlPic=

>  <r_lp_tautomer_probability>  (40) 
1

>  <r_epik_Ionization_Penalty>  (40) 
8.27755e-07

>  <r_epik_Ionization_Penalty_Charging>  (40) 
0

>  <r_epik_Ionization_Penalty_Neutral>  (40) 
8.27755e-07

>  <r_epik_State_Penalty>  (40) 
-0

>  <r_epik_Charging_Adjusted_Penalty>  (40) 
0

>  <i_epik_Tot_Q>  (40) 
0

>  <i_epik_Tot_abs_Q>  (40) 
0

>  <s_epik_Chemistry_Notes>  (40) 
This compound has an ester and may undergo hydrolysis at high or low pH.

>  <s_lp_Force_Field>  (40) 
OPLS3e

>  <r_lp_Energy>  (40) 
101.81

>  <b_lp_Chiralities_Consistent>  (40) 
1

>  <s_lp_Variant>  (40) 
10:0-2

>  <s_i_glide_gridfile>  (40) 
pfpi4k_grid

>  <i_i_glide_lignum>  (40) 
16

>  <i_i_glide_rotatable_bonds>  (40) 
8

>  <r_i_docking_score>  (40) 
-2.25466

>  <r_i_glide_ligand_efficiency>  (40) 
-0.059333

>  <r_i_glide_ligand_efficiency_sa>  (40) 
-0.199476

>  <r_i_glide_ligand_efficiency_ln>  (40) 
-0.48617

>  <r_i_glide_gscore>  (40) 
-2.25466

>  <r_i_glide_lipo>  (40) 
-0.430544

>  <r_i_glide_hbond>  (40) 
-0.444493

>  <r_i_glide_metal>  (40) 
-0

>  <r_i_glide_rewards>  (40) 
-0.231002

>  <r_i_glide_evdw>  (40) 
-34.5887

>  <r_i_glide_ecoul>  (40) 
-10.5062

>  <r_i_glide_erotb>  (40) 
0.29284

>  <r_i_glide_esite>  (40) 
0

>  <r_i_glide_emodel>  (40) 
-39.2117

>  <r_i_glide_energy>  (40) 
-45.095

>  <r_i_glide_einternal>  (40) 
15.7332

>  <r_i_glide_intrahb_reward>  (40) 
-0

>  <i_i_glide_confnum>  (40) 
3

>  <i_i_glide_posenum>  (40) 
18

>  <r_i_glide_eff_state_penalty>  (40) 
0

>  <ligand_id>  (40) 
10

>  <original_smiles>  (40) 
CC(=O)OC1CC23OC1CCC(C)(C1=C(C)C4(C=CC(C)(C)O)C(OC1)C1CC(O)CCC4(O)C1)C2C3=O

>  <smiles>  (40) 
[H]OC1([H])C([H])([H])C([H])([H])C2(O[H])C([H])([H])C([H])(C1([H])[H])C1([H])OC([H])([H])C(C3(C([H])([H])[H])C([H])([H])C([H])([H])C4([H])OC5(C(=O)C53[H])C([H])([H])C4([H])OC(=O)C([H])([H])[H])=C(C([H])([H])[H])C12C([H])=C([H])C(O[H])(C([H])([H])[H])C([H])([H])[H]

$$$$
10:2:0
     RDKit          3D

 80 85  0  0  1  0  0  0  0  0999 V2000
   -1.6408    1.1331    6.2244 C   0  0  0  0  0  0  0  0  0  0  0  0
   -1.2713   -0.1634    5.5024 C   0  0  0  0  0  0  0  0  0  0  0  0
   -2.1503   -1.0028    5.2682 O   0  0  0  0  0  0  0  0  0  0  0  0
    0.0248   -0.3065    5.1568 O   0  0  0  0  0  0  0  0  0  0  0  0
    1.0775    0.5012    5.6945 C   0  0  2  0  0  0  0  0  0  0  0  0
    2.2053    0.7479    4.7007 C   0  0  0  0  0  0  0  0  0  0  0  0
    3.3081   -0.0732    5.2843 C   0  0  1  0  0  0  0  0  0  0  0  0
    3.1622    0.0054    6.6855 O   0  0  0  0  0  0  0  0  0  0  0  0
    1.7762   -0.1804    6.9041 C   0  0  2  0  0  0  0  0  0  0  0  0
    1.5625   -1.6907    7.2009 C   0  0  0  0  0  0  0  0  0  0  0  0
    1.9740   -2.7236    6.1079 C   0  0  0  0  0  0  0  0  0  0  0  0
    3.4428   -2.7067    5.5218 C   0  0  1  0  0  0  0  0  0  0  0  0
    4.4290   -2.6713    6.7456 C   0  0  0  0  0  0  0  0  0  0  0  0
    3.6750   -3.9921    4.6477 C   0  0  0  0  0  0  0  0  0  0  0  0
    2.9438   -4.4094    3.5516 C   0  0  0  0  0  0  0  0  0  0  0  0
    1.8309   -3.5829    2.8926 C   0  0  0  0  0  0  0  0  0  0  0  0
    3.1486   -5.8311    2.9174 C   0  0  2  0  0  0  0  0  0  0  0  0
    1.8005   -6.5767    3.0681 C   0  0  0  0  0  0  0  0  0  0  0  0
    1.5282   -7.7593    3.6842 C   0  0  0  0  0  0  0  0  0  0  0  0
    0.1588   -8.4366    3.8102 C   0  0  0  0  0  0  0  0  0  0  0  0
   -1.0200   -7.6067    3.2732 C   0  0  0  0  0  0  0  0  0  0  0  0
    0.1937   -9.8206    3.1451 C   0  0  0  0  0  0  0  0  0  0  0  0
   -0.1153   -8.6620    5.1826 O   0  0  0  0  0  0  0  0  0  0  0  0
    4.3242   -6.6313    3.5548 C   0  0  2  0  0  0  0  0  0  0  0  0
    5.2911   -5.7487    4.0710 O   0  0  0  0  0  0  0  0  0  0  0  0
    4.8072   -4.9229    5.1087 C   0  0  0  0  0  0  0  0  0  0  0  0
    4.9755   -7.5094    2.4569 C   0  0  2  0  0  0  0  0  0  0  0  0
    6.4823   -7.2953    2.1301 C   0  0  0  0  0  0  0  0  0  0  0  0
    6.9312   -5.8927    1.6440 C   0  0  1  0  0  0  0  0  0  0  0  0
    8.2215   -6.0291    1.0889 O   0  0  0  0  0  0  0  0  0  0  0  0
    6.0467   -5.2348    0.5593 C   0  0  0  0  0  0  0  0  0  0  0  0
    4.6676   -4.7526    1.0631 C   0  0  0  0  0  0  0  0  0  0  0  0
    3.5974   -5.8454    1.4042 C   0  0  2  0  0  0  0  0  0  0  0  0
    2.5272   -5.7090    0.4893 O   0  0  0  0  0  0  0  0  0  0  0  0
    4.1114   -7.2776    1.2240 C   0  0  0  0  0  0  0  0  0  0  0  0
    3.5968   -1.4309    4.6717 C   0  0  2  0  0  0  0  0  0  0  0  0
    4.6887   -0.3459    4.7846 C   0  0  0  0  0  0  0  0  0  0  0  0
    5.8256    0.0354    4.5594 O   0  0  0  0  0  0  0  0  0  0  0  0
   -1.4118    1.9905    5.5842 H   0  0  0  0  0  0  0  0  0  0  0  0
   -1.0811    1.2314    7.1602 H   0  0  0  0  0  0  0  0  0  0  0  0
   -2.7061    1.1874    6.4726 H   0  0  0  0  0  0  0  0  0  0  0  0
    0.7452    1.4915    5.9653 H   0  0  0  0  0  0  0  0  0  0  0  0
    1.9357    0.4906    3.6601 H   0  0  0  0  0  0  0  0  0  0  0  0
    2.4685    1.8085    4.7326 H   0  0  0  0  0  0  0  0  0  0  0  0
    1.5077    0.3867    7.8080 H   0  0  0  0  0  0  0  0  0  0  0  0
    2.0917   -1.9127    8.1208 H   0  0  0  0  0  0  0  0  0  0  0  0
    0.5060   -1.8259    7.4438 H   0  0  0  0  0  0  0  0  0  0  0  0
    1.7944   -3.7263    6.5081 H   0  0  0  0  0  0  0  0  0  0  0  0
    1.2476   -2.6174    5.3010 H   0  0  0  0  0  0  0  0  0  0  0  0
    4.2778   -1.8482    7.4417 H   0  0  0  0  0  0  0  0  0  0  0  0
    5.4494   -2.6345    6.3958 H   0  0  0  0  0  0  0  0  0  0  0  0
    4.3121   -3.5594    7.3591 H   0  0  0  0  0  0  0  0  0  0  0  0
    1.6928   -3.9634    1.8713 H   0  0  0  0  0  0  0  0  0  0  0  0
    1.9943   -2.5414    2.7591 H   0  0  0  0  0  0  0  0  0  0  0  0
    0.8628   -3.7524    3.3816 H   0  0  0  0  0  0  0  0  0  0  0  0
    0.9726   -6.0637    2.6034 H   0  0  0  0  0  0  0  0  0  0  0  0
    2.3152   -8.3367    4.1242 H   0  0  0  0  0  0  0  0  0  0  0  0
   -0.9227   -7.4204    2.2081 H   0  0  0  0  0  0  0  0  0  0  0  0
   -1.0972   -6.6519    3.7954 H   0  0  0  0  0  0  0  0  0  0  0  0
   -1.9636   -8.1350    3.4274 H   0  0  0  0  0  0  0  0  0  0  0  0
    0.4182   -9.7476    2.0837 H   0  0  0  0  0  0  0  0  0  0  0  0
   -0.7782  -10.3007    3.2417 H   0  0  0  0  0  0  0  0  0  0  0  0
    0.9354  -10.4748    3.6010 H   0  0  0  0  0  0  0  0  0  0  0  0
   -0.7183   -9.4015    5.2574 H   0  0  0  0  0  0  0  0  0  0  0  0
    4.0281   -7.2497    4.3993 H   0  0  0  0  0  0  0  0  0  0  0  0
    5.6951   -4.3683    5.3972 H   0  0  0  0  0  0  0  0  0  0  0  0
    4.4869   -5.5463    5.9556 H   0  0  0  0  0  0  0  0  0  0  0  0
    4.8694   -8.5586    2.7480 H   0  0  0  0  0  0  0  0  0  0  0  0
    7.0681   -7.5505    3.0121 H   0  0  0  0  0  0  0  0  0  0  0  0
    6.7626   -8.0277    1.3716 H   0  0  0  0  0  0  0  0  0  0  0  0
    7.0240   -5.2120    2.4909 H   0  0  0  0  0  0  0  0  0  0  0  0
    8.7550   -6.5616    1.6715 H   0  0  0  0  0  0  0  0  0  0  0  0
    6.5746   -4.3527    0.1992 H   0  0  0  0  0  0  0  0  0  0  0  0
    5.9420   -5.8700   -0.3150 H   0  0  0  0  0  0  0  0  0  0  0  0
    4.8636   -4.0989    1.9113 H   0  0  0  0  0  0  0  0  0  0  0  0
    4.2620   -4.0853    0.3017 H   0  0  0  0  0  0  0  0  0  0  0  0
    2.8853   -5.7536   -0.3971 H   0  0  0  0  0  0  0  0  0  0  0  0
    4.6195   -7.4813    0.2748 H   0  0  0  0  0  0  0  0  0  0  0  0
    3.2753   -7.9777    1.2582 H   0  0  0  0  0  0  0  0  0  0  0  0
    3.2145   -1.5540    3.6709 H   0  0  0  0  0  0  0  0  0  0  0  0
  1  2  1  0
  1 39  1  0
  1 40  1  0
  1 41  1  0
  2  3  2  0
  2  4  1  0
  4  5  1  0
  5  9  1  0
  5  6  1  0
  5 42  1  1
  7  6  1  6
  6 43  1  0
  6 44  1  0
  7 36  1  0
  7 37  1  0
  7  8  1  0
  8  9  1  0
  9 10  1  0
  9 45  1  1
 10 11  1  0
 10 46  1  0
 10 47  1  0
 11 12  1  0
 11 48  1  0
 11 49  1  0
 12 13  1  1
 12 14  1  0
 12 36  1  0
 13 50  1  0
 13 51  1  0
 13 52  1  0
 14 26  1  0
 14 15  2  0
 15 16  1  0
 15 17  1  0
 16 53  1  0
 16 54  1  0
 16 55  1  0
 17 33  1  0
 17 18  1  6
 17 24  1  0
 18 19  2  3
 18 56  1  0
 19 20  1  0
 19 57  1  0
 20 21  1  0
 20 22  1  0
 20 23  1  0
 21 58  1  0
 21 59  1  0
 21 60  1  0
 22 61  1  0
 22 62  1  0
 22 63  1  0
 23 64  1  0
 24 25  1  0
 24 27  1  0
 24 65  1  1
 25 26  1  0
 26 66  1  0
 26 67  1  0
 27 35  1  0
 27 28  1  0
 27 68  1  1
 28 29  1  0
 28 69  1  0
 28 70  1  0
 29 30  1  0
 29 31  1  0
 29 71  1  1
 30 72  1  0
 31 32  1  0
 31 73  1  0
 31 74  1  0
 32 33  1  0
 32 75  1  0
 32 76  1  0
 33 34  1  6
 33 35  1  0
 34 77  1  0
 35 78  1  0
 35 79  1  0
 36 37  1  0
 36 80  1  6
 37 38  2  0
M  END
>  <i_m_ct_stereo_status>  (41) 
1

>  <s_m_source_file>  (41) 
/var/tmp/pbs.5076255.sched01/tmplremgrqo/0ygzoxw5b.sdf

>  <i_m_source_file_index>  (41) 
17

>  <i_lp_mmshare_version>  (41) 
48012

>  <i_f3d_flags>  (41) 
0

>  <s_epik_input>  (41) 
W0NIM11DKD1PKU9bQ0BIXShbQ0gyXTEpW0NASF0oTzIpW0NIMl1bQ0gyXVtDQF0oW0NIM10pKFtDSF0oQzEyMylDMz1PKUMoPUM0W0NIM10pW0NIMl1PW0NAQEhdKFtDQEBdNDUvW0NIXT1bQ0hdL0MoW0NIM10pKFtDSDNdKVtPSF0pW0NAQEhdNltDSDJdW0NAQEhdKFtPSF0pW0NIMl1bQ0gyXVtDQEBdNShbT0hdKVtDSDJdNg==

>  <s_epik_cmdline>  (41) 
J2VwaWtfcHl0aG9uJywgJy1waHQnLCAnMi4wJywgJy1waCcsICc3LjAnLCAnLXRuJywgJzgnLCAnLW1hJywgJzIwMCcsICctaW1hZScsICc8aW5maWxlLm1hZT4nLCAnLW9tYWUnLCAnPG91dGZpbGUubWFlPic=

>  <r_lp_tautomer_probability>  (41) 
1

>  <r_epik_Ionization_Penalty>  (41) 
8.27755e-07

>  <r_epik_Ionization_Penalty_Charging>  (41) 
0

>  <r_epik_Ionization_Penalty_Neutral>  (41) 
8.27755e-07

>  <r_epik_State_Penalty>  (41) 
-0

>  <r_epik_Charging_Adjusted_Penalty>  (41) 
0

>  <i_epik_Tot_Q>  (41) 
0

>  <i_epik_Tot_abs_Q>  (41) 
0

>  <s_epik_Chemistry_Notes>  (41) 
This compound has an ester and may undergo hydrolysis at high or low pH.

>  <s_lp_Force_Field>  (41) 
OPLS3e

>  <r_lp_Energy>  (41) 
79.1685

>  <b_lp_Chiralities_Consistent>  (41) 
1

>  <s_lp_Variant>  (41) 
10:0-3

>  <s_i_glide_gridfile>  (41) 
pfpi4k_grid

>  <i_i_glide_lignum>  (41) 
17

>  <i_i_glide_rotatable_bonds>  (41) 
8

>  <r_i_docking_score>  (41) 
-2.97668

>  <r_i_glide_ligand_efficiency>  (41) 
-0.0783338

>  <r_i_glide_ligand_efficiency_sa>  (41) 
-0.263356

>  <r_i_glide_ligand_efficiency_ln>  (41) 
-0.64186

>  <r_i_glide_gscore>  (41) 
-2.97668

>  <r_i_glide_lipo>  (41) 
-0.420464

>  <r_i_glide_hbond>  (41) 
-0.258832

>  <r_i_glide_metal>  (41) 
-0

>  <r_i_glide_rewards>  (41) 
-0.0519729

>  <r_i_glide_evdw>  (41) 
-32.0666

>  <r_i_glide_ecoul>  (41) 
-5.9107

>  <r_i_glide_erotb>  (41) 
0.29284

>  <r_i_glide_esite>  (41) 
-0.0483165

>  <r_i_glide_emodel>  (41) 
-39.5315

>  <r_i_glide_energy>  (41) 
-37.9773

>  <r_i_glide_einternal>  (41) 
11.0367

>  <r_i_glide_intrahb_reward>  (41) 
-0

>  <i_i_glide_confnum>  (41) 
4

>  <i_i_glide_posenum>  (41) 
1

>  <r_i_glide_eff_state_penalty>  (41) 
0

>  <ligand_id>  (41) 
10

>  <original_smiles>  (41) 
CC(=O)OC1CC23OC1CCC(C)(C1=C(C)C4(C=CC(C)(C)O)C(OC1)C1CC(O)CCC4(O)C1)C2C3=O

>  <smiles>  (41) 
[H]OC1([H])C([H])([H])C([H])([H])C2(O[H])C([H])([H])C([H])(C1([H])[H])C1([H])OC([H])([H])C(C3(C([H])([H])[H])C([H])([H])C([H])([H])C4([H])OC5(C(=O)C53[H])C([H])([H])C4([H])OC(=O)C([H])([H])[H])=C(C([H])([H])[H])C12C([H])=C([H])C(O[H])(C([H])([H])[H])C([H])([H])[H]

$$$$
10:2:1
     RDKit          3D

 80 85  0  0  1  0  0  0  0  0999 V2000
    0.7695    1.0323    2.0793 C   0  0  0  0  0  0  0  0  0  0  0  0
    1.2230    1.4878    3.4568 C   0  0  0  0  0  0  0  0  0  0  0  0
    0.5534    2.2760    4.1317 O   0  0  0  0  0  0  0  0  0  0  0  0
    2.3762    0.9136    3.8419 O   0  0  0  0  0  0  0  0  0  0  0  0
    2.9495    1.2002    5.1168 C   0  0  2  0  0  0  0  0  0  0  0  0
    4.4452    0.8794    5.1175 C   0  0  0  0  0  0  0  0  0  0  0  0
    4.4736   -0.3656    5.9505 C   0  0  1  0  0  0  0  0  0  0  0  0
    3.5184   -0.1801    6.9661 O   0  0  0  0  0  0  0  0  0  0  0  0
    2.3824    0.3447    6.3049 C   0  0  2  0  0  0  0  0  0  0  0  0
    1.4984   -0.8932    6.0339 C   0  0  0  0  0  0  0  0  0  0  0  0
    2.1061   -2.0154    5.1567 C   0  0  0  0  0  0  0  0  0  0  0  0
    3.4348   -2.7600    5.5332 C   0  0  1  0  0  0  0  0  0  0  0  0
    3.3457   -3.2207    7.0215 C   0  0  0  0  0  0  0  0  0  0  0  0
    3.6779   -4.0413    4.6393 C   0  0  0  0  0  0  0  0  0  0  0  0
    2.9985   -4.4519    3.5238 C   0  0  0  0  0  0  0  0  0  0  0  0
    1.9617   -3.6113    2.7840 C   0  0  0  0  0  0  0  0  0  0  0  0
    3.2106   -5.8606    2.8843 C   0  0  2  0  0  0  0  0  0  0  0  0
    1.8500   -6.6004    3.0152 C   0  0  0  0  0  0  0  0  0  0  0  0
    1.5467   -7.7580    3.6455 C   0  0  0  0  0  0  0  0  0  0  0  0
    0.1750   -8.4326    3.7528 C   0  0  0  0  0  0  0  0  0  0  0  0
   -0.9882   -7.6221    3.1533 C   0  0  0  0  0  0  0  0  0  0  0  0
    0.2249   -9.8391    3.1373 C   0  0  0  0  0  0  0  0  0  0  0  0
   -0.1367   -8.6130    5.1244 O   0  0  0  0  0  0  0  0  0  0  0  0
    4.3911   -6.6444    3.5507 C   0  0  2  0  0  0  0  0  0  0  0  0
    5.3477   -5.7495    4.0911 O   0  0  0  0  0  0  0  0  0  0  0  0
    4.8224   -4.9404    5.1280 C   0  0  0  0  0  0  0  0  0  0  0  0
    5.0310   -7.5268    2.4384 C   0  0  2  0  0  0  0  0  0  0  0  0
    6.5342   -7.3161    2.1284 C   0  0  0  0  0  0  0  0  0  0  0  0
    6.9916   -5.9111    1.6597 C   0  0  1  0  0  0  0  0  0  0  0  0
    8.2942   -6.0467    1.1231 O   0  0  0  0  0  0  0  0  0  0  0  0
    6.1273   -5.2355    0.5767 C   0  0  0  0  0  0  0  0  0  0  0  0
    4.7435   -4.7595    1.0584 C   0  0  0  0  0  0  0  0  0  0  0  0
    3.6748   -5.8586    1.3831 C   0  0  2  0  0  0  0  0  0  0  0  0
    2.6225   -5.7080    0.4430 O   0  0  0  0  0  0  0  0  0  0  0  0
    4.1795   -7.2911    1.1984 C   0  0  0  0  0  0  0  0  0  0  0  0
    4.5505   -1.7381    5.2925 C   0  0  2  0  0  0  0  0  0  0  0  0
    5.6194   -1.2770    6.2904 C   0  0  0  0  0  0  0  0  0  0  0  0
    6.6532   -1.4719    6.8935 O   0  0  0  0  0  0  0  0  0  0  0  0
    0.5746   -0.0417    2.0728 H   0  0  0  0  0  0  0  0  0  0  0  0
    1.5466    1.2425    1.3448 H   0  0  0  0  0  0  0  0  0  0  0  0
   -0.1395    1.5515    1.7708 H   0  0  0  0  0  0  0  0  0  0  0  0
    2.8115    2.2627    5.3335 H   0  0  0  0  0  0  0  0  0  0  0  0
    4.8720    0.7385    4.1161 H   0  0  0  0  0  0  0  0  0  0  0  0
    4.9945    1.6725    5.6243 H   0  0  0  0  0  0  0  0  0  0  0  0
    1.8240    0.9989    6.9768 H   0  0  0  0  0  0  0  0  0  0  0  0
    1.1439   -1.3046    6.9896 H   0  0  0  0  0  0  0  0  0  0  0  0
    0.6058   -0.5514    5.5136 H   0  0  0  0  0  0  0  0  0  0  0  0
    1.3115   -2.7588    5.1498 H   0  0  0  0  0  0  0  0  0  0  0  0
    2.2314   -1.5743    4.1872 H   0  0  0  0  0  0  0  0  0  0  0  0
    3.1747   -2.4061    7.7203 H   0  0  0  0  0  0  0  0  0  0  0  0
    4.2526   -3.7158    7.3662 H   0  0  0  0  0  0  0  0  0  0  0  0
    2.5229   -3.9216    7.1491 H   0  0  0  0  0  0  0  0  0  0  0  0
    1.8259   -3.9654    1.7635 H   0  0  0  0  0  0  0  0  0  0  0  0
    2.3008   -2.6020    2.7093 H   0  0  0  0  0  0  0  0  0  0  0  0
    0.9781   -3.6798    3.2499 H   0  0  0  0  0  0  0  0  0  0  0  0
    1.0371   -6.0973    2.5127 H   0  0  0  0  0  0  0  0  0  0  0  0
    2.3182   -8.3220    4.1399 H   0  0  0  0  0  0  0  0  0  0  0  0
   -0.8575   -7.4622    2.0831 H   0  0  0  0  0  0  0  0  0  0  0  0
   -1.0855   -6.6527    3.6428 H   0  0  0  0  0  0  0  0  0  0  0  0
   -1.9368   -8.1445    3.2878 H   0  0  0  0  0  0  0  0  0  0  0  0
    0.4878   -9.8078    2.0803 H   0  0  0  0  0  0  0  0  0  0  0  0
   -0.7470  -10.3247    3.2151 H   0  0  0  0  0  0  0  0  0  0  0  0
    0.9511  -10.4800    3.6401 H   0  0  0  0  0  0  0  0  0  0  0  0
   -0.7235   -9.3571    5.2135 H   0  0  0  0  0  0  0  0  0  0  0  0
    4.0742   -7.2723    4.3826 H   0  0  0  0  0  0  0  0  0  0  0  0
    5.6569   -4.3379    5.4847 H   0  0  0  0  0  0  0  0  0  0  0  0
    4.5104   -5.5787    5.9598 H   0  0  0  0  0  0  0  0  0  0  0  0
    4.9105   -8.5729    2.7217 H   0  0  0  0  0  0  0  0  0  0  0  0
    7.1085   -7.5862    3.0119 H   0  0  0  0  0  0  0  0  0  0  0  0
    6.8122   -8.0465    1.3686 H   0  0  0  0  0  0  0  0  0  0  0  0
    7.0733   -5.2331    2.5084 H   0  0  0  0  0  0  0  0  0  0  0  0
    8.8020   -6.6293    1.6730 H   0  0  0  0  0  0  0  0  0  0  0  0
    6.6602   -4.3544    0.2223 H   0  0  0  0  0  0  0  0  0  0  0  0
    6.0320   -5.8725   -0.3009 H   0  0  0  0  0  0  0  0  0  0  0  0
    4.9230   -4.1167    1.9207 H   0  0  0  0  0  0  0  0  0  0  0  0
    4.3487   -4.0788    0.3027 H   0  0  0  0  0  0  0  0  0  0  0  0
    2.9888   -5.7556   -0.4327 H   0  0  0  0  0  0  0  0  0  0  0  0
    4.6914   -7.4823    0.2545 H   0  0  0  0  0  0  0  0  0  0  0  0
    3.3368   -7.9838    1.2101 H   0  0  0  0  0  0  0  0  0  0  0  0
    4.8394   -1.7127    4.2461 H   0  0  0  0  0  0  0  0  0  0  0  0
  1  2  1  0
  1 39  1  0
  1 40  1  0
  1 41  1  0
  2  3  2  0
  2  4  1  0
  4  5  1  0
  5  9  1  0
  5  6  1  0
  5 42  1  1
  7  6  1  6
  6 43  1  0
  6 44  1  0
  7 36  1  0
  7 37  1  0
  7  8  1  0
  8  9  1  0
  9 10  1  0
  9 45  1  1
 10 11  1  0
 10 46  1  0
 10 47  1  0
 11 12  1  0
 11 48  1  0
 11 49  1  0
 12 13  1  1
 12 14  1  0
 12 36  1  0
 13 50  1  0
 13 51  1  0
 13 52  1  0
 14 26  1  0
 14 15  2  0
 15 16  1  0
 15 17  1  0
 16 53  1  0
 16 54  1  0
 16 55  1  0
 17 33  1  0
 17 18  1  6
 17 24  1  0
 18 19  2  3
 18 56  1  0
 19 20  1  0
 19 57  1  0
 20 21  1  0
 20 22  1  0
 20 23  1  0
 21 58  1  0
 21 59  1  0
 21 60  1  0
 22 61  1  0
 22 62  1  0
 22 63  1  0
 23 64  1  0
 24 25  1  0
 24 27  1  0
 24 65  1  1
 25 26  1  0
 26 66  1  0
 26 67  1  0
 27 35  1  0
 27 28  1  0
 27 68  1  1
 28 29  1  0
 28 69  1  0
 28 70  1  0
 29 30  1  0
 29 31  1  0
 29 71  1  1
 30 72  1  0
 31 32  1  0
 31 73  1  0
 31 74  1  0
 32 33  1  0
 32 75  1  0
 32 76  1  0
 33 34  1  6
 33 35  1  0
 34 77  1  0
 35 78  1  0
 35 79  1  0
 36 37  1  0
 36 80  1  6
 37 38  2  0
M  END
>  <i_m_ct_stereo_status>  (42) 
1

>  <s_m_source_file>  (42) 
/var/tmp/pbs.5076255.sched01/tmplremgrqo/0ygzoxw5b.sdf

>  <i_m_source_file_index>  (42) 
17

>  <i_lp_mmshare_version>  (42) 
48012

>  <i_f3d_flags>  (42) 
0

>  <s_epik_input>  (42) 
W0NIM11DKD1PKU9bQ0BIXShbQ0gyXTEpW0NASF0oTzIpW0NIMl1bQ0gyXVtDQF0oW0NIM10pKFtDSF0oQzEyMylDMz1PKUMoPUM0W0NIM10pW0NIMl1PW0NAQEhdKFtDQEBdNDUvW0NIXT1bQ0hdL0MoW0NIM10pKFtDSDNdKVtPSF0pW0NAQEhdNltDSDJdW0NAQEhdKFtPSF0pW0NIMl1bQ0gyXVtDQEBdNShbT0hdKVtDSDJdNg==

>  <s_epik_cmdline>  (42) 
J2VwaWtfcHl0aG9uJywgJy1waHQnLCAnMi4wJywgJy1waCcsICc3LjAnLCAnLXRuJywgJzgnLCAnLW1hJywgJzIwMCcsICctaW1hZScsICc8aW5maWxlLm1hZT4nLCAnLW9tYWUnLCAnPG91dGZpbGUubWFlPic=

>  <r_lp_tautomer_probability>  (42) 
1

>  <r_epik_Ionization_Penalty>  (42) 
8.27755e-07

>  <r_epik_Ionization_Penalty_Charging>  (42) 
0

>  <r_epik_Ionization_Penalty_Neutral>  (42) 
8.27755e-07

>  <r_epik_State_Penalty>  (42) 
-0

>  <r_epik_Charging_Adjusted_Penalty>  (42) 
0

>  <i_epik_Tot_Q>  (42) 
0

>  <i_epik_Tot_abs_Q>  (42) 
0

>  <s_epik_Chemistry_Notes>  (42) 
This compound has an ester and may undergo hydrolysis at high or low pH.

>  <s_lp_Force_Field>  (42) 
OPLS3e

>  <r_lp_Energy>  (42) 
79.1685

>  <b_lp_Chiralities_Consistent>  (42) 
1

>  <s_lp_Variant>  (42) 
10:0-3

>  <s_i_glide_gridfile>  (42) 
pfpi4k_grid

>  <i_i_glide_lignum>  (42) 
17

>  <i_i_glide_rotatable_bonds>  (42) 
8

>  <r_i_docking_score>  (42) 
-2.91897

>  <r_i_glide_ligand_efficiency>  (42) 
-0.076815

>  <r_i_glide_ligand_efficiency_sa>  (42) 
-0.25825

>  <r_i_glide_ligand_efficiency_ln>  (42) 
-0.629416

>  <r_i_glide_gscore>  (42) 
-2.91897

>  <r_i_glide_lipo>  (42) 
-0.462626

>  <r_i_glide_hbond>  (42) 
-0.277623

>  <r_i_glide_metal>  (42) 
-0

>  <r_i_glide_rewards>  (42) 
-0.0293566

>  <r_i_glide_evdw>  (42) 
-30.8551

>  <r_i_glide_ecoul>  (42) 
-5.86718

>  <r_i_glide_erotb>  (42) 
0.29284

>  <r_i_glide_esite>  (42) 
-0.0193743

>  <r_i_glide_emodel>  (42) 
-41.3429

>  <r_i_glide_energy>  (42) 
-36.7223

>  <r_i_glide_einternal>  (42) 
4.36694

>  <r_i_glide_intrahb_reward>  (42) 
-0

>  <i_i_glide_confnum>  (42) 
4

>  <i_i_glide_posenum>  (42) 
11

>  <r_i_glide_eff_state_penalty>  (42) 
0

>  <ligand_id>  (42) 
10

>  <original_smiles>  (42) 
CC(=O)OC1CC23OC1CCC(C)(C1=C(C)C4(C=CC(C)(C)O)C(OC1)C1CC(O)CCC4(O)C1)C2C3=O

>  <smiles>  (42) 
[H]OC1([H])C([H])([H])C([H])([H])C2(O[H])C([H])([H])C([H])(C1([H])[H])C1([H])OC([H])([H])C(C3(C([H])([H])[H])C([H])([H])C([H])([H])C4([H])OC5(C(=O)C53[H])C([H])([H])C4([H])OC(=O)C([H])([H])[H])=C(C([H])([H])[H])C12C([H])=C([H])C(O[H])(C([H])([H])[H])C([H])([H])[H]

$$$$
10:2:2
     RDKit          3D

 80 85  0  0  1  0  0  0  0  0999 V2000
   -1.2718   -0.9405    5.2786 C   0  0  0  0  0  0  0  0  0  0  0  0
   -0.7355    0.2177    4.4473 C   0  0  0  0  0  0  0  0  0  0  0  0
   -1.4031    1.2345    4.2623 O   0  0  0  0  0  0  0  0  0  0  0  0
    0.4989   -0.0177    3.9789 O   0  0  0  0  0  0  0  0  0  0  0  0
    1.1588    0.9306    3.1516 C   0  0  2  0  0  0  0  0  0  0  0  0
    1.2305    0.3967    1.7246 C   0  0  0  0  0  0  0  0  0  0  0  0
    2.6527    0.0108    1.6300 C   0  0  1  0  0  0  0  0  0  0  0  0
    3.4021    0.9463    2.3641 O   0  0  0  0  0  0  0  0  0  0  0  0
    2.6499    1.1264    3.5407 C   0  0  2  0  0  0  0  0  0  0  0  0
    3.3252    0.1914    4.5733 C   0  0  0  0  0  0  0  0  0  0  0  0
    3.4124   -1.3381    4.2721 C   0  0  0  0  0  0  0  0  0  0  0  0
    4.0710   -1.8405    2.9308 C   0  0  1  0  0  0  0  0  0  0  0  0
    5.4567   -1.1896    2.7225 C   0  0  0  0  0  0  0  0  0  0  0  0
    4.2832   -3.3981    2.9954 C   0  0  0  0  0  0  0  0  0  0  0  0
    4.0142   -4.3396    2.0257 C   0  0  0  0  0  0  0  0  0  0  0  0
    3.5831   -4.0091    0.6016 C   0  0  0  0  0  0  0  0  0  0  0  0
    4.1163   -5.8585    2.3111 C   0  0  2  0  0  0  0  0  0  0  0  0
    2.6812   -6.4099    2.1320 C   0  0  0  0  0  0  0  0  0  0  0  0
    1.8456   -6.9469    3.0501 C   0  0  0  0  0  0  0  0  0  0  0  0
    0.4217   -7.4588    2.8215 C   0  0  0  0  0  0  0  0  0  0  0  0
   -0.0814   -7.2847    1.3805 C   0  0  0  0  0  0  0  0  0  0  0  0
    0.2949   -8.9298    3.2624 C   0  0  0  0  0  0  0  0  0  0  0  0
   -0.4613   -6.7178    3.6269 O   0  0  0  0  0  0  0  0  0  0  0  0
    4.7279   -6.1776    3.7123 C   0  0  2  0  0  0  0  0  0  0  0  0
    5.5813   -5.1293    4.1293 O   0  0  0  0  0  0  0  0  0  0  0  0
    4.8888   -3.9108    4.3040 C   0  0  0  0  0  0  0  0  0  0  0  0
    5.5062   -7.5157    3.5912 C   0  0  2  0  0  0  0  0  0  0  0  0
    7.0156   -7.5208    3.9450 C   0  0  0  0  0  0  0  0  0  0  0  0
    7.9563   -6.6002    3.1248 C   0  0  1  0  0  0  0  0  0  0  0  0
    9.2899   -6.9792    3.4050 O   0  0  0  0  0  0  0  0  0  0  0  0
    7.7660   -6.6193    1.5998 C   0  0  0  0  0  0  0  0  0  0  0  0
    6.4676   -5.9249    1.1287 C   0  0  0  0  0  0  0  0  0  0  0  0
    5.1141   -6.6626    1.3871 C   0  0  2  0  0  0  0  0  0  0  0  0
    4.5751   -7.0373    0.1375 O   0  0  0  0  0  0  0  0  0  0  0  0
    5.2801   -7.9773    2.1586 C   0  0  0  0  0  0  0  0  0  0  0  0
    3.0628   -1.4291    1.8519 C   0  0  2  0  0  0  0  0  0  0  0  0
    3.4294   -0.7007    0.5613 C   0  0  0  0  0  0  0  0  0  0  0  0
    4.0015   -0.6947   -0.5248 O   0  0  0  0  0  0  0  0  0  0  0  0
   -0.6586   -1.0781    6.1693 H   0  0  0  0  0  0  0  0  0  0  0  0
   -1.2374   -1.8564    4.6885 H   0  0  0  0  0  0  0  0  0  0  0  0
   -2.3012   -0.7513    5.5753 H   0  0  0  0  0  0  0  0  0  0  0  0
    0.6564    1.8988    3.1444 H   0  0  0  0  0  0  0  0  0  0  0  0
    0.5379   -0.4341    1.5543 H   0  0  0  0  0  0  0  0  0  0  0  0
    1.0053    1.1903    1.0025 H   0  0  0  0  0  0  0  0  0  0  0  0
    2.8063    2.1605    3.8484 H   0  0  0  0  0  0  0  0  0  0  0  0
    4.3378    0.5678    4.7171 H   0  0  0  0  0  0  0  0  0  0  0  0
    2.8188    0.3440    5.5252 H   0  0  0  0  0  0  0  0  0  0  0  0
    3.9506   -1.7489    5.1237 H   0  0  0  0  0  0  0  0  0  0  0  0
    2.4104   -1.7571    4.3425 H   0  0  0  0  0  0  0  0  0  0  0  0
    5.4559   -0.1020    2.6533 H   0  0  0  0  0  0  0  0  0  0  0  0
    5.9468   -1.5848    1.8308 H   0  0  0  0  0  0  0  0  0  0  0  0
    6.1039   -1.4030    3.5677 H   0  0  0  0  0  0  0  0  0  0  0  0
    3.8049   -4.7793   -0.1237 H   0  0  0  0  0  0  0  0  0  0  0  0
    4.1618   -3.1578    0.2532 H   0  0  0  0  0  0  0  0  0  0  0  0
    2.5137   -3.8103    0.5464 H   0  0  0  0  0  0  0  0  0  0  0  0
    2.3236   -6.3424    1.1169 H   0  0  0  0  0  0  0  0  0  0  0  0
    2.1602   -7.0629    4.0719 H   0  0  0  0  0  0  0  0  0  0  0  0
    0.5406   -7.8276    0.6773 H   0  0  0  0  0  0  0  0  0  0  0  0
   -0.1013   -6.2432    1.0784 H   0  0  0  0  0  0  0  0  0  0  0  0
   -1.0941   -7.6833    1.2982 H   0  0  0  0  0  0  0  0  0  0  0  0
    0.9621   -9.5709    2.6924 H   0  0  0  0  0  0  0  0  0  0  0  0
   -0.7205   -9.3050    3.1172 H   0  0  0  0  0  0  0  0  0  0  0  0
    0.5361   -9.0602    4.3181 H   0  0  0  0  0  0  0  0  0  0  0  0
   -0.3181   -6.9741    4.5253 H   0  0  0  0  0  0  0  0  0  0  0  0
    3.9813   -6.2650    4.4976 H   0  0  0  0  0  0  0  0  0  0  0  0
    5.6527   -3.2211    4.6649 H   0  0  0  0  0  0  0  0  0  0  0  0
    4.1397   -3.9978    5.0920 H   0  0  0  0  0  0  0  0  0  0  0  0
    5.0274   -8.2477    4.2462 H   0  0  0  0  0  0  0  0  0  0  0  0
    7.1239   -7.2659    4.9978 H   0  0  0  0  0  0  0  0  0  0  0  0
    7.3742   -8.5457    3.8571 H   0  0  0  0  0  0  0  0  0  0  0  0
    7.8619   -5.5772    3.4838 H   0  0  0  0  0  0  0  0  0  0  0  0
    9.6628   -7.4303    2.6496 H   0  0  0  0  0  0  0  0  0  0  0  0
    8.5928   -6.0550    1.1618 H   0  0  0  0  0  0  0  0  0  0  0  0
    7.8704   -7.6236    1.1891 H   0  0  0  0  0  0  0  0  0  0  0  0
    6.4693   -4.9214    1.5517 H   0  0  0  0  0  0  0  0  0  0  0  0
    6.5739   -5.7598    0.0563 H   0  0  0  0  0  0  0  0  0  0  0  0
    4.4501   -6.2648   -0.3943 H   0  0  0  0  0  0  0  0  0  0  0  0
    6.0489   -8.6449    1.7759 H   0  0  0  0  0  0  0  0  0  0  0  0
    4.3551   -8.5510    2.1092 H   0  0  0  0  0  0  0  0  0  0  0  0
    2.1832   -2.0706    1.8787 H   0  0  0  0  0  0  0  0  0  0  0  0
  1  2  1  0
  1 39  1  0
  1 40  1  0
  1 41  1  0
  2  3  2  0
  2  4  1  0
  4  5  1  0
  5  9  1  0
  5  6  1  0
  5 42  1  6
  7  6  1  6
  6 43  1  0
  6 44  1  0
  7 36  1  0
  7 37  1  0
  7  8  1  0
  8  9  1  0
  9 10  1  0
  9 45  1  1
 10 11  1  0
 10 46  1  0
 10 47  1  0
 11 12  1  0
 11 48  1  0
 11 49  1  0
 12 13  1  6
 12 14  1  0
 12 36  1  0
 13 50  1  0
 13 51  1  0
 13 52  1  0
 14 26  1  0
 14 15  2  0
 15 16  1  0
 15 17  1  0
 16 53  1  0
 16 54  1  0
 16 55  1  0
 17 33  1  0
 17 18  1  1
 17 24  1  0
 18 19  2  3
 18 56  1  0
 19 20  1  0
 19 57  1  0
 20 21  1  0
 20 22  1  0
 20 23  1  0
 21 58  1  0
 21 59  1  0
 21 60  1  0
 22 61  1  0
 22 62  1  0
 22 63  1  0
 23 64  1  0
 24 25  1  0
 24 27  1  0
 24 65  1  1
 25 26  1  0
 26 66  1  0
 26 67  1  0
 27 35  1  0
 27 28  1  0
 27 68  1  1
 28 29  1  0
 28 69  1  0
 28 70  1  0
 29 30  1  0
 29 31  1  0
 29 71  1  1
 30 72  1  0
 31 32  1  0
 31 73  1  0
 31 74  1  0
 32 33  1  0
 32 75  1  0
 32 76  1  0
 33 34  1  6
 33 35  1  0
 34 77  1  0
 35 78  1  0
 35 79  1  0
 36 37  1  0
 36 80  1  6
 37 38  2  0
M  END
>  <i_m_ct_stereo_status>  (43) 
1

>  <s_m_source_file>  (43) 
/var/tmp/pbs.5076255.sched01/tmplremgrqo/0ygzoxw5b.sdf

>  <i_m_source_file_index>  (43) 
17

>  <i_lp_mmshare_version>  (43) 
48012

>  <i_f3d_flags>  (43) 
0

>  <s_epik_input>  (43) 
W0NIM11DKD1PKU9bQ0BIXShbQ0gyXTEpW0NASF0oTzIpW0NIMl1bQ0gyXVtDQF0oW0NIM10pKFtDSF0oQzEyMylDMz1PKUMoPUM0W0NIM10pW0NIMl1PW0NAQEhdKFtDQEBdNDUvW0NIXT1bQ0hdL0MoW0NIM10pKFtDSDNdKVtPSF0pW0NAQEhdNltDSDJdW0NAQEhdKFtPSF0pW0NIMl1bQ0gyXVtDQEBdNShbT0hdKVtDSDJdNg==

>  <s_epik_cmdline>  (43) 
J2VwaWtfcHl0aG9uJywgJy1waHQnLCAnMi4wJywgJy1waCcsICc3LjAnLCAnLXRuJywgJzgnLCAnLW1hJywgJzIwMCcsICctaW1hZScsICc8aW5maWxlLm1hZT4nLCAnLW9tYWUnLCAnPG91dGZpbGUubWFlPic=

>  <r_lp_tautomer_probability>  (43) 
1

>  <r_epik_Ionization_Penalty>  (43) 
8.27755e-07

>  <r_epik_Ionization_Penalty_Charging>  (43) 
0

>  <r_epik_Ionization_Penalty_Neutral>  (43) 
8.27755e-07

>  <r_epik_State_Penalty>  (43) 
-0

>  <r_epik_Charging_Adjusted_Penalty>  (43) 
0

>  <i_epik_Tot_Q>  (43) 
0

>  <i_epik_Tot_abs_Q>  (43) 
0

>  <s_epik_Chemistry_Notes>  (43) 
This compound has an ester and may undergo hydrolysis at high or low pH.

>  <s_lp_Force_Field>  (43) 
OPLS3e

>  <r_lp_Energy>  (43) 
79.1685

>  <b_lp_Chiralities_Consistent>  (43) 
1

>  <s_lp_Variant>  (43) 
10:0-3

>  <s_i_glide_gridfile>  (43) 
pfpi4k_grid

>  <i_i_glide_lignum>  (43) 
17

>  <i_i_glide_rotatable_bonds>  (43) 
8

>  <r_i_docking_score>  (43) 
-2.73255

>  <r_i_glide_ligand_efficiency>  (43) 
-0.0719093

>  <r_i_glide_ligand_efficiency_sa>  (43) 
-0.241757

>  <r_i_glide_ligand_efficiency_ln>  (43) 
-0.589219

>  <r_i_glide_gscore>  (43) 
-2.73255

>  <r_i_glide_lipo>  (43) 
-0.327247

>  <r_i_glide_hbond>  (43) 
-0.236828

>  <r_i_glide_metal>  (43) 
-0

>  <r_i_glide_rewards>  (43) 
0

>  <r_i_glide_evdw>  (43) 
-33.6154

>  <r_i_glide_ecoul>  (43) 
-4.72737

>  <r_i_glide_erotb>  (43) 
0.29284

>  <r_i_glide_esite>  (43) 
-0.0714408

>  <r_i_glide_emodel>  (43) 
-44.6865

>  <r_i_glide_energy>  (43) 
-38.3428

>  <r_i_glide_einternal>  (43) 
1.87133

>  <r_i_glide_intrahb_reward>  (43) 
-0

>  <i_i_glide_confnum>  (43) 
2

>  <i_i_glide_posenum>  (43) 
18

>  <r_i_glide_eff_state_penalty>  (43) 
0

>  <ligand_id>  (43) 
10

>  <original_smiles>  (43) 
CC(=O)OC1CC23OC1CCC(C)(C1=C(C)C4(C=CC(C)(C)O)C(OC1)C1CC(O)CCC4(O)C1)C2C3=O

>  <smiles>  (43) 
[H]OC1([H])C([H])([H])C([H])([H])C2(O[H])C([H])([H])C([H])(C1([H])[H])C1([H])OC([H])([H])C(C3(C([H])([H])[H])C([H])([H])C([H])([H])C4([H])OC5(C(=O)C53[H])C([H])([H])C4([H])OC(=O)C([H])([H])[H])=C(C([H])([H])[H])C12C([H])=C([H])C(O[H])(C([H])([H])[H])C([H])([H])[H]

$$$$
10:3:0
     RDKit          3D

 80 85  0  0  1  0  0  0  0  0999 V2000
    2.2126   -3.0529   -3.2617 C   0  0  0  0  0  0  0  0  0  0  0  0
    3.5966   -2.4399   -3.0751 C   0  0  0  0  0  0  0  0  0  0  0  0
    4.2094   -1.9509   -4.0129 O   0  0  0  0  0  0  0  0  0  0  0  0
    4.0056   -2.5061   -1.7945 O   0  0  0  0  0  0  0  0  0  0  0  0
    5.2346   -1.9191   -1.3905 C   0  0  2  0  0  0  0  0  0  0  0  0
    6.3682   -2.9563   -1.3720 C   0  0  0  0  0  0  0  0  0  0  0  0
    6.4648   -3.2242    0.0909 C   0  0  1  0  0  0  0  0  0  0  0  0
    6.3051   -1.9597    0.7078 O   0  0  0  0  0  0  0  0  0  0  0  0
    5.1719   -1.3991    0.0772 C   0  0  2  0  0  0  0  0  0  0  0  0
    3.9626   -1.7385    0.9863 C   0  0  0  0  0  0  0  0  0  0  0  0
    3.6115   -3.2317    1.2695 C   0  0  0  0  0  0  0  0  0  0  0  0
    4.7153   -4.1779    1.8575 C   0  0  1  0  0  0  0  0  0  0  0  0
    5.3740   -3.4313    3.0258 C   0  0  0  0  0  0  0  0  0  0  0  0
    4.0664   -5.5808    2.2947 C   0  0  0  0  0  0  0  0  0  0  0  0
    4.1042   -6.2113    3.5286 C   0  0  0  0  0  0  0  0  0  0  0  0
    4.7490   -5.7123    4.8281 C   0  0  0  0  0  0  0  0  0  0  0  0
    3.4917   -7.6455    3.7121 C   0  0  2  0  0  0  0  0  0  0  0  0
    4.6730   -8.5963    4.1090 C   0  0  0  0  0  0  0  0  0  0  0  0
    5.5995   -9.3226    3.4593 C   0  0  0  0  0  0  0  0  0  0  0  0
    6.0389   -9.5907    2.0061 C   0  0  0  0  0  0  0  0  0  0  0  0
    7.0551   -8.5463    1.5653 C   0  0  0  0  0  0  0  0  0  0  0  0
    6.5570  -11.0256    1.8593 C   0  0  0  0  0  0  0  0  0  0  0  0
    5.0578   -9.5203    1.0209 O   0  0  0  0  0  0  0  0  0  0  0  0
    2.7035   -8.1672    2.4948 C   0  0  2  0  0  0  0  0  0  0  0  0
    2.2627   -7.1430    1.6394 O   0  0  0  0  0  0  0  0  0  0  0  0
    3.2865   -6.2868    1.1551 C   0  0  0  0  0  0  0  0  0  0  0  0
    1.5635   -9.0528    3.0131 C   0  0  2  0  0  0  0  0  0  0  0  0
    0.1751   -8.6537    2.4982 C   0  0  0  0  0  0  0  0  0  0  0  0
   -0.4924   -7.4358    3.1737 C   0  0  1  0  0  0  0  0  0  0  0  0
   -1.3332   -7.8685    4.2209 O   0  0  0  0  0  0  0  0  0  0  0  0
    0.4098   -6.2717    3.6639 C   0  0  0  0  0  0  0  0  0  0  0  0
    1.3308   -6.5441    4.8707 C   0  0  0  0  0  0  0  0  0  0  0  0
    2.3510   -7.7214    4.8303 C   0  0  2  0  0  0  0  0  0  0  0  0
    2.7918   -7.7875    6.1894 O   0  0  0  0  0  0  0  0  0  0  0  0
    1.6733   -9.0620    4.5396 C   0  0  0  0  0  0  0  0  0  0  0  0
    5.7453   -4.4088    0.7236 C   0  0  2  0  0  0  0  0  0  0  0  0
    7.2538   -4.2332    0.8391 C   0  0  0  0  0  0  0  0  0  0  0  0
    8.3671   -4.6442    1.2194 O   0  0  0  0  0  0  0  0  0  0  0  0
    2.2417   -4.1272   -3.1261 H   0  0  0  0  0  0  0  0  0  0  0  0
    1.8300   -2.8405   -4.2608 H   0  0  0  0  0  0  0  0  0  0  0  0
    1.5261   -2.6376   -2.5263 H   0  0  0  0  0  0  0  0  0  0  0  0
    5.4915   -1.0936   -2.0592 H   0  0  0  0  0  0  0  0  0  0  0  0
    6.1551   -3.8588   -1.9458 H   0  0  0  0  0  0  0  0  0  0  0  0
    7.3009   -2.5109   -1.7309 H   0  0  0  0  0  0  0  0  0  0  0  0
    5.2853   -0.3176    0.0696 H   0  0  0  0  0  0  0  0  0  0  0  0
    4.1229   -1.2371    1.9413 H   0  0  0  0  0  0  0  0  0  0  0  0
    3.0821   -1.2588    0.5614 H   0  0  0  0  0  0  0  0  0  0  0  0
    2.7710   -3.2381    1.9641 H   0  0  0  0  0  0  0  0  0  0  0  0
    3.2299   -3.6086    0.3221 H   0  0  0  0  0  0  0  0  0  0  0  0
    5.8983   -2.5066    2.8077 H   0  0  0  0  0  0  0  0  0  0  0  0
    6.1290   -4.0731    3.4623 H   0  0  0  0  0  0  0  0  0  0  0  0
    4.5846   -3.1705    3.7340 H   0  0  0  0  0  0  0  0  0  0  0  0
    4.4549   -6.2471    5.7105 H   0  0  0  0  0  0  0  0  0  0  0  0
    4.4257   -4.6980    5.0524 H   0  0  0  0  0  0  0  0  0  0  0  0
    5.8300   -5.8124    4.7767 H   0  0  0  0  0  0  0  0  0  0  0  0
    4.7901   -8.6869    5.1860 H   0  0  0  0  0  0  0  0  0  0  0  0
    6.2499   -9.8551    4.1524 H   0  0  0  0  0  0  0  0  0  0  0  0
    7.9810   -8.5953    2.1509 H   0  0  0  0  0  0  0  0  0  0  0  0
    6.6394   -7.5395    1.6597 H   0  0  0  0  0  0  0  0  0  0  0  0
    7.3220   -8.7061    0.5165 H   0  0  0  0  0  0  0  0  0  0  0  0
    7.4390  -11.2393    2.4804 H   0  0  0  0  0  0  0  0  0  0  0  0
    6.8126  -11.2370    0.8159 H   0  0  0  0  0  0  0  0  0  0  0  0
    5.7763  -11.7485    2.1309 H   0  0  0  0  0  0  0  0  0  0  0  0
    4.6301  -10.3775    0.9808 H   0  0  0  0  0  0  0  0  0  0  0  0
    3.2551   -8.8428    1.9105 H   0  0  0  0  0  0  0  0  0  0  0  0
    2.6721   -5.5819    0.5937 H   0  0  0  0  0  0  0  0  0  0  0  0
    3.9420   -6.7788    0.4237 H   0  0  0  0  0  0  0  0  0  0  0  0
    1.7581  -10.0683    2.6680 H   0  0  0  0  0  0  0  0  0  0  0  0
    0.2712   -8.4596    1.4316 H   0  0  0  0  0  0  0  0  0  0  0  0
   -0.4831   -9.5280    2.5566 H   0  0  0  0  0  0  0  0  0  0  0  0
   -1.1617   -7.0361    2.4144 H   0  0  0  0  0  0  0  0  0  0  0  0
   -1.3970   -8.8141    4.1910 H   0  0  0  0  0  0  0  0  0  0  0  0
    0.9559   -5.8027    2.8530 H   0  0  0  0  0  0  0  0  0  0  0  0
   -0.2500   -5.4721    3.9802 H   0  0  0  0  0  0  0  0  0  0  0  0
    1.8674   -5.6201    5.0914 H   0  0  0  0  0  0  0  0  0  0  0  0
    0.6809   -6.6987    5.7290 H   0  0  0  0  0  0  0  0  0  0  0  0
    3.2922   -8.5731    6.3037 H   0  0  0  0  0  0  0  0  0  0  0  0
    0.7187   -9.2034    5.0554 H   0  0  0  0  0  0  0  0  0  0  0  0
    2.3282   -9.8868    4.8450 H   0  0  0  0  0  0  0  0  0  0  0  0
    5.4122   -5.1380   -0.0119 H   0  0  0  0  0  0  0  0  0  0  0  0
  1  2  1  0
  1 39  1  0
  1 40  1  0
  1 41  1  0
  2  3  2  0
  2  4  1  0
  4  5  1  0
  5  9  1  0
  5  6  1  0
  5 42  1  6
  7  6  1  6
  6 43  1  0
  6 44  1  0
  7 36  1  0
  7 37  1  0
  7  8  1  0
  8  9  1  0
  9 10  1  0
  9 45  1  6
 10 11  1  0
 10 46  1  0
 10 47  1  0
 11 12  1  0
 11 48  1  0
 11 49  1  0
 12 13  1  1
 12 14  1  0
 12 36  1  0
 13 50  1  0
 13 51  1  0
 13 52  1  0
 14 26  1  0
 14 15  2  0
 15 16  1  0
 15 17  1  0
 16 53  1  0
 16 54  1  0
 16 55  1  0
 17 33  1  0
 17 18  1  1
 17 24  1  0
 18 19  2  3
 18 56  1  0
 19 20  1  0
 19 57  1  0
 20 21  1  0
 20 22  1  0
 20 23  1  0
 21 58  1  0
 21 59  1  0
 21 60  1  0
 22 61  1  0
 22 62  1  0
 22 63  1  0
 23 64  1  0
 24 25  1  0
 24 27  1  0
 24 65  1  6
 25 26  1  0
 26 66  1  0
 26 67  1  0
 27 35  1  0
 27 28  1  0
 27 68  1  6
 28 29  1  0
 28 69  1  0
 28 70  1  0
 29 30  1  0
 29 31  1  0
 29 71  1  6
 30 72  1  0
 31 32  1  0
 31 73  1  0
 31 74  1  0
 32 33  1  0
 32 75  1  0
 32 76  1  0
 33 34  1  1
 33 35  1  0
 34 77  1  0
 35 78  1  0
 35 79  1  0
 36 37  1  0
 36 80  1  6
 37 38  2  0
M  END
>  <i_m_ct_stereo_status>  (44) 
1

>  <s_m_source_file>  (44) 
/var/tmp/pbs.5076255.sched01/tmplremgrqo/0ygzoxw5b.sdf

>  <i_m_source_file_index>  (44) 
18

>  <i_lp_mmshare_version>  (44) 
48012

>  <i_f3d_flags>  (44) 
0

>  <s_epik_input>  (44) 
W0NIM11DKD1PKU9bQ0BIXShbQ0gyXTEpW0NASF0oTzIpW0NIMl1bQ0gyXVtDQF0oW0NIM10pKFtDSF0oQzEyMylDMz1PKUMoPUM0W0NIM10pW0NIMl1PW0NAQEhdKFtDQEBdNDUvW0NIXT1bQ0hdL0MoW0NIM10pKFtDSDNdKVtPSF0pW0NAQEhdNltDSDJdW0NAQEhdKFtPSF0pW0NIMl1bQ0gyXVtDQEBdNShbT0hdKVtDSDJdNg==

>  <s_epik_cmdline>  (44) 
J2VwaWtfcHl0aG9uJywgJy1waHQnLCAnMi4wJywgJy1waCcsICc3LjAnLCAnLXRuJywgJzgnLCAnLW1hJywgJzIwMCcsICctaW1hZScsICc8aW5maWxlLm1hZT4nLCAnLW9tYWUnLCAnPG91dGZpbGUubWFlPic=

>  <r_lp_tautomer_probability>  (44) 
1

>  <r_epik_Ionization_Penalty>  (44) 
8.27755e-07

>  <r_epik_Ionization_Penalty_Charging>  (44) 
0

>  <r_epik_Ionization_Penalty_Neutral>  (44) 
8.27755e-07

>  <r_epik_State_Penalty>  (44) 
-0

>  <r_epik_Charging_Adjusted_Penalty>  (44) 
0

>  <i_epik_Tot_Q>  (44) 
0

>  <i_epik_Tot_abs_Q>  (44) 
0

>  <s_epik_Chemistry_Notes>  (44) 
This compound has an ester and may undergo hydrolysis at high or low pH.

>  <s_lp_Force_Field>  (44) 
OPLS3e

>  <r_lp_Energy>  (44) 
84.0385

>  <b_lp_Chiralities_Consistent>  (44) 
1

>  <s_lp_Variant>  (44) 
10:0-4

>  <s_i_glide_gridfile>  (44) 
pfpi4k_grid

>  <i_i_glide_lignum>  (44) 
18

>  <i_i_glide_rotatable_bonds>  (44) 
8

>  <r_i_docking_score>  (44) 
-4.26196

>  <r_i_glide_ligand_efficiency>  (44) 
-0.112157

>  <r_i_glide_ligand_efficiency_sa>  (44) 
-0.377068

>  <r_i_glide_ligand_efficiency_ln>  (44) 
-0.919004

>  <r_i_glide_gscore>  (44) 
-4.26196

>  <r_i_glide_lipo>  (44) 
-0.645927

>  <r_i_glide_hbond>  (44) 
-0.352937

>  <r_i_glide_metal>  (44) 
-0

>  <r_i_glide_rewards>  (44) 
-0.306431

>  <r_i_glide_evdw>  (44) 
-41.6071

>  <r_i_glide_ecoul>  (44) 
-7.79432

>  <r_i_glide_erotb>  (44) 
0.29284

>  <r_i_glide_esite>  (44) 
0

>  <r_i_glide_emodel>  (44) 
-56.2588

>  <r_i_glide_energy>  (44) 
-49.4014

>  <r_i_glide_einternal>  (44) 
9.85693

>  <r_i_glide_intrahb_reward>  (44) 
-0

>  <i_i_glide_confnum>  (44) 
2

>  <i_i_glide_posenum>  (44) 
36

>  <r_i_glide_eff_state_penalty>  (44) 
0

>  <ligand_id>  (44) 
10

>  <original_smiles>  (44) 
CC(=O)OC1CC23OC1CCC(C)(C1=C(C)C4(C=CC(C)(C)O)C(OC1)C1CC(O)CCC4(O)C1)C2C3=O

>  <smiles>  (44) 
[H]OC1([H])C([H])([H])C([H])([H])C2(O[H])C([H])([H])C([H])(C1([H])[H])C1([H])OC([H])([H])C(C3(C([H])([H])[H])C([H])([H])C([H])([H])C4([H])OC5(C(=O)C53[H])C([H])([H])C4([H])OC(=O)C([H])([H])[H])=C(C([H])([H])[H])C12C([H])=C([H])C(O[H])(C([H])([H])[H])C([H])([H])[H]

$$$$
10:3:1
     RDKit          3D

 80 85  0  0  1  0  0  0  0  0999 V2000
    5.4068   -3.4960   -1.5810 C   0  0  0  0  0  0  0  0  0  0  0  0
    5.5806   -2.3481   -0.5999 C   0  0  0  0  0  0  0  0  0  0  0  0
    6.5157   -1.5553   -0.7005 O   0  0  0  0  0  0  0  0  0  0  0  0
    4.6280   -2.3288    0.3488 O   0  0  0  0  0  0  0  0  0  0  0  0
    4.6368   -1.3334    1.3697 C   0  0  2  0  0  0  0  0  0  0  0  0
    5.6802   -1.6566    2.4471 C   0  0  0  0  0  0  0  0  0  0  0  0
    4.8025   -2.1956    3.5317 C   0  0  1  0  0  0  0  0  0  0  0  0
    3.6508   -1.3838    3.5440 O   0  0  0  0  0  0  0  0  0  0  0  0
    3.2985   -1.2559    2.1777 C   0  0  2  0  0  0  0  0  0  0  0  0
    2.2022   -2.3223    2.0016 C   0  0  0  0  0  0  0  0  0  0  0  0
    2.5725   -3.7931    2.2706 C   0  0  0  0  0  0  0  0  0  0  0  0
    3.1861   -4.3022    3.6159 C   0  0  1  0  0  0  0  0  0  0  0  0
    2.2659   -3.8105    4.7718 C   0  0  0  0  0  0  0  0  0  0  0  0
    3.2931   -5.8856    3.6985 C   0  0  0  0  0  0  0  0  0  0  0  0
    3.0838   -6.8039    2.6913 C   0  0  0  0  0  0  0  0  0  0  0  0
    2.8698   -6.4666    1.2094 C   0  0  0  0  0  0  0  0  0  0  0  0
    2.9840   -8.3362    2.9547 C   0  0  2  0  0  0  0  0  0  0  0  0
    1.5675   -8.8362    2.4882 C   0  0  0  0  0  0  0  0  0  0  0  0
    0.2906   -8.7734    2.9687 C   0  0  0  0  0  0  0  0  0  0  0  0
   -0.3719   -8.0814    4.1741 C   0  0  0  0  0  0  0  0  0  0  0  0
    0.4379   -6.9551    4.7935 C   0  0  0  0  0  0  0  0  0  0  0  0
   -1.7489   -7.5166    3.8257 C   0  0  0  0  0  0  0  0  0  0  0  0
   -0.5765   -9.0606    5.1918 O   0  0  0  0  0  0  0  0  0  0  0  0
    3.2666   -8.7571    4.4341 C   0  0  2  0  0  0  0  0  0  0  0  0
    4.0370   -7.7774    5.1381 O   0  0  0  0  0  0  0  0  0  0  0  0
    3.6203   -6.4143    5.1164 C   0  0  0  0  0  0  0  0  0  0  0  0
    4.0232  -10.1039    4.4024 C   0  0  2  0  0  0  0  0  0  0  0  0
    5.3898  -10.0998    5.1130 C   0  0  0  0  0  0  0  0  0  0  0  0
    6.5928   -9.5060    4.3390 C   0  0  1  0  0  0  0  0  0  0  0  0
    7.2591  -10.5359    3.6375 O   0  0  0  0  0  0  0  0  0  0  0  0
    6.3467   -8.3031    3.3978 C   0  0  0  0  0  0  0  0  0  0  0  0
    5.5320   -8.5635    2.1129 C   0  0  0  0  0  0  0  0  0  0  0  0
    4.1041   -9.1789    2.2010 C   0  0  2  0  0  0  0  0  0  0  0  0
    3.8210   -9.4039    0.8450 O   0  0  0  0  0  0  0  0  0  0  0  0
    4.0943  -10.5167    2.9389 C   0  0  0  0  0  0  0  0  0  0  0  0
    4.5958   -3.6953    3.6890 C   0  0  2  0  0  0  0  0  0  0  0  0
    5.1544   -2.8469    4.8259 C   0  0  0  0  0  0  0  0  0  0  0  0
    5.6212   -2.7516    5.9592 O   0  0  0  0  0  0  0  0  0  0  0  0
    5.5933   -4.4489   -1.0851 H   0  0  0  0  0  0  0  0  0  0  0  0
    6.0993   -3.3971   -2.4176 H   0  0  0  0  0  0  0  0  0  0  0  0
    4.3878   -3.4992   -1.9654 H   0  0  0  0  0  0  0  0  0  0  0  0
    4.8463   -0.3611    0.9155 H   0  0  0  0  0  0  0  0  0  0  0  0
    6.4359   -2.3810    2.1310 H   0  0  0  0  0  0  0  0  0  0  0  0
    6.1770   -0.7406    2.7812 H   0  0  0  0  0  0  0  0  0  0  0  0
    2.8250   -0.2934    1.9896 H   0  0  0  0  0  0  0  0  0  0  0  0
    1.3241   -2.0591    2.6051 H   0  0  0  0  0  0  0  0  0  0  0  0
    1.8575   -2.2787    0.9650 H   0  0  0  0  0  0  0  0  0  0  0  0
    1.6392   -4.3254    2.1208 H   0  0  0  0  0  0  0  0  0  0  0  0
    3.2836   -3.9863    1.4709 H   0  0  0  0  0  0  0  0  0  0  0  0
    2.1414   -2.7304    4.8029 H   0  0  0  0  0  0  0  0  0  0  0  0
    2.6299   -4.0873    5.7628 H   0  0  0  0  0  0  0  0  0  0  0  0
    1.2610   -4.2161    4.6730 H   0  0  0  0  0  0  0  0  0  0  0  0
    3.0037   -7.3038    0.5387 H   0  0  0  0  0  0  0  0  0  0  0  0
    3.6413   -5.7655    0.8943 H   0  0  0  0  0  0  0  0  0  0  0  0
    1.8647   -6.1077    0.9977 H   0  0  0  0  0  0  0  0  0  0  0  0
    1.5882   -9.4073    1.5700 H   0  0  0  0  0  0  0  0  0  0  0  0
   -0.4380   -9.3047    2.3631 H   0  0  0  0  0  0  0  0  0  0  0  0
    0.6544   -6.1849    4.0269 H   0  0  0  0  0  0  0  0  0  0  0  0
    1.3338   -7.4339    5.1638 H   0  0  0  0  0  0  0  0  0  0  0  0
   -0.0210   -6.5053    5.6943 H   0  0  0  0  0  0  0  0  0  0  0  0
   -1.6481   -6.7579    3.0453 H   0  0  0  0  0  0  0  0  0  0  0  0
   -2.1696   -7.0377    4.7110 H   0  0  0  0  0  0  0  0  0  0  0  0
   -2.4274   -8.3027    3.4956 H   0  0  0  0  0  0  0  0  0  0  0  0
   -1.1814   -9.7221    4.9344 H   0  0  0  0  0  0  0  0  0  0  0  0
    2.3632   -9.0325    4.9775 H   0  0  0  0  0  0  0  0  0  0  0  0
    4.4382   -5.8263    5.5436 H   0  0  0  0  0  0  0  0  0  0  0  0
    2.8054   -6.2765    5.8286 H   0  0  0  0  0  0  0  0  0  0  0  0
    3.3986  -10.8313    4.9247 H   0  0  0  0  0  0  0  0  0  0  0  0
    5.2803   -9.5939    6.0731 H   0  0  0  0  0  0  0  0  0  0  0  0
    5.6140  -11.1285    5.3960 H   0  0  0  0  0  0  0  0  0  0  0  0
    7.2946   -9.1740    5.1021 H   0  0  0  0  0  0  0  0  0  0  0  0
    7.3372  -11.2806    4.2131 H   0  0  0  0  0  0  0  0  0  0  0  0
    5.9586   -7.4446    3.9355 H   0  0  0  0  0  0  0  0  0  0  0  0
    7.3271   -7.9575    3.0726 H   0  0  0  0  0  0  0  0  0  0  0  0
    5.4792   -7.6257    1.5601 H   0  0  0  0  0  0  0  0  0  0  0  0
    6.1418   -9.2123    1.4825 H   0  0  0  0  0  0  0  0  0  0  0  0
    4.0269  -10.3580    0.6670 H   0  0  0  0  0  0  0  0  0  0  0  0
    4.9453  -11.1586    2.7075 H   0  0  0  0  0  0  0  0  0  0  0  0
    3.1934  -11.0837    2.6838 H   0  0  0  0  0  0  0  0  0  0  0  0
    5.3063   -4.2956    3.1368 H   0  0  0  0  0  0  0  0  0  0  0  0
  1  2  1  0
  1 39  1  0
  1 40  1  0
  1 41  1  0
  2  3  2  0
  2  4  1  0
  4  5  1  0
  5  9  1  0
  5  6  1  0
  5 42  1  6
  7  6  1  6
  6 43  1  0
  6 44  1  0
  7 36  1  0
  7 37  1  0
  7  8  1  0
  8  9  1  0
  9 10  1  0
  9 45  1  1
 10 11  1  0
 10 46  1  0
 10 47  1  0
 11 12  1  0
 11 48  1  0
 11 49  1  0
 12 13  1  1
 12 14  1  0
 12 36  1  0
 13 50  1  0
 13 51  1  0
 13 52  1  0
 14 26  1  0
 14 15  2  0
 15 16  1  0
 15 17  1  0
 16 53  1  0
 16 54  1  0
 16 55  1  0
 17 33  1  0
 17 18  1  6
 17 24  1  0
 18 19  2  3
 18 56  1  0
 19 20  1  0
 19 57  1  0
 20 21  1  0
 20 22  1  0
 20 23  1  0
 21 58  1  0
 21 59  1  0
 21 60  1  0
 22 61  1  0
 22 62  1  0
 22 63  1  0
 23 64  1  0
 24 25  1  0
 24 27  1  0
 24 65  1  1
 25 26  1  0
 26 66  1  0
 26 67  1  0
 27 35  1  0
 27 28  1  0
 27 68  1  1
 28 29  1  0
 28 69  1  0
 28 70  1  0
 29 30  1  0
 29 31  1  0
 29 71  1  1
 30 72  1  0
 31 32  1  0
 31 73  1  0
 31 74  1  0
 32 33  1  0
 32 75  1  0
 32 76  1  0
 33 34  1  6
 33 35  1  0
 34 77  1  0
 35 78  1  0
 35 79  1  0
 36 37  1  0
 36 80  1  6
 37 38  2  0
M  END
>  <i_m_ct_stereo_status>  (45) 
1

>  <s_m_source_file>  (45) 
/var/tmp/pbs.5076255.sched01/tmplremgrqo/0ygzoxw5b.sdf

>  <i_m_source_file_index>  (45) 
18

>  <i_lp_mmshare_version>  (45) 
48012

>  <i_f3d_flags>  (45) 
0

>  <s_epik_input>  (45) 
W0NIM11DKD1PKU9bQ0BIXShbQ0gyXTEpW0NASF0oTzIpW0NIMl1bQ0gyXVtDQF0oW0NIM10pKFtDSF0oQzEyMylDMz1PKUMoPUM0W0NIM10pW0NIMl1PW0NAQEhdKFtDQEBdNDUvW0NIXT1bQ0hdL0MoW0NIM10pKFtDSDNdKVtPSF0pW0NAQEhdNltDSDJdW0NAQEhdKFtPSF0pW0NIMl1bQ0gyXVtDQEBdNShbT0hdKVtDSDJdNg==

>  <s_epik_cmdline>  (45) 
J2VwaWtfcHl0aG9uJywgJy1waHQnLCAnMi4wJywgJy1waCcsICc3LjAnLCAnLXRuJywgJzgnLCAnLW1hJywgJzIwMCcsICctaW1hZScsICc8aW5maWxlLm1hZT4nLCAnLW9tYWUnLCAnPG91dGZpbGUubWFlPic=

>  <r_lp_tautomer_probability>  (45) 
1

>  <r_epik_Ionization_Penalty>  (45) 
8.27755e-07

>  <r_epik_Ionization_Penalty_Charging>  (45) 
0

>  <r_epik_Ionization_Penalty_Neutral>  (45) 
8.27755e-07

>  <r_epik_State_Penalty>  (45) 
-0

>  <r_epik_Charging_Adjusted_Penalty>  (45) 
0

>  <i_epik_Tot_Q>  (45) 
0

>  <i_epik_Tot_abs_Q>  (45) 
0

>  <s_epik_Chemistry_Notes>  (45) 
This compound has an ester and may undergo hydrolysis at high or low pH.

>  <s_lp_Force_Field>  (45) 
OPLS3e

>  <r_lp_Energy>  (45) 
84.0385

>  <b_lp_Chiralities_Consistent>  (45) 
1

>  <s_lp_Variant>  (45) 
10:0-4

>  <s_i_glide_gridfile>  (45) 
pfpi4k_grid

>  <i_i_glide_lignum>  (45) 
18

>  <i_i_glide_rotatable_bonds>  (45) 
8

>  <r_i_docking_score>  (45) 
-3.50004

>  <r_i_glide_ligand_efficiency>  (45) 
-0.0921064

>  <r_i_glide_ligand_efficiency_sa>  (45) 
-0.309659

>  <r_i_glide_ligand_efficiency_ln>  (45) 
-0.754712

>  <r_i_glide_gscore>  (45) 
-3.50004

>  <r_i_glide_lipo>  (45) 
-0.313037

>  <r_i_glide_hbond>  (45) 
-0.42989

>  <r_i_glide_metal>  (45) 
-0

>  <r_i_glide_rewards>  (45) 
-0.0444646

>  <r_i_glide_evdw>  (45) 
-28.7012

>  <r_i_glide_ecoul>  (45) 
-10.3537

>  <r_i_glide_erotb>  (45) 
0.29284

>  <r_i_glide_esite>  (45) 
-0.0173814

>  <r_i_glide_emodel>  (45) 
-43.3172

>  <r_i_glide_energy>  (45) 
-39.0548

>  <r_i_glide_einternal>  (45) 
8.94122

>  <r_i_glide_intrahb_reward>  (45) 
-0

>  <i_i_glide_confnum>  (45) 
4

>  <i_i_glide_posenum>  (45) 
8

>  <r_i_glide_eff_state_penalty>  (45) 
0

>  <ligand_id>  (45) 
10

>  <original_smiles>  (45) 
CC(=O)OC1CC23OC1CCC(C)(C1=C(C)C4(C=CC(C)(C)O)C(OC1)C1CC(O)CCC4(O)C1)C2C3=O

>  <smiles>  (45) 
[H]OC1([H])C([H])([H])C([H])([H])C2(O[H])C([H])([H])C([H])(C1([H])[H])C1([H])OC([H])([H])C(C3(C([H])([H])[H])C([H])([H])C([H])([H])C4([H])OC5(C(=O)C53[H])C([H])([H])C4([H])OC(=O)C([H])([H])[H])=C(C([H])([H])[H])C12C([H])=C([H])C(O[H])(C([H])([H])[H])C([H])([H])[H]

$$$$
10:3:2
     RDKit          3D

 80 85  0  0  1  0  0  0  0  0999 V2000
    1.4018    1.4328    2.3444 C   0  0  0  0  0  0  0  0  0  0  0  0
    1.0790    0.0223    2.8057 C   0  0  0  0  0  0  0  0  0  0  0  0
   -0.0494   -0.2530    3.2581 O   0  0  0  0  0  0  0  0  0  0  0  0
    2.0598   -0.8968    2.6895 O   0  0  0  0  0  0  0  0  0  0  0  0
    3.4360   -0.5502    2.5409 C   0  0  2  0  0  0  0  0  0  0  0  0
    4.0676   -1.2306    1.3314 C   0  0  0  0  0  0  0  0  0  0  0  0
    4.8453   -2.3003    2.0219 C   0  0  1  0  0  0  0  0  0  0  0  0
    5.3597   -1.7292    3.2013 O   0  0  0  0  0  0  0  0  0  0  0  0
    4.2540   -1.0554    3.7587 C   0  0  2  0  0  0  0  0  0  0  0  0
    3.6185   -2.0203    4.7932 C   0  0  0  0  0  0  0  0  0  0  0  0
    3.0755   -3.4045    4.3146 C   0  0  0  0  0  0  0  0  0  0  0  0
    4.0261   -4.3651    3.5238 C   0  0  1  0  0  0  0  0  0  0  0  0
    5.3917   -4.5315    4.2627 C   0  0  0  0  0  0  0  0  0  0  0  0
    3.2897   -5.7635    3.3719 C   0  0  0  0  0  0  0  0  0  0  0  0
    3.2667   -6.7908    4.2828 C   0  0  0  0  0  0  0  0  0  0  0  0
    3.8494   -6.7232    5.6865 C   0  0  0  0  0  0  0  0  0  0  0  0
    2.6716   -8.1921    3.9406 C   0  0  2  0  0  0  0  0  0  0  0  0
    3.8043   -9.2512    4.0523 C   0  0  0  0  0  0  0  0  0  0  0  0
    4.8229   -9.7000    3.2561 C   0  0  0  0  0  0  0  0  0  0  0  0
    5.3772   -9.3041    1.8897 C   0  0  0  0  0  0  0  0  0  0  0  0
    5.8660   -7.8546    1.8722 C   0  0  0  0  0  0  0  0  0  0  0  0
    6.5171  -10.2525    1.4754 C   0  0  0  0  0  0  0  0  0  0  0  0
    4.4311   -9.4541    0.8685 O   0  0  0  0  0  0  0  0  0  0  0  0
    1.9917   -8.2400    2.5436 C   0  0  2  0  0  0  0  0  0  0  0  0
    1.5628   -6.9695    2.0966 O   0  0  0  0  0  0  0  0  0  0  0  0
    2.5723   -5.9850    2.0355 C   0  0  0  0  0  0  0  0  0  0  0  0
    0.7844   -9.2074    2.6539 C   0  0  2  0  0  0  0  0  0  0  0  0
   -0.5746   -8.5945    2.2526 C   0  0  0  0  0  0  0  0  0  0  0  0
   -1.2683   -7.6872    3.2887 C   0  0  1  0  0  0  0  0  0  0  0  0
   -2.1871   -8.4369    4.0391 O   0  0  0  0  0  0  0  0  0  0  0  0
   -0.3974   -6.8010    4.2141 C   0  0  0  0  0  0  0  0  0  0  0  0
    0.4511   -7.5202    5.2844 C   0  0  0  0  0  0  0  0  0  0  0  0
    1.4603   -8.6281    4.8734 C   0  0  2  0  0  0  0  0  0  0  0  0
    1.8206   -9.1745    6.1368 O   0  0  0  0  0  0  0  0  0  0  0  0
    0.7941   -9.7522    4.0802 C   0  0  0  0  0  0  0  0  0  0  0  0
    4.2504   -3.6942    2.1277 C   0  0  2  0  0  0  0  0  0  0  0  0
    5.6111   -3.4571    1.4492 C   0  0  0  0  0  0  0  0  0  0  0  0
    6.5792   -3.8609    0.8425 O   0  0  0  0  0  0  0  0  0  0  0  0
    2.1571    1.8724    2.9991 H   0  0  0  0  0  0  0  0  0  0  0  0
    0.5290    2.0838    2.3598 H   0  0  0  0  0  0  0  0  0  0  0  0
    1.7890    1.4153    1.3216 H   0  0  0  0  0  0  0  0  0  0  0  0
    3.6125    0.5147    2.4302 H   0  0  0  0  0  0  0  0  0  0  0  0
    3.3450   -1.5938    0.5912 H   0  0  0  0  0  0  0  0  0  0  0  0
    4.7520   -0.5309    0.8480 H   0  0  0  0  0  0  0  0  0  0  0  0
    4.6245   -0.1809    4.2890 H   0  0  0  0  0  0  0  0  0  0  0  0
    4.3738   -2.1900    5.5602 H   0  0  0  0  0  0  0  0  0  0  0  0
    2.8168   -1.4807    5.2981 H   0  0  0  0  0  0  0  0  0  0  0  0
    2.7301   -3.9249    5.2077 H   0  0  0  0  0  0  0  0  0  0  0  0
    2.1678   -3.2336    3.7350 H   0  0  0  0  0  0  0  0  0  0  0  0
    5.9707   -3.6017    4.2821 H   0  0  0  0  0  0  0  0  0  0  0  0
    6.0048   -5.2682    3.7327 H   0  0  0  0  0  0  0  0  0  0  0  0
    5.2963   -4.8160    5.3054 H   0  0  0  0  0  0  0  0  0  0  0  0
    3.4413   -7.4558    6.3648 H   0  0  0  0  0  0  0  0  0  0  0  0
    3.6281   -5.7578    6.1435 H   0  0  0  0  0  0  0  0  0  0  0  0
    4.9313   -6.8805    5.6646 H   0  0  0  0  0  0  0  0  0  0  0  0
    3.8045   -9.7910    4.9819 H   0  0  0  0  0  0  0  0  0  0  0  0
    5.3829  -10.5092    3.7010 H   0  0  0  0  0  0  0  0  0  0  0  0
    6.6743   -7.6862    2.5915 H   0  0  0  0  0  0  0  0  0  0  0  0
    5.0562   -7.1828    2.1267 H   0  0  0  0  0  0  0  0  0  0  0  0
    6.2181   -7.5642    0.8874 H   0  0  0  0  0  0  0  0  0  0  0  0
    7.3436  -10.2261    2.1915 H   0  0  0  0  0  0  0  0  0  0  0  0
    6.9055   -9.9807    0.4909 H   0  0  0  0  0  0  0  0  0  0  0  0
    6.1681  -11.2837    1.4122 H   0  0  0  0  0  0  0  0  0  0  0  0
    4.2313  -10.3832    0.7618 H   0  0  0  0  0  0  0  0  0  0  0  0
    2.6303   -8.6102    1.7779 H   0  0  0  0  0  0  0  0  0  0  0  0
    1.9881   -5.1080    1.7691 H   0  0  0  0  0  0  0  0  0  0  0  0
    3.2726   -6.1917    1.2225 H   0  0  0  0  0  0  0  0  0  0  0  0
    0.9762  -10.0406    1.9841 H   0  0  0  0  0  0  0  0  0  0  0  0
   -0.4404   -8.0506    1.3156 H   0  0  0  0  0  0  0  0  0  0  0  0
   -1.2514   -9.4063    1.9845 H   0  0  0  0  0  0  0  0  0  0  0  0
   -1.8945   -7.0123    2.7072 H   0  0  0  0  0  0  0  0  0  0  0  0
   -1.7924   -9.2344    4.3748 H   0  0  0  0  0  0  0  0  0  0  0  0
    0.2022   -6.0850    3.6572 H   0  0  0  0  0  0  0  0  0  0  0  0
   -1.0808   -6.1517    4.7549 H   0  0  0  0  0  0  0  0  0  0  0  0
    0.9739   -6.7531    5.8552 H   0  0  0  0  0  0  0  0  0  0  0  0
   -0.2513   -7.9583    5.9936 H   0  0  0  0  0  0  0  0  0  0  0  0
    2.0876  -10.0728    6.0273 H   0  0  0  0  0  0  0  0  0  0  0  0
   -0.1835  -10.0404    4.4630 H   0  0  0  0  0  0  0  0  0  0  0  0
    1.4086  -10.6548    4.1152 H   0  0  0  0  0  0  0  0  0  0  0  0
    3.4044   -3.7741    1.4561 H   0  0  0  0  0  0  0  0  0  0  0  0
  1  2  1  0
  1 39  1  0
  1 40  1  0
  1 41  1  0
  2  3  2  0
  2  4  1  0
  4  5  1  0
  5  9  1  0
  5  6  1  0
  5 42  1  6
  7  6  1  6
  6 43  1  0
  6 44  1  0
  7 36  1  0
  7 37  1  0
  7  8  1  0
  8  9  1  0
  9 10  1  0
  9 45  1  1
 10 11  1  0
 10 46  1  0
 10 47  1  0
 11 12  1  0
 11 48  1  0
 11 49  1  0
 12 13  1  1
 12 14  1  0
 12 36  1  0
 13 50  1  0
 13 51  1  0
 13 52  1  0
 14 26  1  0
 14 15  2  0
 15 16  1  0
 15 17  1  0
 16 53  1  0
 16 54  1  0
 16 55  1  0
 17 33  1  0
 17 18  1  6
 17 24  1  0
 18 19  2  3
 18 56  1  0
 19 20  1  0
 19 57  1  0
 20 21  1  0
 20 22  1  0
 20 23  1  0
 21 58  1  0
 21 59  1  0
 21 60  1  0
 22 61  1  0
 22 62  1  0
 22 63  1  0
 23 64  1  0
 24 25  1  0
 24 27  1  0
 24 65  1  6
 25 26  1  0
 26 66  1  0
 26 67  1  0
 27 35  1  0
 27 28  1  0
 27 68  1  6
 28 29  1  0
 28 69  1  0
 28 70  1  0
 29 30  1  0
 29 31  1  0
 29 71  1  6
 30 72  1  0
 31 32  1  0
 31 73  1  0
 31 74  1  0
 32 33  1  0
 32 75  1  0
 32 76  1  0
 33 34  1  1
 33 35  1  0
 34 77  1  0
 35 78  1  0
 35 79  1  0
 36 37  1  0
 36 80  1  6
 37 38  2  0
M  END
>  <i_m_ct_stereo_status>  (46) 
1

>  <s_m_source_file>  (46) 
/var/tmp/pbs.5076255.sched01/tmplremgrqo/0ygzoxw5b.sdf

>  <i_m_source_file_index>  (46) 
18

>  <i_lp_mmshare_version>  (46) 
48012

>  <i_f3d_flags>  (46) 
0

>  <s_epik_input>  (46) 
W0NIM11DKD1PKU9bQ0BIXShbQ0gyXTEpW0NASF0oTzIpW0NIMl1bQ0gyXVtDQF0oW0NIM10pKFtDSF0oQzEyMylDMz1PKUMoPUM0W0NIM10pW0NIMl1PW0NAQEhdKFtDQEBdNDUvW0NIXT1bQ0hdL0MoW0NIM10pKFtDSDNdKVtPSF0pW0NAQEhdNltDSDJdW0NAQEhdKFtPSF0pW0NIMl1bQ0gyXVtDQEBdNShbT0hdKVtDSDJdNg==

>  <s_epik_cmdline>  (46) 
J2VwaWtfcHl0aG9uJywgJy1waHQnLCAnMi4wJywgJy1waCcsICc3LjAnLCAnLXRuJywgJzgnLCAnLW1hJywgJzIwMCcsICctaW1hZScsICc8aW5maWxlLm1hZT4nLCAnLW9tYWUnLCAnPG91dGZpbGUubWFlPic=

>  <r_lp_tautomer_probability>  (46) 
1

>  <r_epik_Ionization_Penalty>  (46) 
8.27755e-07

>  <r_epik_Ionization_Penalty_Charging>  (46) 
0

>  <r_epik_Ionization_Penalty_Neutral>  (46) 
8.27755e-07

>  <r_epik_State_Penalty>  (46) 
-0

>  <r_epik_Charging_Adjusted_Penalty>  (46) 
0

>  <i_epik_Tot_Q>  (46) 
0

>  <i_epik_Tot_abs_Q>  (46) 
0

>  <s_epik_Chemistry_Notes>  (46) 
This compound has an ester and may undergo hydrolysis at high or low pH.

>  <s_lp_Force_Field>  (46) 
OPLS3e

>  <r_lp_Energy>  (46) 
84.0385

>  <b_lp_Chiralities_Consistent>  (46) 
1

>  <s_lp_Variant>  (46) 
10:0-4

>  <s_i_glide_gridfile>  (46) 
pfpi4k_grid

>  <i_i_glide_lignum>  (46) 
18

>  <i_i_glide_rotatable_bonds>  (46) 
8

>  <r_i_docking_score>  (46) 
-2.95747

>  <r_i_glide_ligand_efficiency>  (46) 
-0.0778282

>  <r_i_glide_ligand_efficiency_sa>  (46) 
-0.261656

>  <r_i_glide_ligand_efficiency_ln>  (46) 
-0.637717

>  <r_i_glide_gscore>  (46) 
-2.95747

>  <r_i_glide_lipo>  (46) 
-0.140936

>  <r_i_glide_hbond>  (46) 
-0.284775

>  <r_i_glide_metal>  (46) 
-0

>  <r_i_glide_rewards>  (46) 
-0.083883

>  <r_i_glide_evdw>  (46) 
-32.3586

>  <r_i_glide_ecoul>  (46) 
-7.28876

>  <r_i_glide_erotb>  (46) 
0.29284

>  <r_i_glide_esite>  (46) 
-0.0294691

>  <r_i_glide_emodel>  (46) 
-40.4691

>  <r_i_glide_energy>  (46) 
-39.6474

>  <r_i_glide_einternal>  (46) 
16.025

>  <r_i_glide_intrahb_reward>  (46) 
-0

>  <i_i_glide_confnum>  (46) 
2

>  <i_i_glide_posenum>  (46) 
1

>  <r_i_glide_eff_state_penalty>  (46) 
0

>  <ligand_id>  (46) 
10

>  <original_smiles>  (46) 
CC(=O)OC1CC23OC1CCC(C)(C1=C(C)C4(C=CC(C)(C)O)C(OC1)C1CC(O)CCC4(O)C1)C2C3=O

>  <smiles>  (46) 
[H]OC1([H])C([H])([H])C([H])([H])C2(O[H])C([H])([H])C([H])(C1([H])[H])C1([H])OC([H])([H])C(C3(C([H])([H])[H])C([H])([H])C([H])([H])C4([H])OC5(C(=O)C53[H])C([H])([H])C4([H])OC(=O)C([H])([H])[H])=C(C([H])([H])[H])C12C([H])=C([H])C(O[H])(C([H])([H])[H])C([H])([H])[H]

$$$$
12:0:0
     RDKit          3D

 46 49  0  0  1  0  0  0  0  0999 V2000
    2.2682   -2.8943    4.6128 C   0  0  0  0  0  0  0  0  0  0  0  0
    2.7743   -3.6087    3.3403 C   0  0  1  0  0  0  0  0  0  0  0  0
    2.3084   -2.8761    2.0539 C   0  0  0  0  0  0  0  0  0  0  0  0
    3.2889   -1.8168    1.5039 C   0  0  1  0  0  0  0  0  0  0  0  0
    3.3194   -0.7034    2.3760 O   0  0  0  0  0  0  0  0  0  0  0  0
    4.7431   -2.3442    1.2670 C   0  0  1  0  0  0  0  0  0  0  0  0
    4.9978   -3.7167    1.9721 C   0  0  2  0  0  0  0  0  0  0  0  0
    4.7297   -4.9128    1.0539 C   0  0  0  0  0  0  0  0  0  0  0  0
    4.4491   -4.8039   -0.2581 C   0  0  0  0  0  0  0  0  0  0  0  0
    4.3468   -3.4684   -0.9674 C   0  0  2  0  0  0  0  0  0  0  0  0
    4.6401   -3.4995   -2.4842 C   0  0  0  0  0  0  0  0  0  0  0  0
    4.3974   -2.1207   -3.1082 C   0  0  0  0  0  0  0  0  0  0  0  0
    4.0875   -2.0407   -4.2992 O   0  0  0  0  0  0  0  0  0  0  0  0
    4.5961   -0.9335   -2.2499 C   0  0  0  0  0  0  0  0  0  0  0  0
    4.9611   -1.0565   -0.9546 C   0  0  0  0  0  0  0  0  0  0  0  0
    5.1797   -2.3819   -0.2387 C   0  0  1  0  0  0  0  0  0  0  0  0
    6.7051   -2.6543   -0.3336 C   0  0  0  0  0  0  0  0  0  0  0  0
    4.3125   -3.7827    3.3716 C   0  0  2  0  0  0  0  0  0  0  0  0
    4.5711   -5.0953    4.1456 C   0  0  0  0  0  0  0  0  0  0  0  0
    3.3508   -6.0016    3.9184 C   0  0  0  0  0  0  0  0  0  0  0  0
    2.2815   -5.0570    3.3971 C   0  0  0  0  0  0  0  0  0  0  0  0
    1.1489   -5.4205    3.0699 O   0  0  0  0  0  0  0  0  0  0  0  0
    2.7279   -1.9153    4.7389 H   0  0  0  0  0  0  0  0  0  0  0  0
    2.4875   -3.4660    5.5130 H   0  0  0  0  0  0  0  0  0  0  0  0
    1.1883   -2.7468    4.5891 H   0  0  0  0  0  0  0  0  0  0  0  0
    2.1450   -3.6052    1.2602 H   0  0  0  0  0  0  0  0  0  0  0  0
    1.3359   -2.4107    2.2178 H   0  0  0  0  0  0  0  0  0  0  0  0
    2.8690   -1.4362    0.5724 H   0  0  0  0  0  0  0  0  0  0  0  0
    2.4973   -0.2386    2.2962 H   0  0  0  0  0  0  0  0  0  0  0  0
    5.4115   -1.6305    1.7563 H   0  0  0  0  0  0  0  0  0  0  0  0
    6.0682   -3.7819    2.1706 H   0  0  0  0  0  0  0  0  0  0  0  0
    4.8060   -5.8959    1.4926 H   0  0  0  0  0  0  0  0  0  0  0  0
    4.2742   -5.6945   -0.8408 H   0  0  0  0  0  0  0  0  0  0  0  0
    3.2892   -3.2150   -0.8855 H   0  0  0  0  0  0  0  0  0  0  0  0
    5.6665   -3.8068   -2.6873 H   0  0  0  0  0  0  0  0  0  0  0  0
    3.9926   -4.2199   -2.9803 H   0  0  0  0  0  0  0  0  0  0  0  0
    4.4620    0.0399   -2.6985 H   0  0  0  0  0  0  0  0  0  0  0  0
    5.1136   -0.1732   -0.3533 H   0  0  0  0  0  0  0  0  0  0  0  0
    6.9867   -3.6423    0.0275 H   0  0  0  0  0  0  0  0  0  0  0  0
    7.2666   -1.9240    0.2496 H   0  0  0  0  0  0  0  0  0  0  0  0
    7.0693   -2.5863   -1.3603 H   0  0  0  0  0  0  0  0  0  0  0  0
    4.7425   -2.9637    3.9503 H   0  0  0  0  0  0  0  0  0  0  0  0
    5.5074   -5.5753    3.8610 H   0  0  0  0  0  0  0  0  0  0  0  0
    4.6417   -4.8707    5.2115 H   0  0  0  0  0  0  0  0  0  0  0  0
    3.5607   -6.7680    3.1730 H   0  0  0  0  0  0  0  0  0  0  0  0
    3.0355   -6.4978    4.8356 H   0  0  0  0  0  0  0  0  0  0  0  0
  2  1  1  1
  1 23  1  0
  1 24  1  0
  1 25  1  0
  2 18  1  0
  2 21  1  0
  2  3  1  0
  3  4  1  0
  3 26  1  0
  3 27  1  0
  4  5  1  0
  4  6  1  0
  4 28  1  6
  5 29  1  0
  6 16  1  0
  6  7  1  0
  6 30  1  1
  7  8  1  0
  7 18  1  0
  7 31  1  1
  8  9  2  0
  8 32  1  0
  9 10  1  0
  9 33  1  0
 10 16  1  0
 10 11  1  0
 10 34  1  6
 11 12  1  0
 11 35  1  0
 11 36  1  0
 12 13  2  0
 12 14  1  0
 14 15  2  0
 14 37  1  0
 15 16  1  0
 15 38  1  0
 16 17  1  1
 17 39  1  0
 17 40  1  0
 17 41  1  0
 18 19  1  0
 18 42  1  1
 19 20  1  0
 19 43  1  0
 19 44  1  0
 20 21  1  0
 20 45  1  0
 20 46  1  0
 21 22  2  0
M  END
>  <i_m_ct_stereo_status>  (47) 
1

>  <s_m_source_file>  (47) 
/var/tmp/pbs.5076255.sched01/tmplremgrqo/0ygzoxw5b.sdf

>  <i_m_source_file_index>  (47) 
21

>  <i_lp_mmshare_version>  (47) 
48012

>  <i_f3d_flags>  (47) 
0

>  <s_epik_input>  (47) 
Tz1DMVtDSDJdW0NIMl1bQ0BIXShbQ0BdMTJbQ0gzXSlbQ0BASF0zW0NASF0oW0NAQEhdKFtDSDJdMilbT0hdKVtDQEBdNChbQ0gzXSlbQ0BIXShbQ0hdPVtDSF0zKVtDSDJdQyg9TylbQ0hdPVtDSF00

>  <s_epik_cmdline>  (47) 
J2VwaWtfcHl0aG9uJywgJy1waHQnLCAnMi4wJywgJy1waCcsICc3LjAnLCAnLXRuJywgJzgnLCAnLW1hJywgJzIwMCcsICctaW1hZScsICc8aW5maWxlLm1hZT4nLCAnLW9tYWUnLCAnPG91dGZpbGUubWFlPic=

>  <r_lp_tautomer_probability>  (47) 
1

>  <r_epik_Ionization_Penalty>  (47) 
2.11323e-07

>  <r_epik_Ionization_Penalty_Charging>  (47) 
0

>  <r_epik_Ionization_Penalty_Neutral>  (47) 
2.11323e-07

>  <r_epik_State_Penalty>  (47) 
-0

>  <r_epik_Charging_Adjusted_Penalty>  (47) 
0

>  <i_epik_Tot_Q>  (47) 
0

>  <i_epik_Tot_abs_Q>  (47) 
0

>  <s_lp_Force_Field>  (47) 
OPLS3e

>  <r_lp_Energy>  (47) 
25.7391

>  <b_lp_Chiralities_Consistent>  (47) 
1

>  <s_lp_Variant>  (47) 
12:0-1

>  <s_i_glide_gridfile>  (47) 
pfpi4k_grid

>  <i_i_glide_lignum>  (47) 
21

>  <i_i_glide_rotatable_bonds>  (47) 
1

>  <r_i_docking_score>  (47) 
-3.92031

>  <r_i_glide_ligand_efficiency>  (47) 
-0.178196

>  <r_i_glide_ligand_efficiency_sa>  (47) 
-0.499312

>  <r_i_glide_ligand_efficiency_ln>  (47) 
-0.958267

>  <r_i_glide_gscore>  (47) 
-3.92031

>  <r_i_glide_lipo>  (47) 
-0.12571

>  <r_i_glide_hbond>  (47) 
-0.32

>  <r_i_glide_metal>  (47) 
-0

>  <r_i_glide_rewards>  (47) 
-1.5

>  <r_i_glide_evdw>  (47) 
-24.0325

>  <r_i_glide_ecoul>  (47) 
-5.15321

>  <r_i_glide_erotb>  (47) 
0

>  <r_i_glide_esite>  (47) 
0

>  <r_i_glide_emodel>  (47) 
-36.3775

>  <r_i_glide_energy>  (47) 
-29.1857

>  <r_i_glide_einternal>  (47) 
0.428208

>  <r_i_glide_intrahb_reward>  (47) 
-0

>  <i_i_glide_confnum>  (47) 
2

>  <i_i_glide_posenum>  (47) 
12

>  <r_i_glide_eff_state_penalty>  (47) 
0

>  <ligand_id>  (47) 
12

>  <original_smiles>  (47) 
CC12CC(O)C3C(C=CC4CC(=O)C=CC43C)C1CCC2=O

>  <smiles>  (47) 
[H]OC1([H])C([H])([H])C2(C([H])([H])[H])C(=O)C([H])([H])C([H])([H])C2([H])C2([H])C([H])=C([H])C3([H])C([H])([H])C(=O)C([H])=C([H])C3(C([H])([H])[H])C12[H]

$$$$
12:0:1
     RDKit          3D

 46 49  0  0  1  0  0  0  0  0999 V2000
    2.3793   -2.8140    4.6853 C   0  0  0  0  0  0  0  0  0  0  0  0
    2.8807   -3.5301    3.4109 C   0  0  1  0  0  0  0  0  0  0  0  0
    2.3354   -2.8489    2.1284 C   0  0  0  0  0  0  0  0  0  0  0  0
    3.2448   -1.7564    1.5243 C   0  0  1  0  0  0  0  0  0  0  0  0
    3.2509   -0.6270    2.3758 O   0  0  0  0  0  0  0  0  0  0  0  0
    4.7134   -2.2172    1.2463 C   0  0  1  0  0  0  0  0  0  0  0  0
    5.0588   -3.5597    1.9717 C   0  0  2  0  0  0  0  0  0  0  0  0
    4.8161   -4.7875    1.0833 C   0  0  0  0  0  0  0  0  0  0  0  0
    4.4859   -4.7222   -0.2184 C   0  0  0  0  0  0  0  0  0  0  0  0
    4.2992   -3.4079   -0.9524 C   0  0  2  0  0  0  0  0  0  0  0  0
    4.5484   -3.4580   -2.4747 C   0  0  0  0  0  0  0  0  0  0  0  0
    4.2199   -2.1051   -3.1182 C   0  0  0  0  0  0  0  0  0  0  0  0
    3.8698   -2.0663   -4.3010 O   0  0  0  0  0  0  0  0  0  0  0  0
    4.3841   -0.8931   -2.2903 C   0  0  0  0  0  0  0  0  0  0  0  0
    4.7905   -0.9697   -1.0035 C   0  0  0  0  0  0  0  0  0  0  0  0
    5.1008   -2.2665   -0.2691 C   0  0  1  0  0  0  0  0  0  0  0  0
    6.6329   -2.4649   -0.4091 C   0  0  0  0  0  0  0  0  0  0  0  0
    4.4252   -3.6300    3.3955 C   0  0  2  0  0  0  0  0  0  0  0  0
    4.7701   -4.9125    4.1842 C   0  0  0  0  0  0  0  0  0  0  0  0
    3.5890   -5.8801    4.0128 C   0  0  0  0  0  0  0  0  0  0  0  0
    2.4559   -4.9976    3.5111 C   0  0  0  0  0  0  0  0  0  0  0  0
    1.3318   -5.4177    3.2300 O   0  0  0  0  0  0  0  0  0  0  0  0
    2.7923   -1.8111    4.7776 H   0  0  0  0  0  0  0  0  0  0  0  0
    2.6545   -3.3551    5.5901 H   0  0  0  0  0  0  0  0  0  0  0  0
    1.2936   -2.7189    4.6946 H   0  0  0  0  0  0  0  0  0  0  0  0
    2.1800   -3.6016    1.3566 H   0  0  0  0  0  0  0  0  0  0  0  0
    1.3500   -2.4261    2.3166 H   0  0  0  0  0  0  0  0  0  0  0  0
    2.7670   -1.4143    0.6056 H   0  0  0  0  0  0  0  0  0  0  0  0
    3.5415    0.1254    1.8784 H   0  0  0  0  0  0  0  0  0  0  0  0
    5.3644   -1.4656    1.6983 H   0  0  0  0  0  0  0  0  0  0  0  0
    6.1371   -3.5693    2.1325 H   0  0  0  0  0  0  0  0  0  0  0  0
    4.9553   -5.7558    1.5423 H   0  0  0  0  0  0  0  0  0  0  0  0
    4.3321   -5.6309   -0.7807 H   0  0  0  0  0  0  0  0  0  0  0  0
    3.2336   -3.2019   -0.8380 H   0  0  0  0  0  0  0  0  0  0  0  0
    5.5806   -3.7208   -2.7031 H   0  0  0  0  0  0  0  0  0  0  0  0
    3.9180   -4.2136   -2.9337 H   0  0  0  0  0  0  0  0  0  0  0  0
    4.1866    0.0653   -2.7514 H   0  0  0  0  0  0  0  0  0  0  0  0
    4.9164   -0.0651   -0.4251 H   0  0  0  0  0  0  0  0  0  0  0  0
    6.9730   -3.4305   -0.0378 H   0  0  0  0  0  0  0  0  0  0  0  0
    7.1742   -1.6971    0.1433 H   0  0  0  0  0  0  0  0  0  0  0  0
    6.9571   -2.4009   -1.4472 H   0  0  0  0  0  0  0  0  0  0  0  0
    4.8339   -2.7804    3.9439 H   0  0  0  0  0  0  0  0  0  0  0  0
    5.7200   -5.3534    3.8764 H   0  0  0  0  0  0  0  0  0  0  0  0
    4.8634   -4.6653    5.2432 H   0  0  0  0  0  0  0  0  0  0  0  0
    3.8083   -6.6516    3.2753 H   0  0  0  0  0  0  0  0  0  0  0  0
    3.3278   -6.3729    4.9492 H   0  0  0  0  0  0  0  0  0  0  0  0
  2  1  1  1
  1 23  1  0
  1 24  1  0
  1 25  1  0
  2 18  1  0
  2 21  1  0
  2  3  1  0
  3  4  1  0
  3 26  1  0
  3 27  1  0
  4  5  1  0
  4  6  1  0
  4 28  1  6
  5 29  1  0
  6 16  1  0
  6  7  1  0
  6 30  1  1
  7  8  1  0
  7 18  1  0
  7 31  1  1
  8  9  2  0
  8 32  1  0
  9 10  1  0
  9 33  1  0
 10 16  1  0
 10 11  1  0
 10 34  1  6
 11 12  1  0
 11 35  1  0
 11 36  1  0
 12 13  2  0
 12 14  1  0
 14 15  2  0
 14 37  1  0
 15 16  1  0
 15 38  1  0
 16 17  1  1
 17 39  1  0
 17 40  1  0
 17 41  1  0
 18 19  1  0
 18 42  1  1
 19 20  1  0
 19 43  1  0
 19 44  1  0
 20 21  1  0
 20 45  1  0
 20 46  1  0
 21 22  2  0
M  END
>  <i_m_ct_stereo_status>  (48) 
1

>  <s_m_source_file>  (48) 
/var/tmp/pbs.5076255.sched01/tmplremgrqo/0ygzoxw5b.sdf

>  <i_m_source_file_index>  (48) 
21

>  <i_lp_mmshare_version>  (48) 
48012

>  <i_f3d_flags>  (48) 
0

>  <s_epik_input>  (48) 
Tz1DMVtDSDJdW0NIMl1bQ0BIXShbQ0BdMTJbQ0gzXSlbQ0BASF0zW0NASF0oW0NAQEhdKFtDSDJdMilbT0hdKVtDQEBdNChbQ0gzXSlbQ0BIXShbQ0hdPVtDSF0zKVtDSDJdQyg9TylbQ0hdPVtDSF00

>  <s_epik_cmdline>  (48) 
J2VwaWtfcHl0aG9uJywgJy1waHQnLCAnMi4wJywgJy1waCcsICc3LjAnLCAnLXRuJywgJzgnLCAnLW1hJywgJzIwMCcsICctaW1hZScsICc8aW5maWxlLm1hZT4nLCAnLW9tYWUnLCAnPG91dGZpbGUubWFlPic=

>  <r_lp_tautomer_probability>  (48) 
1

>  <r_epik_Ionization_Penalty>  (48) 
2.11323e-07

>  <r_epik_Ionization_Penalty_Charging>  (48) 
0

>  <r_epik_Ionization_Penalty_Neutral>  (48) 
2.11323e-07

>  <r_epik_State_Penalty>  (48) 
-0

>  <r_epik_Charging_Adjusted_Penalty>  (48) 
0

>  <i_epik_Tot_Q>  (48) 
0

>  <i_epik_Tot_abs_Q>  (48) 
0

>  <s_lp_Force_Field>  (48) 
OPLS3e

>  <r_lp_Energy>  (48) 
25.7391

>  <b_lp_Chiralities_Consistent>  (48) 
1

>  <s_lp_Variant>  (48) 
12:0-1

>  <s_i_glide_gridfile>  (48) 
pfpi4k_grid

>  <i_i_glide_lignum>  (48) 
21

>  <i_i_glide_rotatable_bonds>  (48) 
1

>  <r_i_docking_score>  (48) 
-3.84085

>  <r_i_glide_ligand_efficiency>  (48) 
-0.174584

>  <r_i_glide_ligand_efficiency_sa>  (48) 
-0.489192

>  <r_i_glide_ligand_efficiency_ln>  (48) 
-0.938844

>  <r_i_glide_gscore>  (48) 
-3.84085

>  <r_i_glide_lipo>  (48) 
-0.13118

>  <r_i_glide_hbond>  (48) 
-0.32

>  <r_i_glide_metal>  (48) 
-0

>  <r_i_glide_rewards>  (48) 
-1.5277

>  <r_i_glide_evdw>  (48) 
-24.5474

>  <r_i_glide_ecoul>  (48) 
-4.23069

>  <r_i_glide_erotb>  (48) 
0

>  <r_i_glide_esite>  (48) 
0

>  <r_i_glide_emodel>  (48) 
-35.7994

>  <r_i_glide_energy>  (48) 
-28.7781

>  <r_i_glide_einternal>  (48) 
0.471975

>  <r_i_glide_intrahb_reward>  (48) 
-0

>  <i_i_glide_confnum>  (48) 
1

>  <i_i_glide_posenum>  (48) 
23

>  <r_i_glide_eff_state_penalty>  (48) 
0

>  <ligand_id>  (48) 
12

>  <original_smiles>  (48) 
CC12CC(O)C3C(C=CC4CC(=O)C=CC43C)C1CCC2=O

>  <smiles>  (48) 
[H]OC1([H])C([H])([H])C2(C([H])([H])[H])C(=O)C([H])([H])C([H])([H])C2([H])C2([H])C([H])=C([H])C3([H])C([H])([H])C(=O)C([H])=C([H])C3(C([H])([H])[H])C12[H]

$$$$
12:0:2
     RDKit          3D

 46 49  0  0  1  0  0  0  0  0999 V2000
    3.3522   -1.9975    4.8980 C   0  0  0  0  0  0  0  0  0  0  0  0
    3.1791   -2.7754    3.5747 C   0  0  1  0  0  0  0  0  0  0  0  0
    2.7221   -1.8416    2.4197 C   0  0  0  0  0  0  0  0  0  0  0  0
    3.8730   -1.2315    1.5864 C   0  0  1  0  0  0  0  0  0  0  0  0
    4.5806   -0.2866    2.3693 O   0  0  0  0  0  0  0  0  0  0  0  0
    4.8790   -2.2830    1.0090 C   0  0  1  0  0  0  0  0  0  0  0  0
    4.7320   -3.6826    1.6878 C   0  0  2  0  0  0  0  0  0  0  0  0
    3.7680   -4.6017    0.9347 C   0  0  0  0  0  0  0  0  0  0  0  0
    3.2117   -4.2994   -0.2547 C   0  0  0  0  0  0  0  0  0  0  0  0
    3.4940   -3.0022   -0.9844 C   0  0  2  0  0  0  0  0  0  0  0  0
    3.3477   -3.0593   -2.5175 C   0  0  0  0  0  0  0  0  0  0  0  0
    3.5592   -1.6692   -3.1301 C   0  0  0  0  0  0  0  0  0  0  0  0
    3.0500   -1.4029   -4.2170 O   0  0  0  0  0  0  0  0  0  0  0  0
    4.4235   -0.7180   -2.4083 C   0  0  0  0  0  0  0  0  0  0  0  0
    5.0246   -1.0567   -1.2481 C   0  0  0  0  0  0  0  0  0  0  0  0
    4.8594   -2.3991   -0.5535 C   0  0  1  0  0  0  0  0  0  0  0  0
    6.0611   -3.2563   -1.0331 C   0  0  0  0  0  0  0  0  0  0  0  0
    4.4678   -3.5563    3.2166 C   0  0  2  0  0  0  0  0  0  0  0  0
    4.3634   -4.9085    3.9574 C   0  0  0  0  0  0  0  0  0  0  0  0
    2.8682   -5.2296    4.0996 C   0  0  0  0  0  0  0  0  0  0  0  0
    2.1809   -3.9037    3.8396 C   0  0  0  0  0  0  0  0  0  0  0  0
    0.9571   -3.7586    3.8508 O   0  0  0  0  0  0  0  0  0  0  0  0
    4.1840   -1.2945    4.8586 H   0  0  0  0  0  0  0  0  0  0  0  0
    3.5443   -2.6639    5.7382 H   0  0  0  0  0  0  0  0  0  0  0  0
    2.4577   -1.4265    5.1522 H   0  0  0  0  0  0  0  0  0  0  0  0
    2.0663   -2.3854    1.7381 H   0  0  0  0  0  0  0  0  0  0  0  0
    2.0984   -1.0356    2.8074 H   0  0  0  0  0  0  0  0  0  0  0  0
    3.4235   -0.6533    0.7777 H   0  0  0  0  0  0  0  0  0  0  0  0
    4.0014    0.4350    2.5708 H   0  0  0  0  0  0  0  0  0  0  0  0
    5.8801   -1.9296    1.2682 H   0  0  0  0  0  0  0  0  0  0  0  0
    5.6939   -4.1890    1.5976 H   0  0  0  0  0  0  0  0  0  0  0  0
    3.5539   -5.5596    1.3831 H   0  0  0  0  0  0  0  0  0  0  0  0
    2.5412   -5.0053   -0.7166 H   0  0  0  0  0  0  0  0  0  0  0  0
    2.6924   -2.3427   -0.6475 H   0  0  0  0  0  0  0  0  0  0  0  0
    4.0632   -3.7481   -2.9651 H   0  0  0  0  0  0  0  0  0  0  0  0
    2.3592   -3.4150   -2.7912 H   0  0  0  0  0  0  0  0  0  0  0  0
    4.5704    0.2573   -2.8513 H   0  0  0  0  0  0  0  0  0  0  0  0
    5.6579   -0.3383   -0.7489 H   0  0  0  0  0  0  0  0  0  0  0  0
    5.9952   -4.2930   -0.7110 H   0  0  0  0  0  0  0  0  0  0  0  0
    6.9983   -2.8548   -0.6521 H   0  0  0  0  0  0  0  0  0  0  0  0
    6.1444   -3.2729   -2.1202 H   0  0  0  0  0  0  0  0  0  0  0  0
    5.3251   -3.0167    3.6219 H   0  0  0  0  0  0  0  0  0  0  0  0
    4.9150   -5.7090    3.4612 H   0  0  0  0  0  0  0  0  0  0  0  0
    4.7853   -4.7991    4.9577 H   0  0  0  0  0  0  0  0  0  0  0  0
    2.5425   -5.9682    3.3666 H   0  0  0  0  0  0  0  0  0  0  0  0
    2.6241   -5.6099    5.0909 H   0  0  0  0  0  0  0  0  0  0  0  0
  2  1  1  1
  1 23  1  0
  1 24  1  0
  1 25  1  0
  2 18  1  0
  2 21  1  0
  2  3  1  0
  3  4  1  0
  3 26  1  0
  3 27  1  0
  4  5  1  0
  4  6  1  0
  4 28  1  6
  5 29  1  0
  6 16  1  0
  6  7  1  0
  6 30  1  6
  7  8  1  0
  7 18  1  0
  7 31  1  1
  8  9  2  0
  8 32  1  0
  9 10  1  0
  9 33  1  0
 10 16  1  0
 10 11  1  0
 10 34  1  1
 11 12  1  0
 11 35  1  0
 11 36  1  0
 12 13  2  0
 12 14  1  0
 14 15  2  0
 14 37  1  0
 15 16  1  0
 15 38  1  0
 16 17  1  6
 17 39  1  0
 17 40  1  0
 17 41  1  0
 18 19  1  0
 18 42  1  1
 19 20  1  0
 19 43  1  0
 19 44  1  0
 20 21  1  0
 20 45  1  0
 20 46  1  0
 21 22  2  0
M  END
>  <i_m_ct_stereo_status>  (49) 
1

>  <s_m_source_file>  (49) 
/var/tmp/pbs.5076255.sched01/tmplremgrqo/0ygzoxw5b.sdf

>  <i_m_source_file_index>  (49) 
21

>  <i_lp_mmshare_version>  (49) 
48012

>  <i_f3d_flags>  (49) 
0

>  <s_epik_input>  (49) 
Tz1DMVtDSDJdW0NIMl1bQ0BIXShbQ0BdMTJbQ0gzXSlbQ0BASF0zW0NASF0oW0NAQEhdKFtDSDJdMilbT0hdKVtDQEBdNChbQ0gzXSlbQ0BIXShbQ0hdPVtDSF0zKVtDSDJdQyg9TylbQ0hdPVtDSF00

>  <s_epik_cmdline>  (49) 
J2VwaWtfcHl0aG9uJywgJy1waHQnLCAnMi4wJywgJy1waCcsICc3LjAnLCAnLXRuJywgJzgnLCAnLW1hJywgJzIwMCcsICctaW1hZScsICc8aW5maWxlLm1hZT4nLCAnLW9tYWUnLCAnPG91dGZpbGUubWFlPic=

>  <r_lp_tautomer_probability>  (49) 
1

>  <r_epik_Ionization_Penalty>  (49) 
2.11323e-07

>  <r_epik_Ionization_Penalty_Charging>  (49) 
0

>  <r_epik_Ionization_Penalty_Neutral>  (49) 
2.11323e-07

>  <r_epik_State_Penalty>  (49) 
-0

>  <r_epik_Charging_Adjusted_Penalty>  (49) 
0

>  <i_epik_Tot_Q>  (49) 
0

>  <i_epik_Tot_abs_Q>  (49) 
0

>  <s_lp_Force_Field>  (49) 
OPLS3e

>  <r_lp_Energy>  (49) 
25.7391

>  <b_lp_Chiralities_Consistent>  (49) 
1

>  <s_lp_Variant>  (49) 
12:0-1

>  <s_i_glide_gridfile>  (49) 
pfpi4k_grid

>  <i_i_glide_lignum>  (49) 
21

>  <i_i_glide_rotatable_bonds>  (49) 
1

>  <r_i_docking_score>  (49) 
-3.01649

>  <r_i_glide_ligand_efficiency>  (49) 
-0.137113

>  <r_i_glide_ligand_efficiency_sa>  (49) 
-0.384196

>  <r_i_glide_ligand_efficiency_ln>  (49) 
-0.73734

>  <r_i_glide_gscore>  (49) 
-3.01649

>  <r_i_glide_lipo>  (49) 
-0.174628

>  <r_i_glide_hbond>  (49) 
0

>  <r_i_glide_metal>  (49) 
-0

>  <r_i_glide_rewards>  (49) 
-1.43385

>  <r_i_glide_evdw>  (49) 
-25.7467

>  <r_i_glide_ecoul>  (49) 
-0.804512

>  <r_i_glide_erotb>  (49) 
0

>  <r_i_glide_esite>  (49) 
0

>  <r_i_glide_emodel>  (49) 
-32.0916

>  <r_i_glide_energy>  (49) 
-26.5512

>  <r_i_glide_einternal>  (49) 
0.347251

>  <r_i_glide_intrahb_reward>  (49) 
-0

>  <i_i_glide_confnum>  (49) 
2

>  <i_i_glide_posenum>  (49) 
11

>  <r_i_glide_eff_state_penalty>  (49) 
0

>  <ligand_id>  (49) 
12

>  <original_smiles>  (49) 
CC12CC(O)C3C(C=CC4CC(=O)C=CC43C)C1CCC2=O

>  <smiles>  (49) 
[H]OC1([H])C([H])([H])C2(C([H])([H])[H])C(=O)C([H])([H])C([H])([H])C2([H])C2([H])C([H])=C([H])C3([H])C([H])([H])C(=O)C([H])=C([H])C3(C([H])([H])[H])C12[H]

$$$$
13:0:0
     RDKit          3D

 82 87  0  0  1  0  0  0  0  0999 V2000
    3.6645    0.3947    1.5868 C   0  0  0  0  0  0  0  0  0  0  0  0
    2.6461    0.7273    2.4009 C   0  0  0  0  0  0  0  0  0  0  0  0
    2.4446    0.6066    3.9674 C   0  0  2  0  0  0  0  0  0  0  0  0
    3.6365    0.1190    4.7554 C   0  0  2  0  0  0  0  0  0  0  0  0
    4.7662    0.8385    4.2867 O   0  0  0  0  0  0  0  0  0  0  0  0
    3.8039   -1.3977    4.2601 C   0  0  1  0  0  0  0  0  0  0  0  0
    4.6683   -2.3211    5.1451 C   0  0  0  0  0  0  0  0  0  0  0  0
    2.5621   -2.0651    3.4563 C   0  0  1  0  0  0  0  0  0  0  0  0
    2.4488   -3.5938    3.6170 C   0  0  0  0  0  0  0  0  0  0  0  0
    1.1380   -1.3206    3.4828 C   0  0  0  0  0  0  0  0  0  0  0  0
    1.1299   -0.1158    4.4852 C   0  0  1  0  0  0  0  0  0  0  0  0
    1.0456   -0.9734    5.8425 C   0  0  0  0  0  0  0  0  0  0  0  0
    1.7247   -1.9837    6.0496 O   0  0  0  0  0  0  0  0  0  0  0  0
   -0.0435   -0.7707    6.8771 C   0  0  1  0  0  0  0  0  0  0  0  0
   -0.1716   -1.9019    7.7360 O   0  0  0  0  0  0  0  0  0  0  0  0
    0.0613    0.5533    7.6727 C   0  0  2  0  0  0  0  0  0  0  0  0
    0.3359    0.2186    9.0299 O   0  0  0  0  0  0  0  0  0  0  0  0
   -1.3389    1.2502    7.5406 C   0  0  0  0  0  0  0  0  0  0  0  0
   -1.2011    2.3568    6.4619 C   0  0  0  0  0  0  0  0  0  0  0  0
    0.2137    2.1398    5.8281 C   0  0  1  0  0  0  0  0  0  0  0  0
    1.0755    3.4443    5.5347 C   0  0  1  0  0  0  0  0  0  0  0  0
    2.5781    3.1247    5.9593 C   0  0  1  0  0  0  0  0  0  0  0  0
    3.1180    4.2503    6.6302 O   0  0  0  0  0  0  0  0  0  0  0  0
    2.5776    1.7895    6.8293 C   0  0  2  0  0  0  0  0  0  0  0  0
    3.3069    2.0641    8.0385 O   0  0  0  0  0  0  0  0  0  0  0  0
    3.5490    0.5984    6.2980 C   0  0  1  0  0  0  0  0  0  0  0  0
    3.5764   -0.4498    7.2587 O   0  0  0  0  0  0  0  0  0  0  0  0
    0.9842    1.7194    7.1626 C   0  0  2  0  0  0  0  0  0  0  0  0
    0.8412    2.7960    8.3813 C   0  0  0  0  0  0  0  0  0  0  0  0
    0.7828    4.4445    4.3403 C   0  0  0  0  0  0  0  0  0  0  0  0
    0.8753    5.9046    4.8872 C   0  0  0  0  0  0  0  0  0  0  0  0
    1.8949    4.4233    3.2513 C   0  0  0  0  0  0  0  0  0  0  0  0
   -0.7029    4.3017    3.8109 C   0  0  1  0  0  0  0  0  0  0  0  0
   -1.0320    5.3240    2.8886 O   0  0  0  0  0  0  0  0  0  0  0  0
   -1.2066    2.9683    3.1905 C   0  0  0  0  0  0  0  0  0  0  0  0
   -0.2191    1.7954    3.2362 C   0  0  0  0  0  0  0  0  0  0  0  0
    0.0295    1.0608    4.5779 C   0  0  1  0  0  0  0  0  0  0  0  0
   -1.2216    0.3871    4.5631 O   0  0  0  0  0  0  0  0  0  0  0  0
    4.6095   -0.0369    1.8921 H   0  0  0  0  0  0  0  0  0  0  0  0
    3.5373    0.5579    0.5248 H   0  0  0  0  0  0  0  0  0  0  0  0
    1.8208    1.1227    1.8327 H   0  0  0  0  0  0  0  0  0  0  0  0
    2.3068    1.6335    4.1535 H   0  0  0  0  0  0  0  0  0  0  0  0
    4.4843    1.3908    3.5635 H   0  0  0  0  0  0  0  0  0  0  0  0
    4.5367   -1.3273    3.4534 H   0  0  0  0  0  0  0  0  0  0  0  0
    4.1275   -2.7469    5.9857 H   0  0  0  0  0  0  0  0  0  0  0  0
    5.5291   -1.7684    5.5275 H   0  0  0  0  0  0  0  0  0  0  0  0
    5.0785   -3.1411    4.5540 H   0  0  0  0  0  0  0  0  0  0  0  0
    2.8447   -1.9972    2.4112 H   0  0  0  0  0  0  0  0  0  0  0  0
    2.2786   -3.9158    4.6450 H   0  0  0  0  0  0  0  0  0  0  0  0
    3.3675   -4.0830    3.2846 H   0  0  0  0  0  0  0  0  0  0  0  0
    1.6432   -4.0068    3.0040 H   0  0  0  0  0  0  0  0  0  0  0  0
    0.8327   -0.9970    2.4753 H   0  0  0  0  0  0  0  0  0  0  0  0
    0.3648   -2.0366    3.7482 H   0  0  0  0  0  0  0  0  0  0  0  0
   -0.9834   -0.8511    6.3616 H   0  0  0  0  0  0  0  0  0  0  0  0
    0.6608   -1.9874    8.1827 H   0  0  0  0  0  0  0  0  0  0  0  0
    0.3254    1.0127    9.5528 H   0  0  0  0  0  0  0  0  0  0  0  0
   -2.1306    0.5620    7.2537 H   0  0  0  0  0  0  0  0  0  0  0  0
   -1.6815    1.6754    8.4836 H   0  0  0  0  0  0  0  0  0  0  0  0
   -2.0319    2.3234    5.7624 H   0  0  0  0  0  0  0  0  0  0  0  0
   -1.3027    3.3432    6.9109 H   0  0  0  0  0  0  0  0  0  0  0  0
    0.7095    4.0850    6.3278 H   0  0  0  0  0  0  0  0  0  0  0  0
    3.2728    3.0415    5.1264 H   0  0  0  0  0  0  0  0  0  0  0  0
    3.1532    4.9706    6.0189 H   0  0  0  0  0  0  0  0  0  0  0  0
    3.1366    1.3586    8.6480 H   0  0  0  0  0  0  0  0  0  0  0  0
    4.5517    0.9982    6.4822 H   0  0  0  0  0  0  0  0  0  0  0  0
    3.9621   -0.1296    8.0648 H   0  0  0  0  0  0  0  0  0  0  0  0
    1.3848    3.7250    8.2441 H   0  0  0  0  0  0  0  0  0  0  0  0
    1.2464    2.4251    9.3222 H   0  0  0  0  0  0  0  0  0  0  0  0
   -0.1523    3.1344    8.6454 H   0  0  0  0  0  0  0  0  0  0  0  0
    0.7950    6.6409    4.0847 H   0  0  0  0  0  0  0  0  0  0  0  0
    1.8261    6.1085    5.3756 H   0  0  0  0  0  0  0  0  0  0  0  0
    0.0917    6.1322    5.6068 H   0  0  0  0  0  0  0  0  0  0  0  0
    1.5337    4.8761    2.3338 H   0  0  0  0  0  0  0  0  0  0  0  0
    2.2951    3.4498    2.9964 H   0  0  0  0  0  0  0  0  0  0  0  0
    2.7617    5.0109    3.5420 H   0  0  0  0  0  0  0  0  0  0  0  0
   -1.3468    4.4817    4.6745 H   0  0  0  0  0  0  0  0  0  0  0  0
   -0.5833    5.1154    2.0533 H   0  0  0  0  0  0  0  0  0  0  0  0
   -2.1966    2.6963    3.5705 H   0  0  0  0  0  0  0  0  0  0  0  0
   -1.3846    3.1276    2.1248 H   0  0  0  0  0  0  0  0  0  0  0  0
   -0.4812    1.0801    2.4524 H   0  0  0  0  0  0  0  0  0  0  0  0
    0.6680    2.2576    2.8727 H   0  0  0  0  0  0  0  0  0  0  0  0
   -1.8665    0.9591    4.1626 H   0  0  0  0  0  0  0  0  0  0  0  0
  1  2  2  0
  1 39  1  0
  1 40  1  0
  2  3  1  0
  2 41  1  0
  3 11  1  0
  3  4  1  0
  3 42  1  1
  4 26  1  0
  4  5  1  6
  4  6  1  0
  5 43  1  0
  6  7  1  0
  6  8  1  0
  6 44  1  6
  7 45  1  0
  7 46  1  0
  7 47  1  0
  8  9  1  0
  8 10  1  0
  8 48  1  6
  9 49  1  0
  9 50  1  0
  9 51  1  0
 11 10  1  6
 10 52  1  0
 10 53  1  0
 11 37  1  0
 11 12  1  0
 12 13  2  0
 12 14  1  0
 14 15  1  0
 14 16  1  0
 14 54  1  6
 15 55  1  0
 16 28  1  0
 16 17  1  1
 16 18  1  0
 17 56  1  0
 18 19  1  0
 18 57  1  0
 18 58  1  0
 20 19  1  1
 19 59  1  0
 19 60  1  0
 20 28  1  0
 20 37  1  0
 20 21  1  0
 21 22  1  0
 21 30  1  0
 21 61  1  1
 22 23  1  0
 22 24  1  0
 22 62  1  6
 23 63  1  0
 24 25  1  1
 24 26  1  0
 24 28  1  0
 25 64  1  0
 26 27  1  0
 26 65  1  1
 27 66  1  0
 28 29  1  1
 29 67  1  0
 29 68  1  0
 29 69  1  0
 30 31  1  0
 30 32  1  0
 30 33  1  0
 31 70  1  0
 31 71  1  0
 31 72  1  0
 32 73  1  0
 32 74  1  0
 32 75  1  0
 33 34  1  0
 33 35  1  0
 33 76  1  1
 34 77  1  0
 35 36  1  0
 35 78  1  0
 35 79  1  0
 36 37  1  0
 36 80  1  0
 36 81  1  0
 37 38  1  1
 38 82  1  0
M  END
>  <i_m_ct_stereo_status>  (50) 
1

>  <s_m_source_file>  (50) 
/var/tmp/pbs.5076255.sched01/tmplremgrqo/0ygzoxw5b.sdf

>  <i_m_source_file_index>  (50) 
22

>  <i_lp_mmshare_version>  (50) 
48012

>  <i_f3d_flags>  (50) 
0

>  <s_epik_input>  (50) 
W0NIMl09W0NIXVtDQEBIXTFbQ0BdKFtPSF0pKFtDQEBIXShbQ0gzXSlbQ0BASF0oW0NIM10pW0NIMl0yKVtDQEhdKFtPSF0pW0NAXShbT0hdKShbQ0BdMyhbQ0gzXSlbQ0BdKFtPSF0pKFtDQEBIXShDND1PKVtPSF0pW0NIMl1bQ0gyXTUpW0NASF0oW09IXSlbQ0BIXShbQ0BAXTM1W0NAQF02KFtDQF0xMjQpW09IXSlDKFtDSDNdKShbQ0gzXSlbQ0BASF0oW09IXSlbQ0gyXVtDSDJdNg==

>  <s_epik_cmdline>  (50) 
J2VwaWtfcHl0aG9uJywgJy1waHQnLCAnMi4wJywgJy1waCcsICc3LjAnLCAnLXRuJywgJzgnLCAnLW1hJywgJzIwMCcsICctaW1hZScsICc8aW5maWxlLm1hZT4nLCAnLW9tYWUnLCAnPG91dGZpbGUubWFlPic=

>  <r_lp_tautomer_probability>  (50) 
1

>  <r_epik_Ionization_Penalty>  (50) 
1.66649e-06

>  <r_epik_Ionization_Penalty_Charging>  (50) 
0

>  <r_epik_Ionization_Penalty_Neutral>  (50) 
1.66649e-06

>  <r_epik_State_Penalty>  (50) 
-0

>  <r_epik_Charging_Adjusted_Penalty>  (50) 
0

>  <i_epik_Tot_Q>  (50) 
0

>  <i_epik_Tot_abs_Q>  (50) 
0

>  <s_lp_Force_Field>  (50) 
OPLS3e

>  <r_lp_Energy>  (50) 
271.308

>  <b_lp_Chiralities_Consistent>  (50) 
1

>  <s_lp_Variant>  (50) 
13:0-1

>  <s_i_glide_gridfile>  (50) 
pfpi4k_grid

>  <i_i_glide_lignum>  (50) 
22

>  <i_i_glide_rotatable_bonds>  (50) 
9

>  <r_i_docking_score>  (50) 
-3.28735

>  <r_i_glide_ligand_efficiency>  (50) 
-0.0865091

>  <r_i_glide_ligand_efficiency_sa>  (50) 
-0.290841

>  <r_i_glide_ligand_efficiency_ln>  (50) 
-0.708848

>  <r_i_glide_gscore>  (50) 
-3.28735

>  <r_i_glide_lipo>  (50) 
-0.0926288

>  <r_i_glide_hbond>  (50) 
-0.32

>  <r_i_glide_metal>  (50) 
-0

>  <r_i_glide_rewards>  (50) 
0

>  <r_i_glide_evdw>  (50) 
-23.2923

>  <r_i_glide_ecoul>  (50) 
-11.8669

>  <r_i_glide_erotb>  (50) 
0.071708

>  <r_i_glide_esite>  (50) 
-0.00177521

>  <r_i_glide_emodel>  (50) 
-40.6503

>  <r_i_glide_energy>  (50) 
-35.1592

>  <r_i_glide_einternal>  (50) 
4.34081

>  <r_i_glide_intrahb_reward>  (50) 
-0

>  <i_i_glide_confnum>  (50) 
4

>  <i_i_glide_posenum>  (50) 
28

>  <r_i_glide_eff_state_penalty>  (50) 
0

>  <ligand_id>  (50) 
13

>  <original_smiles>  (50) 
C=CC1C2(O)C(C)C(C)CC13C(=O)C(O)C1(O)CCC45C(C(O)C(O)(C2O)C14C)C(C)(C)C(O)CCC35O

>  <smiles>  (50) 
[H]OC1([H])C(=O)C23C([H])([H])C([H])(C([H])([H])[H])C([H])(C([H])([H])[H])C(O[H])(C([H])(O[H])C4(O[H])C([H])(O[H])C5([H])C(C([H])([H])[H])(C([H])([H])[H])C([H])(O[H])C([H])([H])C([H])([H])C2(O[H])C52C([H])([H])C([H])([H])C1(O[H])C42C([H])([H])[H])C3([H])C([H])=C([H])[H]

$$$$
13:0:1
     RDKit          3D

 82 87  0  0  1  0  0  0  0  0999 V2000
    0.5594   -6.6500    1.1873 C   0  0  0  0  0  0  0  0  0  0  0  0
    1.7198   -5.9274    1.1256 C   0  0  0  0  0  0  0  0  0  0  0  0
    2.9427   -5.6818    2.1157 C   0  0  2  0  0  0  0  0  0  0  0  0
    3.1109   -4.2341    2.5600 C   0  0  2  0  0  0  0  0  0  0  0  0
    1.8104   -3.8306    2.9820 O   0  0  0  0  0  0  0  0  0  0  0  0
    3.4202   -3.4530    1.1880 C   0  0  1  0  0  0  0  0  0  0  0  0
    4.0379   -2.0439    1.3440 C   0  0  0  0  0  0  0  0  0  0  0  0
    3.9586   -4.3286   -0.0686 C   0  0  1  0  0  0  0  0  0  0  0  0
    4.8982   -3.5910   -1.0436 C   0  0  0  0  0  0  0  0  0  0  0  0
    4.3330   -5.8774    0.1794 C   0  0  0  0  0  0  0  0  0  0  0  0
    4.3934   -6.2326    1.7010 C   0  0  1  0  0  0  0  0  0  0  0  0
    5.7943   -5.5010    2.0339 C   0  0  0  0  0  0  0  0  0  0  0  0
    6.0466   -4.3529    1.7060 O   0  0  0  0  0  0  0  0  0  0  0  0
    6.9819   -6.2449    2.6498 C   0  0  1  0  0  0  0  0  0  0  0  0
    8.2095   -5.5444    2.4202 O   0  0  0  0  0  0  0  0  0  0  0  0
    6.7756   -6.6262    4.1401 C   0  0  2  0  0  0  0  0  0  0  0  0
    7.7091   -5.8830    4.9201 O   0  0  0  0  0  0  0  0  0  0  0  0
    7.0779   -8.1601    4.2217 C   0  0  0  0  0  0  0  0  0  0  0  0
    5.7011   -8.8852    4.2738 C   0  0  0  0  0  0  0  0  0  0  0  0
    4.6281   -7.7871    3.9934 C   0  0  1  0  0  0  0  0  0  0  0  0
    3.3095   -7.8249    4.8888 C   0  0  1  0  0  0  0  0  0  0  0  0
    2.9618   -6.3104    5.2715 C   0  0  1  0  0  0  0  0  0  0  0  0
    2.5269   -6.2347    6.6207 O   0  0  0  0  0  0  0  0  0  0  0  0
    4.2302   -5.4060    4.9369 C   0  0  2  0  0  0  0  0  0  0  0  0
    4.5247   -4.6388    6.1089 O   0  0  0  0  0  0  0  0  0  0  0  0
    3.9652   -4.1346    3.9452 C   0  0  1  0  0  0  0  0  0  0  0  0
    5.1192   -3.2998    3.9218 O   0  0  0  0  0  0  0  0  0  0  0  0
    5.3338   -6.5925    4.7847 C   0  0  2  0  0  0  0  0  0  0  0  0
    5.6753   -6.9377    6.3386 C   0  0  0  0  0  0  0  0  0  0  0  0
    2.1416   -8.8998    4.7211 C   0  0  0  0  0  0  0  0  0  0  0  0
    1.7087   -9.4136    6.1270 C   0  0  0  0  0  0  0  0  0  0  0  0
    0.8385   -8.2799    4.2230 C   0  0  0  0  0  0  0  0  0  0  0  0
    2.6358  -10.1656    3.9162 C   0  0  1  0  0  0  0  0  0  0  0  0
    1.6463  -11.1868    3.9059 O   0  0  0  0  0  0  0  0  0  0  0  0
    3.1307  -10.0305    2.4496 C   0  0  0  0  0  0  0  0  0  0  0  0
    3.2561   -8.6177    1.8706 C   0  0  0  0  0  0  0  0  0  0  0  0
    4.4281   -7.7092    2.3417 C   0  0  1  0  0  0  0  0  0  0  0  0
    5.4148   -8.4188    1.5921 O   0  0  0  0  0  0  0  0  0  0  0  0
    0.2148   -7.2293    1.9992 H   0  0  0  0  0  0  0  0  0  0  0  0
   -0.0534   -6.6343    0.3143 H   0  0  0  0  0  0  0  0  0  0  0  0
    1.7720   -5.4317    0.1835 H   0  0  0  0  0  0  0  0  0  0  0  0
    2.6495   -6.2568    2.9435 H   0  0  0  0  0  0  0  0  0  0  0  0
    1.3352   -3.4658    2.2542 H   0  0  0  0  0  0  0  0  0  0  0  0
    2.4275   -3.1733    0.8273 H   0  0  0  0  0  0  0  0  0  0  0  0
    5.1125   -2.0641    1.5124 H   0  0  0  0  0  0  0  0  0  0  0  0
    3.5839   -1.5082    2.1773 H   0  0  0  0  0  0  0  0  0  0  0  0
    3.8647   -1.4349    0.4555 H   0  0  0  0  0  0  0  0  0  0  0  0
    3.1249   -4.3639   -0.7583 H   0  0  0  0  0  0  0  0  0  0  0  0
    5.8383   -3.3185   -0.5740 H   0  0  0  0  0  0  0  0  0  0  0  0
    4.4297   -2.6773   -1.4222 H   0  0  0  0  0  0  0  0  0  0  0  0
    5.1148   -4.2110   -1.9162 H   0  0  0  0  0  0  0  0  0  0  0  0
    3.6435   -6.5562   -0.3269 H   0  0  0  0  0  0  0  0  0  0  0  0
    5.2784   -6.0862   -0.3189 H   0  0  0  0  0  0  0  0  0  0  0  0
    7.1759   -7.1060    2.0269 H   0  0  0  0  0  0  0  0  0  0  0  0
    8.9359   -6.1158    2.6180 H   0  0  0  0  0  0  0  0  0  0  0  0
    8.5612   -5.9444    4.5203 H   0  0  0  0  0  0  0  0  0  0  0  0
    7.6855   -8.5308    3.3962 H   0  0  0  0  0  0  0  0  0  0  0  0
    7.6667   -8.4093    5.1036 H   0  0  0  0  0  0  0  0  0  0  0  0
    5.6738   -9.7339    3.5986 H   0  0  0  0  0  0  0  0  0  0  0  0
    5.5499   -9.3544    5.2442 H   0  0  0  0  0  0  0  0  0  0  0  0
    3.7083   -8.2388    5.8068 H   0  0  0  0  0  0  0  0  0  0  0  0
    2.0772   -5.8971    4.7938 H   0  0  0  0  0  0  0  0  0  0  0  0
    2.3502   -5.3271    6.8166 H   0  0  0  0  0  0  0  0  0  0  0  0
    5.3055   -4.1344    5.9262 H   0  0  0  0  0  0  0  0  0  0  0  0
    3.3516   -3.4586    4.5485 H   0  0  0  0  0  0  0  0  0  0  0  0
    5.7232   -3.6287    3.2652 H   0  0  0  0  0  0  0  0  0  0  0  0
    4.8241   -6.9928    7.0066 H   0  0  0  0  0  0  0  0  0  0  0  0
    6.2961   -6.1818    6.8184 H   0  0  0  0  0  0  0  0  0  0  0  0
    6.2068   -7.8561    6.5526 H   0  0  0  0  0  0  0  0  0  0  0  0
    0.8203  -10.0554    6.0582 H   0  0  0  0  0  0  0  0  0  0  0  0
    1.4296   -8.5794    6.7774 H   0  0  0  0  0  0  0  0  0  0  0  0
    2.4967   -9.9934    6.6235 H   0  0  0  0  0  0  0  0  0  0  0  0
    0.2276   -8.9606    3.6437 H   0  0  0  0  0  0  0  0  0  0  0  0
    1.1609   -7.4454    3.6688 H   0  0  0  0  0  0  0  0  0  0  0  0
    0.2156   -7.8488    5.0001 H   0  0  0  0  0  0  0  0  0  0  0  0
    3.4768  -10.5864    4.4772 H   0  0  0  0  0  0  0  0  0  0  0  0
    2.0338  -11.9905    3.5894 H   0  0  0  0  0  0  0  0  0  0  0  0
    4.0484  -10.6026    2.3010 H   0  0  0  0  0  0  0  0  0  0  0  0
    2.4246  -10.5366    1.7933 H   0  0  0  0  0  0  0  0  0  0  0  0
    3.2777   -8.7037    0.7830 H   0  0  0  0  0  0  0  0  0  0  0  0
    2.3008   -8.1922    2.0759 H   0  0  0  0  0  0  0  0  0  0  0  0
    6.2756   -8.1127    1.8108 H   0  0  0  0  0  0  0  0  0  0  0  0
  1  2  2  0
  1 39  1  0
  1 40  1  0
  2  3  1  0
  2 41  1  0
  3 11  1  0
  3  4  1  0
  3 42  1  1
  4 26  1  0
  4  5  1  1
  4  6  1  0
  5 43  1  0
  6  7  1  0
  6  8  1  0
  6 44  1  6
  7 45  1  0
  7 46  1  0
  7 47  1  0
  8  9  1  0
  8 10  1  0
  8 48  1  6
  9 49  1  0
  9 50  1  0
  9 51  1  0
 11 10  1  6
 10 52  1  0
 10 53  1  0
 11 37  1  0
 11 12  1  0
 12 13  2  0
 12 14  1  0
 14 15  1  0
 14 16  1  0
 14 54  1  6
 15 55  1  0
 16 28  1  0
 16 17  1  1
 16 18  1  0
 17 56  1  0
 18 19  1  0
 18 57  1  0
 18 58  1  0
 20 19  1  6
 19 59  1  0
 19 60  1  0
 20 28  1  0
 20 37  1  0
 20 21  1  0
 21 22  1  0
 21 30  1  0
 21 61  1  1
 22 23  1  0
 22 24  1  0
 22 62  1  6
 23 63  1  0
 24 25  1  1
 24 26  1  0
 24 28  1  0
 25 64  1  0
 26 27  1  0
 26 65  1  1
 27 66  1  0
 28 29  1  1
 29 67  1  0
 29 68  1  0
 29 69  1  0
 30 31  1  0
 30 32  1  0
 30 33  1  0
 31 70  1  0
 31 71  1  0
 31 72  1  0
 32 73  1  0
 32 74  1  0
 32 75  1  0
 33 34  1  0
 33 35  1  0
 33 76  1  1
 34 77  1  0
 35 36  1  0
 35 78  1  0
 35 79  1  0
 36 37  1  0
 36 80  1  0
 36 81  1  0
 37 38  1  6
 38 82  1  0
M  END
>  <i_m_ct_stereo_status>  (51) 
1

>  <s_m_source_file>  (51) 
/var/tmp/pbs.5076255.sched01/tmplremgrqo/0ygzoxw5b.sdf

>  <i_m_source_file_index>  (51) 
22

>  <i_lp_mmshare_version>  (51) 
48012

>  <i_f3d_flags>  (51) 
0

>  <s_epik_input>  (51) 
W0NIMl09W0NIXVtDQEBIXTFbQ0BdKFtPSF0pKFtDQEBIXShbQ0gzXSlbQ0BASF0oW0NIM10pW0NIMl0yKVtDQEhdKFtPSF0pW0NAXShbT0hdKShbQ0BdMyhbQ0gzXSlbQ0BdKFtPSF0pKFtDQEBIXShDND1PKVtPSF0pW0NIMl1bQ0gyXTUpW0NASF0oW09IXSlbQ0BIXShbQ0BAXTM1W0NAQF02KFtDQF0xMjQpW09IXSlDKFtDSDNdKShbQ0gzXSlbQ0BASF0oW09IXSlbQ0gyXVtDSDJdNg==

>  <s_epik_cmdline>  (51) 
J2VwaWtfcHl0aG9uJywgJy1waHQnLCAnMi4wJywgJy1waCcsICc3LjAnLCAnLXRuJywgJzgnLCAnLW1hJywgJzIwMCcsICctaW1hZScsICc8aW5maWxlLm1hZT4nLCAnLW9tYWUnLCAnPG91dGZpbGUubWFlPic=

>  <r_lp_tautomer_probability>  (51) 
1

>  <r_epik_Ionization_Penalty>  (51) 
1.66649e-06

>  <r_epik_Ionization_Penalty_Charging>  (51) 
0

>  <r_epik_Ionization_Penalty_Neutral>  (51) 
1.66649e-06

>  <r_epik_State_Penalty>  (51) 
-0

>  <r_epik_Charging_Adjusted_Penalty>  (51) 
0

>  <i_epik_Tot_Q>  (51) 
0

>  <i_epik_Tot_abs_Q>  (51) 
0

>  <s_lp_Force_Field>  (51) 
OPLS3e

>  <r_lp_Energy>  (51) 
271.308

>  <b_lp_Chiralities_Consistent>  (51) 
1

>  <s_lp_Variant>  (51) 
13:0-1

>  <s_i_glide_gridfile>  (51) 
pfpi4k_grid

>  <i_i_glide_lignum>  (51) 
22

>  <i_i_glide_rotatable_bonds>  (51) 
9

>  <r_i_docking_score>  (51) 
-2.75811

>  <r_i_glide_ligand_efficiency>  (51) 
-0.0725819

>  <r_i_glide_ligand_efficiency_sa>  (51) 
-0.244019

>  <r_i_glide_ligand_efficiency_ln>  (51) 
-0.59473

>  <r_i_glide_gscore>  (51) 
-2.75811

>  <r_i_glide_lipo>  (51) 
-0.15022

>  <r_i_glide_hbond>  (51) 
0

>  <r_i_glide_metal>  (51) 
-0

>  <r_i_glide_rewards>  (51) 
-0.553232

>  <r_i_glide_evdw>  (51) 
-30.3078

>  <r_i_glide_ecoul>  (51) 
-4.07319

>  <r_i_glide_erotb>  (51) 
0.071708

>  <r_i_glide_esite>  (51) 
0

>  <r_i_glide_emodel>  (51) 
-44.2723

>  <r_i_glide_energy>  (51) 
-34.381

>  <r_i_glide_einternal>  (51) 
1.31884

>  <r_i_glide_intrahb_reward>  (51) 
-0.5

>  <i_i_glide_confnum>  (51) 
3

>  <i_i_glide_posenum>  (51) 
11

>  <r_i_glide_eff_state_penalty>  (51) 
0

>  <ligand_id>  (51) 
13

>  <original_smiles>  (51) 
C=CC1C2(O)C(C)C(C)CC13C(=O)C(O)C1(O)CCC45C(C(O)C(O)(C2O)C14C)C(C)(C)C(O)CCC35O

>  <smiles>  (51) 
[H]OC1([H])C(=O)C23C([H])([H])C([H])(C([H])([H])[H])C([H])(C([H])([H])[H])C(O[H])(C([H])(O[H])C4(O[H])C([H])(O[H])C5([H])C(C([H])([H])[H])(C([H])([H])[H])C([H])(O[H])C([H])([H])C([H])([H])C2(O[H])C52C([H])([H])C([H])([H])C1(O[H])C42C([H])([H])[H])C3([H])C([H])=C([H])[H]

$$$$
13:0:2
     RDKit          3D

 82 87  0  0  1  0  0  0  0  0999 V2000
    0.7240   -6.7722    1.3828 C   0  0  0  0  0  0  0  0  0  0  0  0
    1.8414   -6.0189    1.2595 C   0  0  0  0  0  0  0  0  0  0  0  0
    3.1348   -5.7576    2.1659 C   0  0  2  0  0  0  0  0  0  0  0  0
    3.3175   -4.3080    2.5880 C   0  0  2  0  0  0  0  0  0  0  0  0
    2.0355   -3.9120    3.0633 O   0  0  0  0  0  0  0  0  0  0  0  0
    3.5281   -3.5293    1.1952 C   0  0  1  0  0  0  0  0  0  0  0  0
    4.1468   -2.1145    1.2982 C   0  0  0  0  0  0  0  0  0  0  0  0
    3.9842   -4.4081   -0.0932 C   0  0  1  0  0  0  0  0  0  0  0  0
    4.8580   -3.6706   -1.1295 C   0  0  0  0  0  0  0  0  0  0  0  0
    4.3889   -5.9515    0.1384 C   0  0  0  0  0  0  0  0  0  0  0  0
    4.5534   -6.2995    1.6552 C   0  0  1  0  0  0  0  0  0  0  0  0
    5.9698   -5.5524    1.8906 C   0  0  0  0  0  0  0  0  0  0  0  0
    6.1909   -4.4088    1.5404 O   0  0  0  0  0  0  0  0  0  0  0  0
    7.1988   -6.2871    2.4354 C   0  0  1  0  0  0  0  0  0  0  0  0
    8.4058   -5.5790    2.1295 O   0  0  0  0  0  0  0  0  0  0  0  0
    7.0910   -6.6652    3.9374 C   0  0  2  0  0  0  0  0  0  0  0  0
    8.0702   -5.9183    4.6547 O   0  0  0  0  0  0  0  0  0  0  0  0
    7.4060   -8.1974    4.0073 C   0  0  0  0  0  0  0  0  0  0  0  0
    6.0384   -8.9293    4.1525 C   0  0  0  0  0  0  0  0  0  0  0  0
    4.9444   -7.8381    3.9338 C   0  0  1  0  0  0  0  0  0  0  0  0
    3.6888   -7.8771    4.9166 C   0  0  1  0  0  0  0  0  0  0  0  0
    3.3627   -6.3632    5.3179 C   0  0  1  0  0  0  0  0  0  0  0  0
    2.9825   -6.2785    6.6830 O   0  0  0  0  0  0  0  0  0  0  0  0
    4.6018   -5.4535    4.8945 C   0  0  2  0  0  0  0  0  0  0  0  0
    4.9770   -4.6848    6.0401 O   0  0  0  0  0  0  0  0  0  0  0  0
    4.2607   -4.1893    3.9159 C   0  0  1  0  0  0  0  0  0  0  0  0
    5.4019   -3.3445    3.8066 O   0  0  0  0  0  0  0  0  0  0  0  0
    5.6947   -6.6373    4.6732 C   0  0  2  0  0  0  0  0  0  0  0  0
    6.1387   -6.9727    6.2061 C   0  0  0  0  0  0  0  0  0  0  0  0
    2.5171   -8.9567    4.8300 C   0  0  0  0  0  0  0  0  0  0  0  0
    2.1778   -9.4647    6.2627 C   0  0  0  0  0  0  0  0  0  0  0  0
    1.1774   -8.3475    4.4187 C   0  0  0  0  0  0  0  0  0  0  0  0
    2.9613  -10.2247    4.0020 C   0  0  1  0  0  0  0  0  0  0  0  0
    1.9844  -11.2525    4.0829 O   0  0  0  0  0  0  0  0  0  0  0  0
    3.3559  -10.1023    2.5023 C   0  0  0  0  0  0  0  0  0  0  0  0
    3.4439   -8.6928    1.9054 C   0  0  0  0  0  0  0  0  0  0  0  0
    4.6373   -7.7713    2.2976 C   0  0  1  0  0  0  0  0  0  0  0  0
    5.5806   -8.4810    1.4950 O   0  0  0  0  0  0  0  0  0  0  0  0
    0.4601   -7.3985    2.2003 H   0  0  0  0  0  0  0  0  0  0  0  0
    0.0251   -6.7607    0.5728 H   0  0  0  0  0  0  0  0  0  0  0  0
    1.8119   -5.4859    0.3368 H   0  0  0  0  0  0  0  0  0  0  0  0
    2.8956   -6.3309    3.0120 H   0  0  0  0  0  0  0  0  0  0  0  0
    1.8828   -4.3044    3.9079 H   0  0  0  0  0  0  0  0  0  0  0  0
    2.5092   -3.2551    0.9055 H   0  0  0  0  0  0  0  0  0  0  0  0
    5.2295   -2.1259    1.3977 H   0  0  0  0  0  0  0  0  0  0  0  0
    3.7420   -1.5741    2.1527 H   0  0  0  0  0  0  0  0  0  0  0  0
    3.9127   -1.5125    0.4200 H   0  0  0  0  0  0  0  0  0  0  0  0
    3.1060   -4.4595   -0.7259 H   0  0  0  0  0  0  0  0  0  0  0  0
    5.8244   -3.3893   -0.7232 H   0  0  0  0  0  0  0  0  0  0  0  0
    4.3623   -2.7613   -1.4846 H   0  0  0  0  0  0  0  0  0  0  0  0
    5.0230   -4.2936   -2.0112 H   0  0  0  0  0  0  0  0  0  0  0  0
    3.6674   -6.6335   -0.3189 H   0  0  0  0  0  0  0  0  0  0  0  0
    5.2965   -6.1615   -0.4255 H   0  0  0  0  0  0  0  0  0  0  0  0
    7.3555   -7.1497    1.8052 H   0  0  0  0  0  0  0  0  0  0  0  0
    9.1428   -6.1563    2.2761 H   0  0  0  0  0  0  0  0  0  0  0  0
    8.8892   -5.9550    4.1853 H   0  0  0  0  0  0  0  0  0  0  0  0
    7.9604   -8.5691    3.1442 H   0  0  0  0  0  0  0  0  0  0  0  0
    8.0526   -8.4381    4.8513 H   0  0  0  0  0  0  0  0  0  0  0  0
    5.9719   -9.7824    3.4853 H   0  0  0  0  0  0  0  0  0  0  0  0
    5.9540   -9.3933    5.1342 H   0  0  0  0  0  0  0  0  0  0  0  0
    4.1508   -8.2881    5.8063 H   0  0  0  0  0  0  0  0  0  0  0  0
    2.4480   -5.9626    4.8938 H   0  0  0  0  0  0  0  0  0  0  0  0
    3.6864   -6.6095    7.2177 H   0  0  0  0  0  0  0  0  0  0  0  0
    5.7337   -4.1662    5.8023 H   0  0  0  0  0  0  0  0  0  0  0  0
    3.6857   -3.5079    4.5506 H   0  0  0  0  0  0  0  0  0  0  0  0
    5.9663   -3.6715    3.1135 H   0  0  0  0  0  0  0  0  0  0  0  0
    5.3356   -7.0270    6.9310 H   0  0  0  0  0  0  0  0  0  0  0  0
    6.7842   -6.2084    6.6403 H   0  0  0  0  0  0  0  0  0  0  0  0
    6.6878   -7.8862    6.3884 H   0  0  0  0  0  0  0  0  0  0  0  0
    1.2864  -10.1072    6.2612 H   0  0  0  0  0  0  0  0  0  0  0  0
    1.9362   -8.6313    6.9267 H   0  0  0  0  0  0  0  0  0  0  0  0
    2.9988  -10.0365    6.7113 H   0  0  0  0  0  0  0  0  0  0  0  0
    0.5342   -9.0337    3.8795 H   0  0  0  0  0  0  0  0  0  0  0  0
    1.4445   -7.5029    3.8410 H   0  0  0  0  0  0  0  0  0  0  0  0
    0.6017   -7.9166    5.2308 H   0  0  0  0  0  0  0  0  0  0  0  0
    3.8427  -10.6371    4.5038 H   0  0  0  0  0  0  0  0  0  0  0  0
    1.8752  -11.4925    4.9928 H   0  0  0  0  0  0  0  0  0  0  0  0
    4.2691  -10.6639    2.3011 H   0  0  0  0  0  0  0  0  0  0  0  0
    2.6151  -10.6286    1.9001 H   0  0  0  0  0  0  0  0  0  0  0  0
    3.3851   -8.7772    0.8175 H   0  0  0  0  0  0  0  0  0  0  0  0
    2.5063   -8.2730    2.1880 H   0  0  0  0  0  0  0  0  0  0  0  0
    6.4518   -8.1762    1.6732 H   0  0  0  0  0  0  0  0  0  0  0  0
  1  2  2  0
  1 39  1  0
  1 40  1  0
  2  3  1  0
  2 41  1  0
  3 11  1  0
  3  4  1  0
  3 42  1  1
  4 26  1  0
  4  5  1  1
  4  6  1  0
  5 43  1  0
  6  7  1  0
  6  8  1  0
  6 44  1  6
  7 45  1  0
  7 46  1  0
  7 47  1  0
  8  9  1  0
  8 10  1  0
  8 48  1  6
  9 49  1  0
  9 50  1  0
  9 51  1  0
 11 10  1  6
 10 52  1  0
 10 53  1  0
 11 37  1  0
 11 12  1  0
 12 13  2  0
 12 14  1  0
 14 15  1  0
 14 16  1  0
 14 54  1  6
 15 55  1  0
 16 28  1  0
 16 17  1  1
 16 18  1  0
 17 56  1  0
 18 19  1  0
 18 57  1  0
 18 58  1  0
 20 19  1  6
 19 59  1  0
 19 60  1  0
 20 28  1  0
 20 37  1  0
 20 21  1  0
 21 22  1  0
 21 30  1  0
 21 61  1  1
 22 23  1  0
 22 24  1  0
 22 62  1  6
 23 63  1  0
 24 25  1  1
 24 26  1  0
 24 28  1  0
 25 64  1  0
 26 27  1  0
 26 65  1  1
 27 66  1  0
 28 29  1  1
 29 67  1  0
 29 68  1  0
 29 69  1  0
 30 31  1  0
 30 32  1  0
 30 33  1  0
 31 70  1  0
 31 71  1  0
 31 72  1  0
 32 73  1  0
 32 74  1  0
 32 75  1  0
 33 34  1  0
 33 35  1  0
 33 76  1  1
 34 77  1  0
 35 36  1  0
 35 78  1  0
 35 79  1  0
 36 37  1  0
 36 80  1  0
 36 81  1  0
 37 38  1  6
 38 82  1  0
M  END
>  <i_m_ct_stereo_status>  (52) 
1

>  <s_m_source_file>  (52) 
/var/tmp/pbs.5076255.sched01/tmplremgrqo/0ygzoxw5b.sdf

>  <i_m_source_file_index>  (52) 
22

>  <i_lp_mmshare_version>  (52) 
48012

>  <i_f3d_flags>  (52) 
0

>  <s_epik_input>  (52) 
W0NIMl09W0NIXVtDQEBIXTFbQ0BdKFtPSF0pKFtDQEBIXShbQ0gzXSlbQ0BASF0oW0NIM10pW0NIMl0yKVtDQEhdKFtPSF0pW0NAXShbT0hdKShbQ0BdMyhbQ0gzXSlbQ0BdKFtPSF0pKFtDQEBIXShDND1PKVtPSF0pW0NIMl1bQ0gyXTUpW0NASF0oW09IXSlbQ0BIXShbQ0BAXTM1W0NAQF02KFtDQF0xMjQpW09IXSlDKFtDSDNdKShbQ0gzXSlbQ0BASF0oW09IXSlbQ0gyXVtDSDJdNg==

>  <s_epik_cmdline>  (52) 
J2VwaWtfcHl0aG9uJywgJy1waHQnLCAnMi4wJywgJy1waCcsICc3LjAnLCAnLXRuJywgJzgnLCAnLW1hJywgJzIwMCcsICctaW1hZScsICc8aW5maWxlLm1hZT4nLCAnLW9tYWUnLCAnPG91dGZpbGUubWFlPic=

>  <r_lp_tautomer_probability>  (52) 
1

>  <r_epik_Ionization_Penalty>  (52) 
1.66649e-06

>  <r_epik_Ionization_Penalty_Charging>  (52) 
0

>  <r_epik_Ionization_Penalty_Neutral>  (52) 
1.66649e-06

>  <r_epik_State_Penalty>  (52) 
-0

>  <r_epik_Charging_Adjusted_Penalty>  (52) 
0

>  <i_epik_Tot_Q>  (52) 
0

>  <i_epik_Tot_abs_Q>  (52) 
0

>  <s_lp_Force_Field>  (52) 
OPLS3e

>  <r_lp_Energy>  (52) 
271.308

>  <b_lp_Chiralities_Consistent>  (52) 
1

>  <s_lp_Variant>  (52) 
13:0-1

>  <s_i_glide_gridfile>  (52) 
pfpi4k_grid

>  <i_i_glide_lignum>  (52) 
22

>  <i_i_glide_rotatable_bonds>  (52) 
9

>  <r_i_docking_score>  (52) 
-2.33447

>  <r_i_glide_ligand_efficiency>  (52) 
-0.0614334

>  <r_i_glide_ligand_efficiency_sa>  (52) 
-0.206538

>  <r_i_glide_ligand_efficiency_ln>  (52) 
-0.50338

>  <r_i_glide_gscore>  (52) 
-2.33447

>  <r_i_glide_lipo>  (52) 
-0.14637

>  <r_i_glide_hbond>  (52) 
0

>  <r_i_glide_metal>  (52) 
-0

>  <r_i_glide_rewards>  (52) 
-0.570863

>  <r_i_glide_evdw>  (52) 
-30.1034

>  <r_i_glide_ecoul>  (52) 
-1.22516

>  <r_i_glide_erotb>  (52) 
0.071708

>  <r_i_glide_esite>  (52) 
0

>  <r_i_glide_emodel>  (52) 
-40.929

>  <r_i_glide_energy>  (52) 
-31.3286

>  <r_i_glide_einternal>  (52) 
0.507253

>  <r_i_glide_intrahb_reward>  (52) 
-0.5

>  <i_i_glide_confnum>  (52) 
6

>  <i_i_glide_posenum>  (52) 
19

>  <r_i_glide_eff_state_penalty>  (52) 
0

>  <ligand_id>  (52) 
13

>  <original_smiles>  (52) 
C=CC1C2(O)C(C)C(C)CC13C(=O)C(O)C1(O)CCC45C(C(O)C(O)(C2O)C14C)C(C)(C)C(O)CCC35O

>  <smiles>  (52) 
[H]OC1([H])C(=O)C23C([H])([H])C([H])(C([H])([H])[H])C([H])(C([H])([H])[H])C(O[H])(C([H])(O[H])C4(O[H])C([H])(O[H])C5([H])C(C([H])([H])[H])(C([H])([H])[H])C([H])(O[H])C([H])([H])C([H])([H])C2(O[H])C52C([H])([H])C([H])([H])C1(O[H])C42C([H])([H])[H])C3([H])C([H])=C([H])[H]

$$$$
14:0:0
     RDKit          3D

 60 64  0  0  1  0  0  0  0  0999 V2000
    3.8939   -1.3144   -2.1792 C   0  0  0  0  0  0  0  0  0  0  0  0
    4.1263   -1.1164   -0.6815 C   0  0  0  0  0  0  0  0  0  0  0  0
    3.0177   -1.6513    0.1196 N   0  0  0  0  0  0  0  0  0  0  0  0
    3.1278   -1.4450    1.5745 C   0  0  0  0  0  0  0  0  0  0  0  0
    3.0585    0.0580    2.0072 C   0  0  0  0  0  0  0  0  0  0  0  0
    2.9708    0.2001    3.4876 N   0  0  0  0  0  0  0  0  0  0  0  0
    2.6308    1.5412    4.0048 C   0  0  2  0  0  0  0  0  0  0  0  0
    2.9267    1.7376    5.6023 C   0  0  0  0  0  0  0  0  0  0  0  0
    1.7935    2.1461    6.5940 C   0  0  0  0  0  0  0  0  0  0  0  0
    1.6063    2.0455    7.9922 C   0  0  0  0  0  0  0  0  0  0  0  0
    0.2942    2.2472    8.5234 C   0  0  0  0  0  0  0  0  0  0  0  0
   -0.8603    2.4781    7.7034 C   0  0  0  0  0  0  0  0  0  0  0  0
   -2.1009    2.5052    8.2662 O   0  0  0  0  0  0  0  0  0  0  0  0
   -0.7415    2.6109    6.2920 C   0  0  0  0  0  0  0  0  0  0  0  0
    0.6336    2.4705    5.9321 C   0  0  0  0  0  0  0  0  0  0  0  0
    0.5990    2.5206    4.5325 C   0  0  1  0  0  0  0  0  0  0  0  0
    0.1448    0.7866    4.8228 C   0  0  0  0  0  0  0  0  0  0  0  0
   -0.6916   -0.0333    3.8105 C   0  0  0  0  0  0  0  0  0  0  0  0
   -0.5402    0.5613    2.4428 C   0  0  0  0  0  0  0  0  0  0  0  0
   -0.2786    2.0043    2.7973 C   0  0  1  0  0  0  0  0  0  0  0  0
   -1.6471    2.5352    3.7257 C   0  0  2  0  0  0  0  0  0  0  0  0
   -1.8911    3.9401    3.3408 C   0  0  0  0  0  0  0  0  0  0  0  0
   -0.9081    4.7474    3.6872 C   0  0  0  0  0  0  0  0  0  0  0  0
    0.2752    4.1969    4.4561 C   0  0  1  0  0  0  0  0  0  0  0  0
    0.4898    5.0269    5.6025 O   0  0  0  0  0  0  0  0  0  0  0  0
   -1.7907    2.5012    5.2909 O   0  0  0  0  0  0  0  0  0  0  0  0
    1.3245    2.2312    3.3246 C   0  0  2  0  0  0  0  0  0  0  0  0
    1.8816    3.2043    2.4524 O   0  0  0  0  0  0  0  0  0  0  0  0
    4.7158   -0.8763   -2.7460 H   0  0  0  0  0  0  0  0  0  0  0  0
    2.9741   -0.8206   -2.4996 H   0  0  0  0  0  0  0  0  0  0  0  0
    3.8268   -2.3723   -2.4413 H   0  0  0  0  0  0  0  0  0  0  0  0
    5.0644   -1.5864   -0.3803 H   0  0  0  0  0  0  0  0  0  0  0  0
    4.2503   -0.0523   -0.4856 H   0  0  0  0  0  0  0  0  0  0  0  0
    2.0965   -1.2960   -0.2441 H   0  0  0  0  0  0  0  0  0  0  0  0
    2.3092   -2.0026    2.0452 H   0  0  0  0  0  0  0  0  0  0  0  0
    4.0441   -1.8998    1.9543 H   0  0  0  0  0  0  0  0  0  0  0  0
    3.9355    0.6189    1.6529 H   0  0  0  0  0  0  0  0  0  0  0  0
    2.2141    0.5321    1.4817 H   0  0  0  0  0  0  0  0  0  0  0  0
    2.2716   -0.4323    3.8688 H   0  0  0  0  0  0  0  0  0  0  0  0
    3.4809    2.0979    3.6077 H   0  0  0  0  0  0  0  0  0  0  0  0
    3.3846    0.8268    5.9968 H   0  0  0  0  0  0  0  0  0  0  0  0
    3.6933    2.5048    5.7190 H   0  0  0  0  0  0  0  0  0  0  0  0
    2.4144    1.7564    8.6535 H   0  0  0  0  0  0  0  0  0  0  0  0
    0.1441    2.1360    9.5740 H   0  0  0  0  0  0  0  0  0  0  0  0
   -2.0734    2.5557    9.2031 H   0  0  0  0  0  0  0  0  0  0  0  0
    1.0175    0.1558    4.9666 H   0  0  0  0  0  0  0  0  0  0  0  0
   -0.3426    0.4476    5.7510 H   0  0  0  0  0  0  0  0  0  0  0  0
   -0.3886   -1.0778    3.7922 H   0  0  0  0  0  0  0  0  0  0  0  0
   -1.7390   -0.0229    4.0985 H   0  0  0  0  0  0  0  0  0  0  0  0
    0.2465    0.0525    1.8926 H   0  0  0  0  0  0  0  0  0  0  0  0
   -1.4593    0.5116    1.8425 H   0  0  0  0  0  0  0  0  0  0  0  0
   -0.3526    2.5171    1.8418 H   0  0  0  0  0  0  0  0  0  0  0  0
   -2.5283    2.0125    3.3390 H   0  0  0  0  0  0  0  0  0  0  0  0
   -2.7963    4.2196    2.8171 H   0  0  0  0  0  0  0  0  0  0  0  0
   -0.9192    5.7974    3.4360 H   0  0  0  0  0  0  0  0  0  0  0  0
    1.0557    4.6981    3.8968 H   0  0  0  0  0  0  0  0  0  0  0  0
    1.4076    5.2162    5.6376 H   0  0  0  0  0  0  0  0  0  0  0  0
    1.2021    3.6012    1.9001 H   0  0  0  0  0  0  0  0  0  0  0  0
    3.0057   -2.6544   -0.0508 H   0  0  0  0  0  0  0  0  0  0  0  0
    3.8704   -0.0619    3.8829 H   0  0  0  0  0  0  0  0  0  0  0  0
  1  2  1  0
  1 29  1  0
  1 30  1  0
  1 31  1  0
  2  3  1  0
  2 32  1  0
  2 33  1  0
  3  4  1  0
  3 34  1  0
  3 59  1  0
  4  5  1  0
  4 35  1  0
  4 36  1  0
  5  6  1  0
  5 37  1  0
  5 38  1  0
  6  7  1  0
  6 39  1  0
  6 60  1  0
  7 27  1  0
  7  8  1  0
  7 40  1  6
  8  9  1  0
  8 41  1  0
  8 42  1  0
  9 15  2  0
  9 10  1  0
 10 11  2  0
 10 43  1  0
 11 12  1  0
 11 44  1  0
 12 13  1  0
 12 14  2  0
 13 45  1  0
 14 26  1  0
 14 15  1  0
 15 16  1  0
 16 24  1  0
 16 27  1  0
 16 17  1  6
 17 18  1  0
 17 46  1  0
 17 47  1  0
 18 19  1  0
 18 48  1  0
 18 49  1  0
 19 20  1  0
 19 50  1  0
 19 51  1  0
 20 21  1  0
 20 27  1  0
 20 52  1  6
 21 22  1  0
 21 26  1  0
 21 53  1  6
 22 23  2  0
 22 54  1  0
 23 24  1  0
 23 55  1  0
 24 25  1  0
 24 56  1  6
 25 57  1  0
 27 28  1  6
 28 58  1  0
M  CHG  2   3   1   6   1
M  END
>  <i_m_ct_stereo_status>  (53) 
1

>  <s_m_source_file>  (53) 
/var/tmp/pbs.5076255.sched01/tmplremgrqo/0ygzoxw5b.sdf

>  <i_m_source_file_index>  (53) 
23

>  <i_lp_mmshare_version>  (53) 
48012

>  <i_f3d_flags>  (53) 
0

>  <s_epik_input>  (53) 
W0NIM11bQ0gyXVtOSF1bQ0gyXVtDSDJdW05IXVtDQEhdKFtDSDJdMSlbQ0BAXTIoW09IXSlbQ0BASF0oW0NIMl1bQ0gyXVtDSDJdMylbQ0BIXShbQ0hdPVtDSF1bQ0BIXTRbT0hdKU9jNWMoW09IXSlbY0hdW2NIXWMxYzVDMjM0

>  <s_epik_cmdline>  (53) 
J2VwaWtfcHl0aG9uJywgJy1waHQnLCAnMi4wJywgJy1waCcsICc3LjAnLCAnLXRuJywgJzgnLCAnLW1hJywgJzIwMCcsICctaW1hZScsICc8aW5maWxlLm1hZT4nLCAnLW9tYWUnLCAnPG91dGZpbGUubWFlPic=

>  <r_lp_tautomer_probability>  (53) 
1

>  <r_epik_Ionization_Penalty>  (53) 
0.579483

>  <r_epik_Ionization_Penalty_Charging>  (53) 
0.578371

>  <r_epik_Ionization_Penalty_Neutral>  (53) 
0.00111194

>  <r_epik_State_Penalty>  (53) 
0.490756

>  <r_epik_Charging_Adjusted_Penalty>  (53) 
1.06913

>  <i_epik_Tot_Q>  (53) 
2

>  <i_epik_Tot_abs_Q>  (53) 
2

>  <s_lp_Force_Field>  (53) 
OPLS3e

>  <r_lp_Energy>  (53) 
449.238

>  <b_lp_Chiralities_Consistent>  (53) 
1

>  <s_lp_Variant>  (53) 
14:0-1

>  <s_i_glide_gridfile>  (53) 
pfpi4k_grid

>  <i_i_glide_lignum>  (53) 
23

>  <i_i_glide_rotatable_bonds>  (53) 
8

>  <r_i_docking_score>  (53) 
-4.25423

>  <r_i_glide_ligand_efficiency>  (53) 
-0.151937

>  <r_i_glide_ligand_efficiency_sa>  (53) 
-0.46137

>  <r_i_glide_ligand_efficiency_ln>  (53) 
-0.982002

>  <r_i_glide_gscore>  (53) 
-4.25423

>  <r_i_glide_lipo>  (53) 
-0.0133693

>  <r_i_glide_hbond>  (53) 
-0.349802

>  <r_i_glide_metal>  (53) 
-0

>  <r_i_glide_rewards>  (53) 
-0.760224

>  <r_i_glide_evdw>  (53) 
-24.3047

>  <r_i_glide_ecoul>  (53) 
-15.5949

>  <r_i_glide_erotb>  (53) 
0.51638

>  <r_i_glide_esite>  (53) 
-0.0927413

>  <r_i_glide_emodel>  (53) 
-50.3458

>  <r_i_glide_energy>  (53) 
-39.8996

>  <r_i_glide_einternal>  (53) 
2.97493

>  <r_i_glide_intrahb_reward>  (53) 
-0

>  <i_i_glide_confnum>  (53) 
2

>  <i_i_glide_posenum>  (53) 
1

>  <r_i_glide_eff_state_penalty>  (53) 
0

>  <ligand_id>  (53) 
14

>  <original_smiles>  (53) 
CCNCCNC1Cc2ccc(O)c3c2C24CCCC(C(C=CC2O)O3)C14O

>  <smiles>  (53) 
[H]Oc1c([H])c([H])c2c3c1OC1([H])C([H])=C([H])C([H])(O[H])C34C([H])([H])C([H])([H])C([H])([H])C1([H])C4(O[H])C([H])([N+]([H])([H])C([H])([H])C([H])([H])[N+]([H])([H])C([H])([H])C([H])([H])[H])C2([H])[H]

$$$$
14:0:1
     RDKit          3D

 60 64  0  0  1  0  0  0  0  0999 V2000
    4.0832   -1.4793   -4.0711 C   0  0  0  0  0  0  0  0  0  0  0  0
    3.4744   -0.8173   -2.8341 C   0  0  0  0  0  0  0  0  0  0  0  0
    3.0170   -1.8265   -1.8623 N   0  0  0  0  0  0  0  0  0  0  0  0
    3.9989   -2.1951   -0.8169 C   0  0  0  0  0  0  0  0  0  0  0  0
    3.9496   -1.2694    0.4216 C   0  0  0  0  0  0  0  0  0  0  0  0
    2.7345   -1.5290    1.2328 N   0  0  0  0  0  0  0  0  0  0  0  0
    2.8740   -1.4620    2.7104 C   0  0  2  0  0  0  0  0  0  0  0  0
    1.9761   -2.5760    3.4944 C   0  0  0  0  0  0  0  0  0  0  0  0
    0.9082   -2.1427    4.5317 C   0  0  0  0  0  0  0  0  0  0  0  0
   -0.2197   -2.7655    5.0985 C   0  0  0  0  0  0  0  0  0  0  0  0
   -1.1794   -1.9547    5.7734 C   0  0  0  0  0  0  0  0  0  0  0  0
   -1.0756   -0.5304    5.8735 C   0  0  0  0  0  0  0  0  0  0  0  0
   -2.0835    0.1933    6.4380 O   0  0  0  0  0  0  0  0  0  0  0  0
    0.0485    0.1519    5.3517 C   0  0  0  0  0  0  0  0  0  0  0  0
    0.9445   -0.7871    4.7729 C   0  0  0  0  0  0  0  0  0  0  0  0
    1.9398    0.0080    4.2098 C   0  0  1  0  0  0  0  0  0  0  0  0
    0.6593    0.1079    2.9216 C   0  0  0  0  0  0  0  0  0  0  0  0
    0.5777    1.2934    1.9432 C   0  0  0  0  0  0  0  0  0  0  0  0
    1.9306    1.8962    1.8618 C   0  0  0  0  0  0  0  0  0  0  0  0
    2.4897    1.6504    3.2255 C   0  0  1  0  0  0  0  0  0  0  0  0
    1.3642    2.3293    4.3733 C   0  0  2  0  0  0  0  0  0  0  0  0
    2.1937    2.8319    5.4868 C   0  0  0  0  0  0  0  0  0  0  0  0
    2.8321    1.8773    6.1375 C   0  0  0  0  0  0  0  0  0  0  0  0
    2.6485    0.4282    5.7108 C   0  0  1  0  0  0  0  0  0  0  0  0
    2.3580   -0.3408    6.8786 O   0  0  0  0  0  0  0  0  0  0  0  0
    0.1734    1.5762    5.0584 O   0  0  0  0  0  0  0  0  0  0  0  0
    3.0392    0.0389    3.2888 C   0  0  2  0  0  0  0  0  0  0  0  0
    4.4263    0.1424    3.5910 O   0  0  0  0  0  0  0  0  0  0  0  0
    4.3862   -0.7146   -4.7854 H   0  0  0  0  0  0  0  0  0  0  0  0
    3.3600   -2.1292   -4.5674 H   0  0  0  0  0  0  0  0  0  0  0  0
    4.9643   -2.0720   -3.8148 H   0  0  0  0  0  0  0  0  0  0  0  0
    4.1790   -0.1151   -2.3802 H   0  0  0  0  0  0  0  0  0  0  0  0
    2.6106   -0.2248   -3.1377 H   0  0  0  0  0  0  0  0  0  0  0  0
    2.1462   -1.4834   -1.4434 H   0  0  0  0  0  0  0  0  0  0  0  0
    3.8285   -3.2329   -0.5146 H   0  0  0  0  0  0  0  0  0  0  0  0
    5.0018   -2.1870   -1.2476 H   0  0  0  0  0  0  0  0  0  0  0  0
    4.8658   -1.4411    0.9909 H   0  0  0  0  0  0  0  0  0  0  0  0
    3.9842   -0.2190    0.1291 H   0  0  0  0  0  0  0  0  0  0  0  0
    2.0111   -0.8724    0.9447 H   0  0  0  0  0  0  0  0  0  0  0  0
    3.8428   -1.9395    2.8697 H   0  0  0  0  0  0  0  0  0  0  0  0
    1.4861   -3.2271    2.7697 H   0  0  0  0  0  0  0  0  0  0  0  0
    2.6516   -3.2306    4.0472 H   0  0  0  0  0  0  0  0  0  0  0  0
   -0.4106   -3.8183    4.9571 H   0  0  0  0  0  0  0  0  0  0  0  0
   -2.0654   -2.4247    6.1541 H   0  0  0  0  0  0  0  0  0  0  0  0
   -1.9842    1.1281    6.3091 H   0  0  0  0  0  0  0  0  0  0  0  0
    0.6908   -0.7335    2.2394 H   0  0  0  0  0  0  0  0  0  0  0  0
   -0.4123   -0.0136    3.1313 H   0  0  0  0  0  0  0  0  0  0  0  0
    0.2268    1.0088    0.9540 H   0  0  0  0  0  0  0  0  0  0  0  0
   -0.1364    2.0365    2.3014 H   0  0  0  0  0  0  0  0  0  0  0  0
    2.5397    1.3930    1.1149 H   0  0  0  0  0  0  0  0  0  0  0  0
    1.8718    2.9601    1.6265 H   0  0  0  0  0  0  0  0  0  0  0  0
    3.3750    2.2898    3.2631 H   0  0  0  0  0  0  0  0  0  0  0  0
    0.9306    3.2293    3.9280 H   0  0  0  0  0  0  0  0  0  0  0  0
    2.2202    3.8870    5.7273 H   0  0  0  0  0  0  0  0  0  0  0  0
    3.4697    2.1066    6.9792 H   0  0  0  0  0  0  0  0  0  0  0  0
    3.6843    0.1127    5.7172 H   0  0  0  0  0  0  0  0  0  0  0  0
    1.4673   -0.1562    7.1306 H   0  0  0  0  0  0  0  0  0  0  0  0
    4.6118    1.0298    3.8579 H   0  0  0  0  0  0  0  0  0  0  0  0
    2.7707   -2.6556   -2.3813 H   0  0  0  0  0  0  0  0  0  0  0  0
    2.4178   -2.4624    1.0186 H   0  0  0  0  0  0  0  0  0  0  0  0
  1  2  1  0
  1 29  1  0
  1 30  1  0
  1 31  1  0
  2  3  1  0
  2 32  1  0
  2 33  1  0
  3  4  1  0
  3 34  1  0
  3 59  1  0
  4  5  1  0
  4 35  1  0
  4 36  1  0
  5  6  1  0
  5 37  1  0
  5 38  1  0
  6  7  1  0
  6 39  1  0
  6 60  1  0
  7 27  1  0
  7  8  1  0
  7 40  1  6
  8  9  1  0
  8 41  1  0
  8 42  1  0
  9 15  2  0
  9 10  1  0
 10 11  2  0
 10 43  1  0
 11 12  1  0
 11 44  1  0
 12 13  1  0
 12 14  2  0
 13 45  1  0
 14 26  1  0
 14 15  1  0
 15 16  1  0
 16 24  1  0
 16 27  1  0
 16 17  1  6
 17 18  1  0
 17 46  1  0
 17 47  1  0
 18 19  1  0
 18 48  1  0
 18 49  1  0
 19 20  1  0
 19 50  1  0
 19 51  1  0
 20 21  1  0
 20 27  1  0
 20 52  1  6
 21 22  1  0
 21 26  1  0
 21 53  1  6
 22 23  2  0
 22 54  1  0
 23 24  1  0
 23 55  1  0
 24 25  1  0
 24 56  1  6
 25 57  1  0
 27 28  1  1
 28 58  1  0
M  CHG  2   3   1   6   1
M  END
>  <i_m_ct_stereo_status>  (54) 
1

>  <s_m_source_file>  (54) 
/var/tmp/pbs.5076255.sched01/tmplremgrqo/0ygzoxw5b.sdf

>  <i_m_source_file_index>  (54) 
23

>  <i_lp_mmshare_version>  (54) 
48012

>  <i_f3d_flags>  (54) 
0

>  <s_epik_input>  (54) 
W0NIM11bQ0gyXVtOSF1bQ0gyXVtDSDJdW05IXVtDQEhdKFtDSDJdMSlbQ0BAXTIoW09IXSlbQ0BASF0oW0NIMl1bQ0gyXVtDSDJdMylbQ0BIXShbQ0hdPVtDSF1bQ0BIXTRbT0hdKU9jNWMoW09IXSlbY0hdW2NIXWMxYzVDMjM0

>  <s_epik_cmdline>  (54) 
J2VwaWtfcHl0aG9uJywgJy1waHQnLCAnMi4wJywgJy1waCcsICc3LjAnLCAnLXRuJywgJzgnLCAnLW1hJywgJzIwMCcsICctaW1hZScsICc8aW5maWxlLm1hZT4nLCAnLW9tYWUnLCAnPG91dGZpbGUubWFlPic=

>  <r_lp_tautomer_probability>  (54) 
1

>  <r_epik_Ionization_Penalty>  (54) 
0.579483

>  <r_epik_Ionization_Penalty_Charging>  (54) 
0.578371

>  <r_epik_Ionization_Penalty_Neutral>  (54) 
0.00111194

>  <r_epik_State_Penalty>  (54) 
0.490756

>  <r_epik_Charging_Adjusted_Penalty>  (54) 
1.06913

>  <i_epik_Tot_Q>  (54) 
2

>  <i_epik_Tot_abs_Q>  (54) 
2

>  <s_lp_Force_Field>  (54) 
OPLS3e

>  <r_lp_Energy>  (54) 
449.238

>  <b_lp_Chiralities_Consistent>  (54) 
1

>  <s_lp_Variant>  (54) 
14:0-1

>  <s_i_glide_gridfile>  (54) 
pfpi4k_grid

>  <i_i_glide_lignum>  (54) 
23

>  <i_i_glide_rotatable_bonds>  (54) 
8

>  <r_i_docking_score>  (54) 
-4.05692

>  <r_i_glide_ligand_efficiency>  (54) 
-0.14489

>  <r_i_glide_ligand_efficiency_sa>  (54) 
-0.439971

>  <r_i_glide_ligand_efficiency_ln>  (54) 
-0.936456

>  <r_i_glide_gscore>  (54) 
-4.05692

>  <r_i_glide_lipo>  (54) 
-0.0192791

>  <r_i_glide_hbond>  (54) 
-0.278017

>  <r_i_glide_metal>  (54) 
-0

>  <r_i_glide_rewards>  (54) 
-0.760224

>  <r_i_glide_evdw>  (54) 
-22.8526

>  <r_i_glide_ecoul>  (54) 
-14.8632

>  <r_i_glide_erotb>  (54) 
0.51638

>  <r_i_glide_esite>  (54) 
-0.143667

>  <r_i_glide_emodel>  (54) 
-46.2496

>  <r_i_glide_energy>  (54) 
-37.7158

>  <r_i_glide_einternal>  (54) 
6.52926

>  <r_i_glide_intrahb_reward>  (54) 
-0

>  <i_i_glide_confnum>  (54) 
2

>  <i_i_glide_posenum>  (54) 
2

>  <r_i_glide_eff_state_penalty>  (54) 
0

>  <ligand_id>  (54) 
14

>  <original_smiles>  (54) 
CCNCCNC1Cc2ccc(O)c3c2C24CCCC(C(C=CC2O)O3)C14O

>  <smiles>  (54) 
[H]Oc1c([H])c([H])c2c3c1OC1([H])C([H])=C([H])C([H])(O[H])C34C([H])([H])C([H])([H])C([H])([H])C1([H])C4(O[H])C([H])([N+]([H])([H])C([H])([H])C([H])([H])[N+]([H])([H])C([H])([H])C([H])([H])[H])C2([H])[H]

$$$$
14:0:2
     RDKit          3D

 60 64  0  0  1  0  0  0  0  0999 V2000
    3.4050   -5.5717    0.5433 C   0  0  0  0  0  0  0  0  0  0  0  0
    4.5083   -4.9083   -0.3030 C   0  0  0  0  0  0  0  0  0  0  0  0
    3.9666   -3.8498   -1.1838 N   0  0  0  0  0  0  0  0  0  0  0  0
    3.1951   -2.7505   -0.5261 C   0  0  0  0  0  0  0  0  0  0  0  0
    3.8616   -2.1821    0.7611 C   0  0  0  0  0  0  0  0  0  0  0  0
    2.9935   -1.1807    1.4386 N   0  0  0  0  0  0  0  0  0  0  0  0
    3.0599   -1.1447    2.9326 C   0  0  2  0  0  0  0  0  0  0  0  0
    2.2073   -2.3274    3.6645 C   0  0  0  0  0  0  0  0  0  0  0  0
    1.0539   -1.9756    4.6606 C   0  0  0  0  0  0  0  0  0  0  0  0
   -0.0714   -2.6593    5.1581 C   0  0  0  0  0  0  0  0  0  0  0  0
   -1.1006   -1.9077    5.8114 C   0  0  0  0  0  0  0  0  0  0  0  0
   -1.0714   -0.4830    5.9361 C   0  0  0  0  0  0  0  0  0  0  0  0
   -2.1514    0.1804    6.4437 O   0  0  0  0  0  0  0  0  0  0  0  0
    0.0386    0.2649    5.4860 C   0  0  0  0  0  0  0  0  0  0  0  0
    1.0103   -0.6234    4.9257 C   0  0  0  0  0  0  0  0  0  0  0  0
    1.9730    0.2392    4.4246 C   0  0  1  0  0  0  0  0  0  0  0  0
    0.7522    0.2884    3.0777 C   0  0  0  0  0  0  0  0  0  0  0  0
    0.6517    1.4787    2.1038 C   0  0  0  0  0  0  0  0  0  0  0  0
    1.9782    2.1700    2.0845 C   0  0  0  0  0  0  0  0  0  0  0  0
    2.4788    1.9295    3.4762 C   0  0  1  0  0  0  0  0  0  0  0  0
    1.2630    2.5289    4.5804 C   0  0  2  0  0  0  0  0  0  0  0  0
    2.0071    3.0642    5.7381 C   0  0  0  0  0  0  0  0  0  0  0  0
    2.6693    2.1455    6.4119 C   0  0  0  0  0  0  0  0  0  0  0  0
    2.5941    0.6928    5.9624 C   0  0  1  0  0  0  0  0  0  0  0  0
    2.2966   -0.1064    7.1066 O   0  0  0  0  0  0  0  0  0  0  0  0
    0.0899    1.6973    5.2064 O   0  0  0  0  0  0  0  0  0  0  0  0
    3.1062    0.3520    3.5511 C   0  0  2  0  0  0  0  0  0  0  0  0
    4.4585    0.5387    3.9353 O   0  0  0  0  0  0  0  0  0  0  0  0
    3.8376   -6.3539    1.1761 H   0  0  0  0  0  0  0  0  0  0  0  0
    2.6351   -6.0283   -0.0910 H   0  0  0  0  0  0  0  0  0  0  0  0
    2.8920   -4.8735    1.2171 H   0  0  0  0  0  0  0  0  0  0  0  0
    5.3078   -4.5156    0.3189 H   0  0  0  0  0  0  0  0  0  0  0  0
    4.9754   -5.6623   -0.9419 H   0  0  0  0  0  0  0  0  0  0  0  0
    4.7371   -3.4476   -1.7010 H   0  0  0  0  0  0  0  0  0  0  0  0
    3.0209   -1.9503   -1.2503 H   0  0  0  0  0  0  0  0  0  0  0  0
    2.2098   -3.1462   -0.2785 H   0  0  0  0  0  0  0  0  0  0  0  0
    4.0851   -2.9824    1.4722 H   0  0  0  0  0  0  0  0  0  0  0  0
    4.8217   -1.7201    0.5186 H   0  0  0  0  0  0  0  0  0  0  0  0
    3.2769   -0.2715    1.1053 H   0  0  0  0  0  0  0  0  0  0  0  0
    4.0647   -1.5135    3.1353 H   0  0  0  0  0  0  0  0  0  0  0  0
    1.7820   -2.9962    2.9167 H   0  0  0  0  0  0  0  0  0  0  0  0
    2.8929   -2.9368    4.2547 H   0  0  0  0  0  0  0  0  0  0  0  0
   -0.1930   -3.7243    5.0014 H   0  0  0  0  0  0  0  0  0  0  0  0
   -1.9726   -2.4302    6.1458 H   0  0  0  0  0  0  0  0  0  0  0  0
   -2.0861    1.1168    6.3015 H   0  0  0  0  0  0  0  0  0  0  0  0
    0.8553   -0.5463    2.3953 H   0  0  0  0  0  0  0  0  0  0  0  0
   -0.3207    0.1210    3.2416 H   0  0  0  0  0  0  0  0  0  0  0  0
    0.3525    1.1785    1.0993 H   0  0  0  0  0  0  0  0  0  0  0  0
   -0.1177    2.1783    2.4428 H   0  0  0  0  0  0  0  0  0  0  0  0
    2.6365    1.7164    1.3443 H   0  0  0  0  0  0  0  0  0  0  0  0
    1.8746    3.2385    1.8594 H   0  0  0  0  0  0  0  0  0  0  0  0
    3.3256    2.6122    3.5743 H   0  0  0  0  0  0  0  0  0  0  0  0
    0.8039    3.4103    4.1272 H   0  0  0  0  0  0  0  0  0  0  0  0
    1.9625    4.1140    5.9904 H   0  0  0  0  0  0  0  0  0  0  0  0
    3.2516    2.4000    7.2835 H   0  0  0  0  0  0  0  0  0  0  0  0
    3.6442    0.4361    6.0134 H   0  0  0  0  0  0  0  0  0  0  0  0
    2.8115    0.2248    7.8240 H   0  0  0  0  0  0  0  0  0  0  0  0
    4.7850    1.3217    3.5158 H   0  0  0  0  0  0  0  0  0  0  0  0
    3.3660   -4.3258   -1.8537 H   0  0  0  0  0  0  0  0  0  0  0  0
    2.0291   -1.3227    1.1605 H   0  0  0  0  0  0  0  0  0  0  0  0
  1  2  1  0
  1 29  1  0
  1 30  1  0
  1 31  1  0
  2  3  1  0
  2 32  1  0
  2 33  1  0
  3  4  1  0
  3 34  1  0
  3 59  1  0
  4  5  1  0
  4 35  1  0
  4 36  1  0
  5  6  1  0
  5 37  1  0
  5 38  1  0
  6  7  1  0
  6 39  1  0
  6 60  1  0
  7 27  1  0
  7  8  1  0
  7 40  1  6
  8  9  1  0
  8 41  1  0
  8 42  1  0
  9 15  2  0
  9 10  1  0
 10 11  2  0
 10 43  1  0
 11 12  1  0
 11 44  1  0
 12 13  1  0
 12 14  2  0
 13 45  1  0
 14 26  1  0
 14 15  1  0
 15 16  1  0
 16 24  1  0
 16 27  1  0
 16 17  1  6
 17 18  1  0
 17 46  1  0
 17 47  1  0
 18 19  1  0
 18 48  1  0
 18 49  1  0
 19 20  1  0
 19 50  1  0
 19 51  1  0
 20 21  1  0
 20 27  1  0
 20 52  1  6
 21 22  1  0
 21 26  1  0
 21 53  1  6
 22 23  2  0
 22 54  1  0
 23 24  1  0
 23 55  1  0
 24 25  1  0
 24 56  1  6
 25 57  1  0
 27 28  1  1
 28 58  1  0
M  CHG  2   3   1   6   1
M  END
>  <i_m_ct_stereo_status>  (55) 
1

>  <s_m_source_file>  (55) 
/var/tmp/pbs.5076255.sched01/tmplremgrqo/0ygzoxw5b.sdf

>  <i_m_source_file_index>  (55) 
23

>  <i_lp_mmshare_version>  (55) 
48012

>  <i_f3d_flags>  (55) 
0

>  <s_epik_input>  (55) 
W0NIM11bQ0gyXVtOSF1bQ0gyXVtDSDJdW05IXVtDQEhdKFtDSDJdMSlbQ0BAXTIoW09IXSlbQ0BASF0oW0NIMl1bQ0gyXVtDSDJdMylbQ0BIXShbQ0hdPVtDSF1bQ0BIXTRbT0hdKU9jNWMoW09IXSlbY0hdW2NIXWMxYzVDMjM0

>  <s_epik_cmdline>  (55) 
J2VwaWtfcHl0aG9uJywgJy1waHQnLCAnMi4wJywgJy1waCcsICc3LjAnLCAnLXRuJywgJzgnLCAnLW1hJywgJzIwMCcsICctaW1hZScsICc8aW5maWxlLm1hZT4nLCAnLW9tYWUnLCAnPG91dGZpbGUubWFlPic=

>  <r_lp_tautomer_probability>  (55) 
1

>  <r_epik_Ionization_Penalty>  (55) 
0.579483

>  <r_epik_Ionization_Penalty_Charging>  (55) 
0.578371

>  <r_epik_Ionization_Penalty_Neutral>  (55) 
0.00111194

>  <r_epik_State_Penalty>  (55) 
0.490756

>  <r_epik_Charging_Adjusted_Penalty>  (55) 
1.06913

>  <i_epik_Tot_Q>  (55) 
2

>  <i_epik_Tot_abs_Q>  (55) 
2

>  <s_lp_Force_Field>  (55) 
OPLS3e

>  <r_lp_Energy>  (55) 
449.238

>  <b_lp_Chiralities_Consistent>  (55) 
1

>  <s_lp_Variant>  (55) 
14:0-1

>  <s_i_glide_gridfile>  (55) 
pfpi4k_grid

>  <i_i_glide_lignum>  (55) 
23

>  <i_i_glide_rotatable_bonds>  (55) 
8

>  <r_i_docking_score>  (55) 
-3.72666

>  <r_i_glide_ligand_efficiency>  (55) 
-0.133095

>  <r_i_glide_ligand_efficiency_sa>  (55) 
-0.404155

>  <r_i_glide_ligand_efficiency_ln>  (55) 
-0.860222

>  <r_i_glide_gscore>  (55) 
-3.72666

>  <r_i_glide_lipo>  (55) 
-0.00115631

>  <r_i_glide_hbond>  (55) 
-0.285803

>  <r_i_glide_metal>  (55) 
-0

>  <r_i_glide_rewards>  (55) 
-0.760224

>  <r_i_glide_evdw>  (55) 
-20.2839

>  <r_i_glide_ecoul>  (55) 
-14.103

>  <r_i_glide_erotb>  (55) 
0.51638

>  <r_i_glide_esite>  (55) 
-0.0662088

>  <r_i_glide_emodel>  (55) 
-40.9038

>  <r_i_glide_energy>  (55) 
-34.3869

>  <r_i_glide_einternal>  (55) 
8.20601

>  <r_i_glide_intrahb_reward>  (55) 
-0

>  <i_i_glide_confnum>  (55) 
2

>  <i_i_glide_posenum>  (55) 
10

>  <r_i_glide_eff_state_penalty>  (55) 
0

>  <ligand_id>  (55) 
14

>  <original_smiles>  (55) 
CCNCCNC1Cc2ccc(O)c3c2C24CCCC(C(C=CC2O)O3)C14O

>  <smiles>  (55) 
[H]Oc1c([H])c([H])c2c3c1OC1([H])C([H])=C([H])C([H])(O[H])C34C([H])([H])C([H])([H])C([H])([H])C1([H])C4(O[H])C([H])([N+]([H])([H])C([H])([H])C([H])([H])[N+]([H])([H])C([H])([H])C([H])([H])[H])C2([H])[H]

$$$$
14:1:0
     RDKit          3D

 59 63  0  0  1  0  0  0  0  0999 V2000
    4.1898   -0.9173   -1.7203 C   0  0  0  0  0  0  0  0  0  0  0  0
    3.9085   -1.8778   -0.5584 C   0  0  0  0  0  0  0  0  0  0  0  0
    3.0178   -1.3026    0.4728 N   0  0  0  0  0  0  0  0  0  0  0  0
    3.5697   -0.1400    1.1994 C   0  0  0  0  0  0  0  0  0  0  0  0
    2.7652    0.1870    2.4683 C   0  0  0  0  0  0  0  0  0  0  0  0
    2.9985    1.5669    2.9128 N   0  0  0  0  0  0  0  0  0  0  0  0
    1.9121    2.5142    2.5882 C   0  0  2  0  0  0  0  0  0  0  0  0
    2.4414    4.0487    2.4722 C   0  0  0  0  0  0  0  0  0  0  0  0
    1.8692    5.1697    3.3783 C   0  0  0  0  0  0  0  0  0  0  0  0
    2.3493    6.4289    3.8013 C   0  0  0  0  0  0  0  0  0  0  0  0
    1.6984    7.0766    4.8951 C   0  0  0  0  0  0  0  0  0  0  0  0
    0.6193    6.4807    5.6294 C   0  0  0  0  0  0  0  0  0  0  0  0
    0.1205    7.1174    6.7295 O   0  0  0  0  0  0  0  0  0  0  0  0
    0.1010    5.2147    5.2651 C   0  0  0  0  0  0  0  0  0  0  0  0
    0.7982    4.7294    4.1153 C   0  0  0  0  0  0  0  0  0  0  0  0
    0.2747    3.4494    3.9181 C   0  0  1  0  0  0  0  0  0  0  0  0
    1.4800    3.1113    5.2323 C   0  0  0  0  0  0  0  0  0  0  0  0
    1.3382    1.9091    6.1966 C   0  0  0  0  0  0  0  0  0  0  0  0
    0.5075    0.8614    5.5250 C   0  0  0  0  0  0  0  0  0  0  0  0
   -0.3876    1.7106    4.6604 C   0  0  1  0  0  0  0  0  0  0  0  0
   -1.1956    2.8516    5.7102 C   0  0  2  0  0  0  0  0  0  0  0  0
   -2.5467    3.0154    5.1504 C   0  0  0  0  0  0  0  0  0  0  0  0
   -2.5513    3.5566    3.9471 C   0  0  0  0  0  0  0  0  0  0  0  0
   -1.2365    3.9992    3.3375 C   0  0  1  0  0  0  0  0  0  0  0  0
   -1.3845    5.3441    2.8782 O   0  0  0  0  0  0  0  0  0  0  0  0
   -0.7213    4.3047    6.0598 O   0  0  0  0  0  0  0  0  0  0  0  0
    0.4654    2.1804    3.2548 C   0  0  2  0  0  0  0  0  0  0  0  0
   -0.3105    1.7012    2.1627 O   0  0  0  0  0  0  0  0  0  0  0  0
    4.8986   -1.3576   -2.4169 H   0  0  0  0  0  0  0  0  0  0  0  0
    4.6263    0.0106   -1.3656 H   0  0  0  0  0  0  0  0  0  0  0  0
    3.2768   -0.6702   -2.2626 H   0  0  0  0  0  0  0  0  0  0  0  0
    3.4367   -2.7766   -0.9516 H   0  0  0  0  0  0  0  0  0  0  0  0
    4.8437   -2.2079   -0.0963 H   0  0  0  0  0  0  0  0  0  0  0  0
    2.1214   -1.0571    0.0305 H   0  0  0  0  0  0  0  0  0  0  0  0
    4.6146   -0.3172    1.4618 H   0  0  0  0  0  0  0  0  0  0  0  0
    3.5680    0.7120    0.5264 H   0  0  0  0  0  0  0  0  0  0  0  0
    1.7043    0.0116    2.2812 H   0  0  0  0  0  0  0  0  0  0  0  0
    3.0387   -0.5108    3.2617 H   0  0  0  0  0  0  0  0  0  0  0  0
    3.8912    1.9367    2.5729 H   0  0  0  0  0  0  0  0  0  0  0  0
    1.7382    2.3353    1.5273 H   0  0  0  0  0  0  0  0  0  0  0  0
    3.5267    4.0977    2.5260 H   0  0  0  0  0  0  0  0  0  0  0  0
    2.2194    4.3839    1.4657 H   0  0  0  0  0  0  0  0  0  0  0  0
    3.2236    6.8725    3.3441 H   0  0  0  0  0  0  0  0  0  0  0  0
    2.0833    8.0241    5.2224 H   0  0  0  0  0  0  0  0  0  0  0  0
    0.6089    7.8911    6.9500 H   0  0  0  0  0  0  0  0  0  0  0  0
    2.4714    2.9576    4.8303 H   0  0  0  0  0  0  0  0  0  0  0  0
    1.7982    3.8727    5.9586 H   0  0  0  0  0  0  0  0  0  0  0  0
    2.2996    1.5095    6.5088 H   0  0  0  0  0  0  0  0  0  0  0  0
    0.8540    2.2286    7.1206 H   0  0  0  0  0  0  0  0  0  0  0  0
    1.1169    0.1979    4.9164 H   0  0  0  0  0  0  0  0  0  0  0  0
   -0.0500    0.2572    6.2440 H   0  0  0  0  0  0  0  0  0  0  0  0
   -1.1601    1.0216    4.3233 H   0  0  0  0  0  0  0  0  0  0  0  0
   -1.3731    2.3659    6.6722 H   0  0  0  0  0  0  0  0  0  0  0  0
   -3.4134    2.7469    5.7279 H   0  0  0  0  0  0  0  0  0  0  0  0
   -3.4690    3.7361    3.4073 H   0  0  0  0  0  0  0  0  0  0  0  0
   -1.4193    3.6210    2.3466 H   0  0  0  0  0  0  0  0  0  0  0  0
   -0.8637    5.4119    2.0778 H   0  0  0  0  0  0  0  0  0  0  0  0
   -0.2066    2.3179    1.4495 H   0  0  0  0  0  0  0  0  0  0  0  0
    2.8303   -2.0226    1.1489 H   0  0  0  0  0  0  0  0  0  0  0  0
  1  2  1  0
  1 29  1  0
  1 30  1  0
  1 31  1  0
  2  3  1  0
  2 32  1  0
  2 33  1  0
  3  4  1  0
  3 34  1  0
  3 59  1  0
  4  5  1  0
  4 35  1  0
  4 36  1  0
  5  6  1  0
  5 37  1  0
  5 38  1  0
  6  7  1  0
  6 39  1  0
  7 27  1  0
  7  8  1  0
  7 40  1  6
  8  9  1  0
  8 41  1  0
  8 42  1  0
  9 15  2  0
  9 10  1  0
 10 11  2  0
 10 43  1  0
 11 12  1  0
 11 44  1  0
 12 13  1  0
 12 14  2  0
 13 45  1  0
 14 26  1  0
 14 15  1  0
 15 16  1  0
 16 24  1  0
 16 27  1  0
 16 17  1  1
 17 18  1  0
 17 46  1  0
 17 47  1  0
 18 19  1  0
 18 48  1  0
 18 49  1  0
 19 20  1  0
 19 50  1  0
 19 51  1  0
 20 21  1  0
 20 27  1  0
 20 52  1  6
 21 22  1  0
 21 26  1  0
 21 53  1  1
 22 23  2  0
 22 54  1  0
 23 24  1  0
 23 55  1  0
 24 25  1  0
 24 56  1  6
 25 57  1  0
 27 28  1  6
 28 58  1  0
M  CHG  1   3   1
M  END
>  <i_m_ct_stereo_status>  (56) 
1

>  <s_m_source_file>  (56) 
/var/tmp/pbs.5076255.sched01/tmplremgrqo/0ygzoxw5b.sdf

>  <i_m_source_file_index>  (56) 
24

>  <i_lp_mmshare_version>  (56) 
48012

>  <i_f3d_flags>  (56) 
0

>  <s_epik_input>  (56) 
W0NIM11bQ0gyXVtOSF1bQ0gyXVtDSDJdW05IXVtDQEhdKFtDSDJdMSlbQ0BAXTIoW09IXSlbQ0BASF0oW0NIMl1bQ0gyXVtDSDJdMylbQ0BIXShbQ0hdPVtDSF1bQ0BIXTRbT0hdKU9jNWMoW09IXSlbY0hdW2NIXWMxYzVDMjM0

>  <s_epik_cmdline>  (56) 
J2VwaWtfcHl0aG9uJywgJy1waHQnLCAnMi4wJywgJy1waCcsICc3LjAnLCAnLXRuJywgJzgnLCAnLW1hJywgJzIwMCcsICctaW1hZScsICc8aW5maWxlLm1hZT4nLCAnLW9tYWUnLCAnPG91dGZpbGUubWFlPic=

>  <r_lp_tautomer_probability>  (56) 
1

>  <r_epik_Ionization_Penalty>  (56) 
0.42301

>  <r_epik_Ionization_Penalty_Charging>  (56) 
0.00134128

>  <r_epik_Ionization_Penalty_Neutral>  (56) 
0.421669

>  <r_epik_State_Penalty>  (56) 
0.513718

>  <r_epik_Charging_Adjusted_Penalty>  (56) 
0.515059

>  <i_epik_Tot_Q>  (56) 
1

>  <i_epik_Tot_abs_Q>  (56) 
1

>  <s_lp_Force_Field>  (56) 
OPLS3e

>  <r_lp_Energy>  (56) 
436.977

>  <b_lp_Chiralities_Consistent>  (56) 
1

>  <s_lp_Variant>  (56) 
14:0-2

>  <s_i_glide_gridfile>  (56) 
pfpi4k_grid

>  <i_i_glide_lignum>  (56) 
24

>  <i_i_glide_rotatable_bonds>  (56) 
8

>  <r_i_docking_score>  (56) 
-4.75997

>  <r_i_glide_ligand_efficiency>  (56) 
-0.169999

>  <r_i_glide_ligand_efficiency_sa>  (56) 
-0.516217

>  <r_i_glide_ligand_efficiency_ln>  (56) 
-1.09874

>  <r_i_glide_gscore>  (56) 
-4.75997

>  <r_i_glide_lipo>  (56) 
-0.00790062

>  <r_i_glide_hbond>  (56) 
-0.604256

>  <r_i_glide_metal>  (56) 
-0

>  <r_i_glide_rewards>  (56) 
-0.767096

>  <r_i_glide_evdw>  (56) 
-21.2057

>  <r_i_glide_ecoul>  (56) 
-18.37

>  <r_i_glide_erotb>  (56) 
0.518794

>  <r_i_glide_esite>  (56) 
-0.0837323

>  <r_i_glide_emodel>  (56) 
-50.6974

>  <r_i_glide_energy>  (56) 
-39.5757

>  <r_i_glide_einternal>  (56) 
7.11785

>  <r_i_glide_intrahb_reward>  (56) 
-0

>  <i_i_glide_confnum>  (56) 
4

>  <i_i_glide_posenum>  (56) 
33

>  <r_i_glide_eff_state_penalty>  (56) 
0

>  <ligand_id>  (56) 
14

>  <original_smiles>  (56) 
CCNCCNC1Cc2ccc(O)c3c2C24CCCC(C(C=CC2O)O3)C14O

>  <smiles>  (56) 
[H]Oc1c([H])c([H])c2c3c1OC1([H])C([H])=C([H])C([H])(O[H])C34C([H])([H])C([H])([H])C([H])([H])C1([H])C4(O[H])C([H])(N([H])C([H])([H])C([H])([H])[N+]([H])([H])C([H])([H])C([H])([H])[H])C2([H])[H]

$$$$
14:1:1
     RDKit          3D

 59 63  0  0  1  0  0  0  0  0999 V2000
    2.4084    1.9611    2.0841 C   0  0  0  0  0  0  0  0  0  0  0  0
    3.1242    0.6206    1.8650 C   0  0  0  0  0  0  0  0  0  0  0  0
    2.1806   -0.5200    1.9471 N   0  0  0  0  0  0  0  0  0  0  0  0
    2.8074   -1.8211    2.3032 C   0  0  0  0  0  0  0  0  0  0  0  0
    1.8090   -2.7539    3.0160 C   0  0  0  0  0  0  0  0  0  0  0  0
    2.1528   -4.1845    2.8697 N   0  0  0  0  0  0  0  0  0  0  0  0
    1.1125   -5.1279    3.3364 C   0  0  2  0  0  0  0  0  0  0  0  0
    0.6317   -4.8898    4.8755 C   0  0  0  0  0  0  0  0  0  0  0  0
    0.7796   -6.0182    5.9278 C   0  0  0  0  0  0  0  0  0  0  0  0
    0.9047   -6.0267    7.3306 C   0  0  0  0  0  0  0  0  0  0  0  0
    1.3469   -7.2291    7.9668 C   0  0  0  0  0  0  0  0  0  0  0  0
    1.7271   -8.4047    7.2427 C   0  0  0  0  0  0  0  0  0  0  0  0
    2.2279   -9.4714    7.9356 O   0  0  0  0  0  0  0  0  0  0  0  0
    1.6550   -8.4513    5.8291 C   0  0  0  0  0  0  0  0  0  0  0  0
    1.1322   -7.2086    5.3422 C   0  0  0  0  0  0  0  0  0  0  0  0
    1.2102   -7.3409    3.9549 C   0  0  1  0  0  0  0  0  0  0  0  0
    2.9302   -6.8840    4.3286 C   0  0  0  0  0  0  0  0  0  0  0  0
    4.1051   -7.2589    3.3927 C   0  0  0  0  0  0  0  0  0  0  0  0
    3.5641   -7.4589    2.0110 C   0  0  0  0  0  0  0  0  0  0  0  0
    2.1754   -7.9619    2.3123 C   0  0  1  0  0  0  0  0  0  0  0  0
    2.3399   -9.3679    3.3432 C   0  0  2  0  0  0  0  0  0  0  0  0
    1.2590  -10.2853    2.9342 C   0  0  0  0  0  0  0  0  0  0  0  0
    0.0563   -9.8047    3.1669 C   0  0  0  0  0  0  0  0  0  0  0  0
   -0.0937   -8.4608    3.8445 C   0  0  1  0  0  0  0  0  0  0  0  0
   -0.9794   -8.6546    4.9483 O   0  0  0  0  0  0  0  0  0  0  0  0
    2.3148   -9.3768    4.9141 O   0  0  0  0  0  0  0  0  0  0  0  0
    1.1807   -6.6257    2.6997 C   0  0  2  0  0  0  0  0  0  0  0  0
    0.1065   -6.6564    1.7515 O   0  0  0  0  0  0  0  0  0  0  0  0
    3.1255    2.7785    2.1140 H   0  0  0  0  0  0  0  0  0  0  0  0
    1.8791    1.9956    3.0377 H   0  0  0  0  0  0  0  0  0  0  0  0
    1.7054    2.1883    1.2808 H   0  0  0  0  0  0  0  0  0  0  0  0
    3.6377    0.6012    0.9037 H   0  0  0  0  0  0  0  0  0  0  0  0
    3.9023    0.5379    2.6267 H   0  0  0  0  0  0  0  0  0  0  0  0
    1.5100   -0.2860    2.6652 H   0  0  0  0  0  0  0  0  0  0  0  0
    3.1846   -2.2712    1.3859 H   0  0  0  0  0  0  0  0  0  0  0  0
    3.6718   -1.6866    2.9583 H   0  0  0  0  0  0  0  0  0  0  0  0
    1.7743   -2.4451    4.0635 H   0  0  0  0  0  0  0  0  0  0  0  0
    0.8101   -2.5786    2.6169 H   0  0  0  0  0  0  0  0  0  0  0  0
    3.0085   -4.3823    3.3775 H   0  0  0  0  0  0  0  0  0  0  0  0
    0.2260   -4.7393    2.8469 H   0  0  0  0  0  0  0  0  0  0  0  0
    1.1141   -4.0221    5.3176 H   0  0  0  0  0  0  0  0  0  0  0  0
   -0.4313   -4.6558    4.8686 H   0  0  0  0  0  0  0  0  0  0  0  0
    0.7322   -5.1339    7.9176 H   0  0  0  0  0  0  0  0  0  0  0  0
    1.4689   -7.2338    9.0349 H   0  0  0  0  0  0  0  0  0  0  0  0
    2.1386  -10.3241    7.5177 H   0  0  0  0  0  0  0  0  0  0  0  0
    3.0527   -5.8142    4.4273 H   0  0  0  0  0  0  0  0  0  0  0  0
    3.4043   -7.0985    5.2953 H   0  0  0  0  0  0  0  0  0  0  0  0
    4.9004   -6.5165    3.4024 H   0  0  0  0  0  0  0  0  0  0  0  0
    4.5740   -8.1793    3.7438 H   0  0  0  0  0  0  0  0  0  0  0  0
    3.5254   -6.5255    1.4539 H   0  0  0  0  0  0  0  0  0  0  0  0
    4.1541   -8.1818    1.4422 H   0  0  0  0  0  0  0  0  0  0  0  0
    1.8243   -8.3451    1.3540 H   0  0  0  0  0  0  0  0  0  0  0  0
    3.2479   -9.9005    3.0609 H   0  0  0  0  0  0  0  0  0  0  0  0
    1.4731  -11.2600    2.5208 H   0  0  0  0  0  0  0  0  0  0  0  0
   -0.8343  -10.3677    2.9372 H   0  0  0  0  0  0  0  0  0  0  0  0
   -0.8761   -8.0414    3.2271 H   0  0  0  0  0  0  0  0  0  0  0  0
   -1.3465   -9.5510    4.9015 H   0  0  0  0  0  0  0  0  0  0  0  0
    0.0511   -7.5335    1.3955 H   0  0  0  0  0  0  0  0  0  0  0  0
    1.6842   -0.6174    1.0616 H   0  0  0  0  0  0  0  0  0  0  0  0
  1  2  1  0
  1 29  1  0
  1 30  1  0
  1 31  1  0
  2  3  1  0
  2 32  1  0
  2 33  1  0
  3  4  1  0
  3 34  1  0
  3 59  1  0
  4  5  1  0
  4 35  1  0
  4 36  1  0
  5  6  1  0
  5 37  1  0
  5 38  1  0
  6  7  1  0
  6 39  1  0
  7 27  1  0
  7  8  1  0
  7 40  1  6
  8  9  1  0
  8 41  1  0
  8 42  1  0
  9 15  2  0
  9 10  1  0
 10 11  2  0
 10 43  1  0
 11 12  1  0
 11 44  1  0
 12 13  1  0
 12 14  2  0
 13 45  1  0
 14 26  1  0
 14 15  1  0
 15 16  1  0
 16 24  1  0
 16 27  1  0
 16 17  1  1
 17 18  1  0
 17 46  1  0
 17 47  1  0
 18 19  1  0
 18 48  1  0
 18 49  1  0
 19 20  1  0
 19 50  1  0
 19 51  1  0
 20 21  1  0
 20 27  1  0
 20 52  1  6
 21 22  1  0
 21 26  1  0
 21 53  1  1
 22 23  2  0
 22 54  1  0
 23 24  1  0
 23 55  1  0
 24 25  1  0
 24 56  1  6
 25 57  1  0
 27 28  1  6
 28 58  1  0
M  CHG  1   3   1
M  END
>  <i_m_ct_stereo_status>  (57) 
1

>  <s_m_source_file>  (57) 
/var/tmp/pbs.5076255.sched01/tmplremgrqo/0ygzoxw5b.sdf

>  <i_m_source_file_index>  (57) 
24

>  <i_lp_mmshare_version>  (57) 
48012

>  <i_f3d_flags>  (57) 
0

>  <s_epik_input>  (57) 
W0NIM11bQ0gyXVtOSF1bQ0gyXVtDSDJdW05IXVtDQEhdKFtDSDJdMSlbQ0BAXTIoW09IXSlbQ0BASF0oW0NIMl1bQ0gyXVtDSDJdMylbQ0BIXShbQ0hdPVtDSF1bQ0BIXTRbT0hdKU9jNWMoW09IXSlbY0hdW2NIXWMxYzVDMjM0

>  <s_epik_cmdline>  (57) 
J2VwaWtfcHl0aG9uJywgJy1waHQnLCAnMi4wJywgJy1waCcsICc3LjAnLCAnLXRuJywgJzgnLCAnLW1hJywgJzIwMCcsICctaW1hZScsICc8aW5maWxlLm1hZT4nLCAnLW9tYWUnLCAnPG91dGZpbGUubWFlPic=

>  <r_lp_tautomer_probability>  (57) 
1

>  <r_epik_Ionization_Penalty>  (57) 
0.42301

>  <r_epik_Ionization_Penalty_Charging>  (57) 
0.00134128

>  <r_epik_Ionization_Penalty_Neutral>  (57) 
0.421669

>  <r_epik_State_Penalty>  (57) 
0.513718

>  <r_epik_Charging_Adjusted_Penalty>  (57) 
0.515059

>  <i_epik_Tot_Q>  (57) 
1

>  <i_epik_Tot_abs_Q>  (57) 
1

>  <s_lp_Force_Field>  (57) 
OPLS3e

>  <r_lp_Energy>  (57) 
436.977

>  <b_lp_Chiralities_Consistent>  (57) 
1

>  <s_lp_Variant>  (57) 
14:0-2

>  <s_i_glide_gridfile>  (57) 
pfpi4k_grid

>  <i_i_glide_lignum>  (57) 
24

>  <i_i_glide_rotatable_bonds>  (57) 
8

>  <r_i_docking_score>  (57) 
-4.07328

>  <r_i_glide_ligand_efficiency>  (57) 
-0.145474

>  <r_i_glide_ligand_efficiency_sa>  (57) 
-0.441745

>  <r_i_glide_ligand_efficiency_ln>  (57) 
-0.940232

>  <r_i_glide_gscore>  (57) 
-4.07328

>  <r_i_glide_lipo>  (57) 
-0.321033

>  <r_i_glide_hbond>  (57) 
-0.304499

>  <r_i_glide_metal>  (57) 
-0

>  <r_i_glide_rewards>  (57) 
-0.767096

>  <r_i_glide_evdw>  (57) 
-19.1672

>  <r_i_glide_ecoul>  (57) 
-14.5702

>  <r_i_glide_erotb>  (57) 
0.518794

>  <r_i_glide_esite>  (57) 
-0.0555578

>  <r_i_glide_emodel>  (57) 
-41.2473

>  <r_i_glide_energy>  (57) 
-33.7374

>  <r_i_glide_einternal>  (57) 
8.41903

>  <r_i_glide_intrahb_reward>  (57) 
-0

>  <i_i_glide_confnum>  (57) 
4

>  <i_i_glide_posenum>  (57) 
2

>  <r_i_glide_eff_state_penalty>  (57) 
0

>  <ligand_id>  (57) 
14

>  <original_smiles>  (57) 
CCNCCNC1Cc2ccc(O)c3c2C24CCCC(C(C=CC2O)O3)C14O

>  <smiles>  (57) 
[H]Oc1c([H])c([H])c2c3c1OC1([H])C([H])=C([H])C([H])(O[H])C34C([H])([H])C([H])([H])C([H])([H])C1([H])C4(O[H])C([H])(N([H])C([H])([H])C([H])([H])[N+]([H])([H])C([H])([H])C([H])([H])[H])C2([H])[H]

$$$$
14:1:2
     RDKit          3D

 59 63  0  0  1  0  0  0  0  0999 V2000
    5.0752   -2.5541   -0.0640 C   0  0  0  0  0  0  0  0  0  0  0  0
    5.2318   -1.0259   -0.0421 C   0  0  0  0  0  0  0  0  0  0  0  0
    4.0776   -0.3399    0.5713 N   0  0  0  0  0  0  0  0  0  0  0  0
    3.9278   -0.5568    2.0230 C   0  0  0  0  0  0  0  0  0  0  0  0
    2.7031    0.1934    2.5477 C   0  0  0  0  0  0  0  0  0  0  0  0
    3.0049    1.5929    2.8626 N   0  0  0  0  0  0  0  0  0  0  0  0
    1.9091    2.5384    2.5730 C   0  0  2  0  0  0  0  0  0  0  0  0
    2.4368    4.0684    2.4565 C   0  0  0  0  0  0  0  0  0  0  0  0
    1.8651    5.1836    3.3717 C   0  0  0  0  0  0  0  0  0  0  0  0
    2.3411    6.4381    3.8015 C   0  0  0  0  0  0  0  0  0  0  0  0
    1.6911    7.0799    4.9013 C   0  0  0  0  0  0  0  0  0  0  0  0
    0.6173    6.4814    5.6320 C   0  0  0  0  0  0  0  0  0  0  0  0
    0.1188    7.1017    6.7367 O   0  0  0  0  0  0  0  0  0  0  0  0
    0.0965    5.2119    5.2566 C   0  0  0  0  0  0  0  0  0  0  0  0
    0.7924    4.7360    4.1043 C   0  0  0  0  0  0  0  0  0  0  0  0
    0.2707    3.4552    3.9028 C   0  0  1  0  0  0  0  0  0  0  0  0
    1.4815    3.1098    5.2129 C   0  0  0  0  0  0  0  0  0  0  0  0
    1.3394    1.9032    6.1778 C   0  0  0  0  0  0  0  0  0  0  0  0
    0.4909    0.8621    5.5162 C   0  0  0  0  0  0  0  0  0  0  0  0
   -0.3930    1.7130    4.6393 C   0  0  1  0  0  0  0  0  0  0  0  0
   -1.1971    2.8492    5.6982 C   0  0  2  0  0  0  0  0  0  0  0  0
   -2.5482    3.0124    5.1370 C   0  0  0  0  0  0  0  0  0  0  0  0
   -2.5539    3.5574    3.9378 C   0  0  0  0  0  0  0  0  0  0  0  0
   -1.2436    3.9974    3.3243 C   0  0  1  0  0  0  0  0  0  0  0  0
   -1.3969    5.3424    2.8710 O   0  0  0  0  0  0  0  0  0  0  0  0
   -0.7215    4.3030    6.0478 O   0  0  0  0  0  0  0  0  0  0  0  0
    0.4640    2.1885    3.2374 C   0  0  2  0  0  0  0  0  0  0  0  0
   -0.3054    1.7127    2.1376 O   0  0  0  0  0  0  0  0  0  0  0  0
    5.8999   -3.0078   -0.6126 H   0  0  0  0  0  0  0  0  0  0  0  0
    4.1451   -2.8528   -0.5536 H   0  0  0  0  0  0  0  0  0  0  0  0
    5.0870   -2.9791    0.9426 H   0  0  0  0  0  0  0  0  0  0  0  0
    6.1519   -0.7388    0.4720 H   0  0  0  0  0  0  0  0  0  0  0  0
    5.3197   -0.6622   -1.0676 H   0  0  0  0  0  0  0  0  0  0  0  0
    4.1986    0.6555    0.4261 H   0  0  0  0  0  0  0  0  0  0  0  0
    3.7677   -1.6187    2.2128 H   0  0  0  0  0  0  0  0  0  0  0  0
    4.8298   -0.2745    2.5691 H   0  0  0  0  0  0  0  0  0  0  0  0
    1.8629    0.0885    1.8546 H   0  0  0  0  0  0  0  0  0  0  0  0
    2.4091   -0.3225    3.4554 H   0  0  0  0  0  0  0  0  0  0  0  0
    3.8777    1.9331    2.4479 H   0  0  0  0  0  0  0  0  0  0  0  0
    1.7319    2.3592    1.5138 H   0  0  0  0  0  0  0  0  0  0  0  0
    3.5226    4.1128    2.5114 H   0  0  0  0  0  0  0  0  0  0  0  0
    2.2212    4.4085    1.4464 H   0  0  0  0  0  0  0  0  0  0  0  0
    3.2106    6.8869    3.3461 H   0  0  0  0  0  0  0  0  0  0  0  0
    2.0771    8.0272    5.2337 H   0  0  0  0  0  0  0  0  0  0  0  0
    0.6068    7.8783    6.9646 H   0  0  0  0  0  0  0  0  0  0  0  0
    2.4803    2.9611    4.8110 H   0  0  0  0  0  0  0  0  0  0  0  0
    1.8045    3.8673    5.9409 H   0  0  0  0  0  0  0  0  0  0  0  0
    2.3060    1.4989    6.4718 H   0  0  0  0  0  0  0  0  0  0  0  0
    0.8657    2.2273    7.1076 H   0  0  0  0  0  0  0  0  0  0  0  0
    1.0863    0.1816    4.9200 H   0  0  0  0  0  0  0  0  0  0  0  0
   -0.0714    0.2658    6.2387 H   0  0  0  0  0  0  0  0  0  0  0  0
   -1.1650    1.0198    4.2939 H   0  0  0  0  0  0  0  0  0  0  0  0
   -1.3701    2.3508    6.6561 H   0  0  0  0  0  0  0  0  0  0  0  0
   -3.4144    2.7321    5.7151 H   0  0  0  0  0  0  0  0  0  0  0  0
   -3.4747    3.7359    3.3980 H   0  0  0  0  0  0  0  0  0  0  0  0
   -1.4235    3.6270    2.3269 H   0  0  0  0  0  0  0  0  0  0  0  0
   -0.8729    5.4202    2.0803 H   0  0  0  0  0  0  0  0  0  0  0  0
   -0.2006    2.3342    1.4254 H   0  0  0  0  0  0  0  0  0  0  0  0
    3.2211   -0.6308    0.1068 H   0  0  0  0  0  0  0  0  0  0  0  0
  1  2  1  0
  1 29  1  0
  1 30  1  0
  1 31  1  0
  2  3  1  0
  2 32  1  0
  2 33  1  0
  3  4  1  0
  3 34  1  0
  3 59  1  0
  4  5  1  0
  4 35  1  0
  4 36  1  0
  5  6  1  0
  5 37  1  0
  5 38  1  0
  6  7  1  0
  6 39  1  0
  7 27  1  0
  7  8  1  0
  7 40  1  6
  8  9  1  0
  8 41  1  0
  8 42  1  0
  9 15  2  0
  9 10  1  0
 10 11  2  0
 10 43  1  0
 11 12  1  0
 11 44  1  0
 12 13  1  0
 12 14  2  0
 13 45  1  0
 14 26  1  0
 14 15  1  0
 15 16  1  0
 16 24  1  0
 16 27  1  0
 16 17  1  1
 17 18  1  0
 17 46  1  0
 17 47  1  0
 18 19  1  0
 18 48  1  0
 18 49  1  0
 19 20  1  0
 19 50  1  0
 19 51  1  0
 20 21  1  0
 20 27  1  0
 20 52  1  6
 21 22  1  0
 21 26  1  0
 21 53  1  1
 22 23  2  0
 22 54  1  0
 23 24  1  0
 23 55  1  0
 24 25  1  0
 24 56  1  6
 25 57  1  0
 27 28  1  6
 28 58  1  0
M  CHG  1   3   1
M  END
>  <i_m_ct_stereo_status>  (58) 
1

>  <s_m_source_file>  (58) 
/var/tmp/pbs.5076255.sched01/tmplremgrqo/0ygzoxw5b.sdf

>  <i_m_source_file_index>  (58) 
24

>  <i_lp_mmshare_version>  (58) 
48012

>  <i_f3d_flags>  (58) 
0

>  <s_epik_input>  (58) 
W0NIM11bQ0gyXVtOSF1bQ0gyXVtDSDJdW05IXVtDQEhdKFtDSDJdMSlbQ0BAXTIoW09IXSlbQ0BASF0oW0NIMl1bQ0gyXVtDSDJdMylbQ0BIXShbQ0hdPVtDSF1bQ0BIXTRbT0hdKU9jNWMoW09IXSlbY0hdW2NIXWMxYzVDMjM0

>  <s_epik_cmdline>  (58) 
J2VwaWtfcHl0aG9uJywgJy1waHQnLCAnMi4wJywgJy1waCcsICc3LjAnLCAnLXRuJywgJzgnLCAnLW1hJywgJzIwMCcsICctaW1hZScsICc8aW5maWxlLm1hZT4nLCAnLW9tYWUnLCAnPG91dGZpbGUubWFlPic=

>  <r_lp_tautomer_probability>  (58) 
1

>  <r_epik_Ionization_Penalty>  (58) 
0.42301

>  <r_epik_Ionization_Penalty_Charging>  (58) 
0.00134128

>  <r_epik_Ionization_Penalty_Neutral>  (58) 
0.421669

>  <r_epik_State_Penalty>  (58) 
0.513718

>  <r_epik_Charging_Adjusted_Penalty>  (58) 
0.515059

>  <i_epik_Tot_Q>  (58) 
1

>  <i_epik_Tot_abs_Q>  (58) 
1

>  <s_lp_Force_Field>  (58) 
OPLS3e

>  <r_lp_Energy>  (58) 
436.977

>  <b_lp_Chiralities_Consistent>  (58) 
1

>  <s_lp_Variant>  (58) 
14:0-2

>  <s_i_glide_gridfile>  (58) 
pfpi4k_grid

>  <i_i_glide_lignum>  (58) 
24

>  <i_i_glide_rotatable_bonds>  (58) 
8

>  <r_i_docking_score>  (58) 
-4.01439

>  <r_i_glide_ligand_efficiency>  (58) 
-0.143371

>  <r_i_glide_ligand_efficiency_sa>  (58) 
-0.435359

>  <r_i_glide_ligand_efficiency_ln>  (58) 
-0.926639

>  <r_i_glide_gscore>  (58) 
-4.01439

>  <r_i_glide_lipo>  (58) 
-0.0497639

>  <r_i_glide_hbond>  (58) 
-0.412089

>  <r_i_glide_metal>  (58) 
-0

>  <r_i_glide_rewards>  (58) 
-0.767096

>  <r_i_glide_evdw>  (58) 
-21.1588

>  <r_i_glide_ecoul>  (58) 
-14.9753

>  <r_i_glide_erotb>  (58) 
0.518794

>  <r_i_glide_esite>  (58) 
0

>  <r_i_glide_emodel>  (58) 
-46.6498

>  <r_i_glide_energy>  (58) 
-36.1341

>  <r_i_glide_einternal>  (58) 
3.97206

>  <r_i_glide_intrahb_reward>  (58) 
-0

>  <i_i_glide_confnum>  (58) 
4

>  <i_i_glide_posenum>  (58) 
23

>  <r_i_glide_eff_state_penalty>  (58) 
0

>  <ligand_id>  (58) 
14

>  <original_smiles>  (58) 
CCNCCNC1Cc2ccc(O)c3c2C24CCCC(C(C=CC2O)O3)C14O

>  <smiles>  (58) 
[H]Oc1c([H])c([H])c2c3c1OC1([H])C([H])=C([H])C([H])(O[H])C34C([H])([H])C([H])([H])C([H])([H])C1([H])C4(O[H])C([H])(N([H])C([H])([H])C([H])([H])[N+]([H])([H])C([H])([H])C([H])([H])[H])C2([H])[H]

$$$$
14:2:0
     RDKit          3D

 59 63  0  0  1  0  0  0  0  0999 V2000
    5.1523   -2.9855   -2.4706 C   0  0  0  0  0  0  0  0  0  0  0  0
    4.2701   -2.9328   -1.2087 C   0  0  0  0  0  0  0  0  0  0  0  0
    3.9841   -4.2684   -0.6985 N   0  0  0  0  0  0  0  0  0  0  0  0
    5.1438   -4.8467   -0.0177 C   0  0  0  0  0  0  0  0  0  0  0  0
    4.9449   -6.3457    0.2448 C   0  0  0  0  0  0  0  0  0  0  0  0
    4.0275   -6.5775    1.3745 N   0  0  0  0  0  0  0  0  0  0  0  0
    3.5280   -7.9696    1.5549 C   0  0  2  0  0  0  0  0  0  0  0  0
    1.9062   -8.0524    1.7225 C   0  0  0  0  0  0  0  0  0  0  0  0
    1.2736   -8.6763    2.9980 C   0  0  0  0  0  0  0  0  0  0  0  0
    0.0069   -8.5801    3.6230 C   0  0  0  0  0  0  0  0  0  0  0  0
   -0.1259   -9.0431    4.9653 C   0  0  0  0  0  0  0  0  0  0  0  0
    0.9688   -9.5506    5.7361 C   0  0  0  0  0  0  0  0  0  0  0  0
    0.7709   -9.8562    7.0560 O   0  0  0  0  0  0  0  0  0  0  0  0
    2.2571   -9.6873    5.1680 C   0  0  0  0  0  0  0  0  0  0  0  0
    2.2227   -9.2635    3.8068 C   0  0  0  0  0  0  0  0  0  0  0  0
    3.5585   -9.3341    3.4092 C   0  0  1  0  0  0  0  0  0  0  0  0
    3.5572   -7.7267    4.2687 C   0  0  0  0  0  0  0  0  0  0  0  0
    4.8356   -7.1136    4.8801 C   0  0  0  0  0  0  0  0  0  0  0  0
    6.0202   -7.6820    4.1559 C   0  0  0  0  0  0  0  0  0  0  0  0
    5.5103   -9.0565    3.7914 C   0  0  1  0  0  0  0  0  0  0  0  0
    4.9891   -9.8390    5.2670 C   0  0  2  0  0  0  0  0  0  0  0  0
    5.3164  -11.2724    5.0992 C   0  0  0  0  0  0  0  0  0  0  0  0
    4.6295  -11.8569    4.1368 C   0  0  0  0  0  0  0  0  0  0  0  0
    3.6072  -11.0474    3.3607 C   0  0  1  0  0  0  0  0  0  0  0  0
    2.3940  -11.7967    3.2918 O   0  0  0  0  0  0  0  0  0  0  0  0
    3.5377   -9.8195    5.8686 O   0  0  0  0  0  0  0  0  0  0  0  0
    4.5135   -8.9344    2.4086 C   0  0  2  0  0  0  0  0  0  0  0  0
    5.1745   -9.7577    1.4416 O   0  0  0  0  0  0  0  0  0  0  0  0
    5.3184   -1.9832   -2.8633 H   0  0  0  0  0  0  0  0  0  0  0  0
    4.6813   -3.5838   -3.2522 H   0  0  0  0  0  0  0  0  0  0  0  0
    6.1405   -3.4053   -2.2861 H   0  0  0  0  0  0  0  0  0  0  0  0
    4.7110   -2.3098   -0.4287 H   0  0  0  0  0  0  0  0  0  0  0  0
    3.3188   -2.4658   -1.4622 H   0  0  0  0  0  0  0  0  0  0  0  0
    3.6709   -4.8560   -1.4706 H   0  0  0  0  0  0  0  0  0  0  0  0
    6.0291   -4.7743   -0.6489 H   0  0  0  0  0  0  0  0  0  0  0  0
    5.3778   -4.2840    0.8946 H   0  0  0  0  0  0  0  0  0  0  0  0
    4.6038   -6.8336   -0.6776 H   0  0  0  0  0  0  0  0  0  0  0  0
    5.9066   -6.7883    0.4975 H   0  0  0  0  0  0  0  0  0  0  0  0
    4.4952   -6.2991    2.2250 H   0  0  0  0  0  0  0  0  0  0  0  0
    3.5885   -8.3711    0.5416 H   0  0  0  0  0  0  0  0  0  0  0  0
    1.4695   -7.0642    1.5933 H   0  0  0  0  0  0  0  0  0  0  0  0
    1.5120   -8.6460    0.8982 H   0  0  0  0  0  0  0  0  0  0  0  0
   -0.8340   -8.1283    3.1164 H   0  0  0  0  0  0  0  0  0  0  0  0
   -1.0830   -8.9699    5.4426 H   0  0  0  0  0  0  0  0  0  0  0  0
    1.0171  -10.7643    7.2779 H   0  0  0  0  0  0  0  0  0  0  0  0
    3.2169   -6.9203    3.6320 H   0  0  0  0  0  0  0  0  0  0  0  0
    2.8419   -7.4872    5.0688 H   0  0  0  0  0  0  0  0  0  0  0  0
    4.8402   -6.0252    4.8504 H   0  0  0  0  0  0  0  0  0  0  0  0
    4.8924   -7.3661    5.9384 H   0  0  0  0  0  0  0  0  0  0  0  0
    6.2742   -7.1045    3.2704 H   0  0  0  0  0  0  0  0  0  0  0  0
    6.9039   -7.7221    4.8014 H   0  0  0  0  0  0  0  0  0  0  0  0
    6.4062   -9.5883    3.4747 H   0  0  0  0  0  0  0  0  0  0  0  0
    5.6436   -9.5134    6.0767 H   0  0  0  0  0  0  0  0  0  0  0  0
    6.0292  -11.7658    5.7431 H   0  0  0  0  0  0  0  0  0  0  0  0
    4.7678  -12.9004    3.9030 H   0  0  0  0  0  0  0  0  0  0  0  0
    3.8842  -11.3498    2.3704 H   0  0  0  0  0  0  0  0  0  0  0  0
    2.6056  -12.7085    3.1411 H   0  0  0  0  0  0  0  0  0  0  0  0
    4.6155  -10.4821    1.1705 H   0  0  0  0  0  0  0  0  0  0  0  0
    3.2459   -5.9587    1.2110 H   0  0  0  0  0  0  0  0  0  0  0  0
  1  2  1  0
  1 29  1  0
  1 30  1  0
  1 31  1  0
  2  3  1  0
  2 32  1  0
  2 33  1  0
  3  4  1  0
  3 34  1  0
  4  5  1  0
  4 35  1  0
  4 36  1  0
  5  6  1  0
  5 37  1  0
  5 38  1  0
  6  7  1  0
  6 39  1  0
  6 59  1  0
  7 27  1  0
  7  8  1  0
  7 40  1  6
  8  9  1  0
  8 41  1  0
  8 42  1  0
  9 15  2  0
  9 10  1  0
 10 11  2  0
 10 43  1  0
 11 12  1  0
 11 44  1  0
 12 13  1  0
 12 14  2  0
 13 45  1  0
 14 26  1  0
 14 15  1  0
 15 16  1  0
 16 24  1  0
 16 27  1  0
 16 17  1  1
 17 18  1  0
 17 46  1  0
 17 47  1  0
 18 19  1  0
 18 48  1  0
 18 49  1  0
 19 20  1  0
 19 50  1  0
 19 51  1  0
 20 21  1  0
 20 27  1  0
 20 52  1  6
 21 22  1  0
 21 26  1  0
 21 53  1  1
 22 23  2  0
 22 54  1  0
 23 24  1  0
 23 55  1  0
 24 25  1  0
 24 56  1  6
 25 57  1  0
 27 28  1  6
 28 58  1  0
M  CHG  1   6   1
M  END
>  <i_m_ct_stereo_status>  (59) 
1

>  <s_m_source_file>  (59) 
/var/tmp/pbs.5076255.sched01/tmplremgrqo/0ygzoxw5b.sdf

>  <i_m_source_file_index>  (59) 
25

>  <i_lp_mmshare_version>  (59) 
48012

>  <i_f3d_flags>  (59) 
0

>  <s_epik_input>  (59) 
W0NIM11bQ0gyXVtOSF1bQ0gyXVtDSDJdW05IXVtDQEhdKFtDSDJdMSlbQ0BAXTIoW09IXSlbQ0BASF0oW0NIMl1bQ0gyXVtDSDJdMylbQ0BIXShbQ0hdPVtDSF1bQ0BIXTRbT0hdKU9jNWMoW09IXSlbY0hdW2NIXWMxYzVDMjM0

>  <s_epik_cmdline>  (59) 
J2VwaWtfcHl0aG9uJywgJy1waHQnLCAnMi4wJywgJy1waCcsICc3LjAnLCAnLXRuJywgJzgnLCAnLW1hJywgJzIwMCcsICctaW1hZScsICc8aW5maWxlLm1hZT4nLCAnLW9tYWUnLCAnPG91dGZpbGUubWFlPic=

>  <r_epik_Ionization_Penalty>  (59) 
0.804865

>  <r_epik_Ionization_Penalty_Charging>  (59) 
0.0056171

>  <r_epik_Ionization_Penalty_Neutral>  (59) 
0.799248

>  <r_epik_State_Penalty>  (59) 
1.15224

>  <r_epik_Charging_Adjusted_Penalty>  (59) 
1.15786

>  <i_epik_Tot_Q>  (59) 
1

>  <i_epik_Tot_abs_Q>  (59) 
1

>  <s_lp_Force_Field>  (59) 
OPLS3e

>  <r_lp_Energy>  (59) 
439.399

>  <b_lp_Chiralities_Consistent>  (59) 
1

>  <s_lp_Variant>  (59) 
14:0-3

>  <s_i_glide_gridfile>  (59) 
pfpi4k_grid

>  <i_i_glide_lignum>  (59) 
25

>  <i_i_glide_rotatable_bonds>  (59) 
8

>  <r_i_docking_score>  (59) 
-4.21719

>  <r_i_glide_ligand_efficiency>  (59) 
-0.150614

>  <r_i_glide_ligand_efficiency_sa>  (59) 
-0.457352

>  <r_i_glide_ligand_efficiency_ln>  (59) 
-0.973451

>  <r_i_glide_gscore>  (59) 
-4.21719

>  <r_i_glide_lipo>  (59) 
-0.353619

>  <r_i_glide_hbond>  (59) 
-0.48

>  <r_i_glide_metal>  (59) 
-0

>  <r_i_glide_rewards>  (59) 
-0.767096

>  <r_i_glide_evdw>  (59) 
-19.4138

>  <r_i_glide_ecoul>  (59) 
-14.4305

>  <r_i_glide_erotb>  (59) 
0.518794

>  <r_i_glide_esite>  (59) 
0

>  <r_i_glide_emodel>  (59) 
-39.8693

>  <r_i_glide_energy>  (59) 
-33.8443

>  <r_i_glide_einternal>  (59) 
6.23779

>  <r_i_glide_intrahb_reward>  (59) 
-0

>  <i_i_glide_confnum>  (59) 
1

>  <i_i_glide_posenum>  (59) 
19

>  <r_i_glide_eff_state_penalty>  (59) 
0

>  <ligand_id>  (59) 
14

>  <original_smiles>  (59) 
CCNCCNC1Cc2ccc(O)c3c2C24CCCC(C(C=CC2O)O3)C14O

>  <smiles>  (59) 
[H]Oc1c([H])c([H])c2c3c1OC1([H])C([H])=C([H])C([H])(O[H])C34C([H])([H])C([H])([H])C([H])([H])C1([H])C4(O[H])C([H])([N+]([H])([H])C([H])([H])C([H])([H])N([H])C([H])([H])C([H])([H])[H])C2([H])[H]

$$$$
14:2:1
     RDKit          3D

 59 63  0  0  1  0  0  0  0  0999 V2000
    3.2389   -2.8256   -2.0381 C   0  0  0  0  0  0  0  0  0  0  0  0
    2.5929   -3.2907   -0.7210 C   0  0  0  0  0  0  0  0  0  0  0  0
    3.0703   -4.6059   -0.3176 N   0  0  0  0  0  0  0  0  0  0  0  0
    4.4313   -4.5283    0.2167 C   0  0  0  0  0  0  0  0  0  0  0  0
    5.0349   -5.9388    0.3146 C   0  0  0  0  0  0  0  0  0  0  0  0
    4.6820   -6.6297    1.5734 N   0  0  0  0  0  0  0  0  0  0  0  0
    3.3058   -7.1803    1.6802 C   0  0  2  0  0  0  0  0  0  0  0  0
    2.1962   -6.1032    2.2046 C   0  0  0  0  0  0  0  0  0  0  0  0
    1.3646   -6.3798    3.4809 C   0  0  0  0  0  0  0  0  0  0  0  0
    0.6434   -5.5673    4.3867 C   0  0  0  0  0  0  0  0  0  0  0  0
    0.2499   -6.1283    5.6397 C   0  0  0  0  0  0  0  0  0  0  0  0
    0.6142   -7.4480    6.0535 C   0  0  0  0  0  0  0  0  0  0  0  0
    0.3244   -7.8663    7.3195 O   0  0  0  0  0  0  0  0  0  0  0  0
    1.3326   -8.3134    5.1895 C   0  0  0  0  0  0  0  0  0  0  0  0
    1.5786   -7.6539    3.9517 C   0  0  0  0  0  0  0  0  0  0  0  0
    2.3716   -8.5664    3.2459 C   0  0  1  0  0  0  0  0  0  0  0  0
    3.6297   -7.7809    4.3055 C   0  0  0  0  0  0  0  0  0  0  0  0
    4.9496   -8.4932    4.6832 C   0  0  0  0  0  0  0  0  0  0  0  0
    5.2522   -9.5207    3.6342 C   0  0  0  0  0  0  0  0  0  0  0  0
    3.8604   -9.9181    3.2083 C   0  0  1  0  0  0  0  0  0  0  0  0
    2.9792  -10.4221    4.6359 C   0  0  2  0  0  0  0  0  0  0  0  0
    2.0861  -11.5041    4.1814 C   0  0  0  0  0  0  0  0  0  0  0  0
    1.1661  -11.1169    3.3202 C   0  0  0  0  0  0  0  0  0  0  0  0
    1.0874   -9.6561    2.9214 C   0  0  1  0  0  0  0  0  0  0  0  0
   -0.2730   -9.2421    3.1014 O   0  0  0  0  0  0  0  0  0  0  0  0
    2.0813   -9.5153    5.5502 O   0  0  0  0  0  0  0  0  0  0  0  0
    3.2651   -8.7410    2.1319 C   0  0  2  0  0  0  0  0  0  0  0  0
    3.0317   -9.4541    0.9208 O   0  0  0  0  0  0  0  0  0  0  0  0
    2.8210   -1.8664   -2.3443 H   0  0  0  0  0  0  0  0  0  0  0  0
    3.0536   -3.5427   -2.8391 H   0  0  0  0  0  0  0  0  0  0  0  0
    4.3159   -2.6861   -1.9566 H   0  0  0  0  0  0  0  0  0  0  0  0
    2.7225   -2.5669    0.0816 H   0  0  0  0  0  0  0  0  0  0  0  0
    1.5202   -3.3776   -0.8863 H   0  0  0  0  0  0  0  0  0  0  0  0
    3.0365   -5.1905   -1.1635 H   0  0  0  0  0  0  0  0  0  0  0  0
    5.0864   -3.9650   -0.4463 H   0  0  0  0  0  0  0  0  0  0  0  0
    4.4327   -4.0030    1.1751 H   0  0  0  0  0  0  0  0  0  0  0  0
    4.8214   -6.5411   -0.5733 H   0  0  0  0  0  0  0  0  0  0  0  0
    6.1187   -5.8130    0.3207 H   0  0  0  0  0  0  0  0  0  0  0  0
    5.3168   -7.4101    1.6606 H   0  0  0  0  0  0  0  0  0  0  0  0
    3.0122   -7.2187    0.6358 H   0  0  0  0  0  0  0  0  0  0  0  0
    2.6613   -5.1264    2.3437 H   0  0  0  0  0  0  0  0  0  0  0  0
    1.4570   -5.9714    1.4127 H   0  0  0  0  0  0  0  0  0  0  0  0
    0.4498   -4.5295    4.1644 H   0  0  0  0  0  0  0  0  0  0  0  0
   -0.2653   -5.5032    6.3432 H   0  0  0  0  0  0  0  0  0  0  0  0
    0.6183   -8.7525    7.4808 H   0  0  0  0  0  0  0  0  0  0  0  0
    3.9990   -6.8483    3.8928 H   0  0  0  0  0  0  0  0  0  0  0  0
    3.3890   -7.3296    5.2780 H   0  0  0  0  0  0  0  0  0  0  0  0
    5.7776   -7.7976    4.8067 H   0  0  0  0  0  0  0  0  0  0  0  0
    4.8338   -8.9804    5.6536 H   0  0  0  0  0  0  0  0  0  0  0  0
    5.8168   -9.1005    2.8004 H   0  0  0  0  0  0  0  0  0  0  0  0
    5.8155  -10.3647    4.0424 H   0  0  0  0  0  0  0  0  0  0  0  0
    4.0185  -10.8275    2.6197 H   0  0  0  0  0  0  0  0  0  0  0  0
    3.6850  -10.9233    5.3048 H   0  0  0  0  0  0  0  0  0  0  0  0
    2.1981  -12.5090    4.5649 H   0  0  0  0  0  0  0  0  0  0  0  0
    0.4577  -11.8192    2.9124 H   0  0  0  0  0  0  0  0  0  0  0  0
    0.9867   -9.7625    1.8472 H   0  0  0  0  0  0  0  0  0  0  0  0
   -0.6659   -9.8031    3.7591 H   0  0  0  0  0  0  0  0  0  0  0  0
    3.3736  -10.3474    0.9816 H   0  0  0  0  0  0  0  0  0  0  0  0
    4.8375   -5.9908    2.3394 H   0  0  0  0  0  0  0  0  0  0  0  0
  1  2  1  0
  1 29  1  0
  1 30  1  0
  1 31  1  0
  2  3  1  0
  2 32  1  0
  2 33  1  0
  3  4  1  0
  3 34  1  0
  4  5  1  0
  4 35  1  0
  4 36  1  0
  5  6  1  0
  5 37  1  0
  5 38  1  0
  6  7  1  0
  6 39  1  0
  6 59  1  0
  7 27  1  0
  7  8  1  0
  7 40  1  6
  8  9  1  0
  8 41  1  0
  8 42  1  0
  9 15  2  0
  9 10  1  0
 10 11  2  0
 10 43  1  0
 11 12  1  0
 11 44  1  0
 12 13  1  0
 12 14  2  0
 13 45  1  0
 14 26  1  0
 14 15  1  0
 15 16  1  0
 16 24  1  0
 16 27  1  0
 16 17  1  1
 17 18  1  0
 17 46  1  0
 17 47  1  0
 18 19  1  0
 18 48  1  0
 18 49  1  0
 19 20  1  0
 19 50  1  0
 19 51  1  0
 20 21  1  0
 20 27  1  0
 20 52  1  6
 21 22  1  0
 21 26  1  0
 21 53  1  1
 22 23  2  0
 22 54  1  0
 23 24  1  0
 23 55  1  0
 24 25  1  0
 24 56  1  6
 25 57  1  0
 27 28  1  6
 28 58  1  0
M  CHG  1   6   1
M  END
>  <i_m_ct_stereo_status>  (60) 
1

>  <s_m_source_file>  (60) 
/var/tmp/pbs.5076255.sched01/tmplremgrqo/0ygzoxw5b.sdf

>  <i_m_source_file_index>  (60) 
25

>  <i_lp_mmshare_version>  (60) 
48012

>  <i_f3d_flags>  (60) 
0

>  <s_epik_input>  (60) 
W0NIM11bQ0gyXVtOSF1bQ0gyXVtDSDJdW05IXVtDQEhdKFtDSDJdMSlbQ0BAXTIoW09IXSlbQ0BASF0oW0NIMl1bQ0gyXVtDSDJdMylbQ0BIXShbQ0hdPVtDSF1bQ0BIXTRbT0hdKU9jNWMoW09IXSlbY0hdW2NIXWMxYzVDMjM0

>  <s_epik_cmdline>  (60) 
J2VwaWtfcHl0aG9uJywgJy1waHQnLCAnMi4wJywgJy1waCcsICc3LjAnLCAnLXRuJywgJzgnLCAnLW1hJywgJzIwMCcsICctaW1hZScsICc8aW5maWxlLm1hZT4nLCAnLW9tYWUnLCAnPG91dGZpbGUubWFlPic=

>  <r_epik_Ionization_Penalty>  (60) 
0.804865

>  <r_epik_Ionization_Penalty_Charging>  (60) 
0.0056171

>  <r_epik_Ionization_Penalty_Neutral>  (60) 
0.799248

>  <r_epik_State_Penalty>  (60) 
1.15224

>  <r_epik_Charging_Adjusted_Penalty>  (60) 
1.15786

>  <i_epik_Tot_Q>  (60) 
1

>  <i_epik_Tot_abs_Q>  (60) 
1

>  <s_lp_Force_Field>  (60) 
OPLS3e

>  <r_lp_Energy>  (60) 
439.399

>  <b_lp_Chiralities_Consistent>  (60) 
1

>  <s_lp_Variant>  (60) 
14:0-3

>  <s_i_glide_gridfile>  (60) 
pfpi4k_grid

>  <i_i_glide_lignum>  (60) 
25

>  <i_i_glide_rotatable_bonds>  (60) 
8

>  <r_i_docking_score>  (60) 
-3.72607

>  <r_i_glide_ligand_efficiency>  (60) 
-0.133074

>  <r_i_glide_ligand_efficiency_sa>  (60) 
-0.404091

>  <r_i_glide_ligand_efficiency_ln>  (60) 
-0.860086

>  <r_i_glide_gscore>  (60) 
-3.72607

>  <r_i_glide_lipo>  (60) 
-0.484038

>  <r_i_glide_hbond>  (60) 
-0.453805

>  <r_i_glide_metal>  (60) 
-0

>  <r_i_glide_rewards>  (60) 
-0.767096

>  <r_i_glide_evdw>  (60) 
-22.1993

>  <r_i_glide_ecoul>  (60) 
-9.53303

>  <r_i_glide_erotb>  (60) 
0.518794

>  <r_i_glide_esite>  (60) 
0

>  <r_i_glide_emodel>  (60) 
-37.3949

>  <r_i_glide_energy>  (60) 
-31.7324

>  <r_i_glide_einternal>  (60) 
5.72002

>  <r_i_glide_intrahb_reward>  (60) 
-0

>  <i_i_glide_confnum>  (60) 
1

>  <i_i_glide_posenum>  (60) 
16

>  <r_i_glide_eff_state_penalty>  (60) 
0

>  <ligand_id>  (60) 
14

>  <original_smiles>  (60) 
CCNCCNC1Cc2ccc(O)c3c2C24CCCC(C(C=CC2O)O3)C14O

>  <smiles>  (60) 
[H]Oc1c([H])c([H])c2c3c1OC1([H])C([H])=C([H])C([H])(O[H])C34C([H])([H])C([H])([H])C([H])([H])C1([H])C4(O[H])C([H])([N+]([H])([H])C([H])([H])C([H])([H])N([H])C([H])([H])C([H])([H])[H])C2([H])[H]

$$$$
14:2:2
     RDKit          3D

 59 63  0  0  1  0  0  0  0  0999 V2000
    3.3655   -2.3375   -2.4425 C   0  0  0  0  0  0  0  0  0  0  0  0
    4.4738   -2.7533   -1.4692 C   0  0  0  0  0  0  0  0  0  0  0  0
    4.1907   -4.0832   -0.9357 N   0  0  0  0  0  0  0  0  0  0  0  0
    5.2839   -4.5534   -0.0899 C   0  0  0  0  0  0  0  0  0  0  0  0
    5.1476   -6.0657    0.1840 C   0  0  0  0  0  0  0  0  0  0  0  0
    4.0684   -6.3465    1.1502 N   0  0  0  0  0  0  0  0  0  0  0  0
    3.7578   -7.7854    1.3783 C   0  0  2  0  0  0  0  0  0  0  0  0
    2.1643   -8.0703    1.5823 C   0  0  0  0  0  0  0  0  0  0  0  0
    1.6194   -8.7380    2.8797 C   0  0  0  0  0  0  0  0  0  0  0  0
    0.3603   -8.7946    3.5167 C   0  0  0  0  0  0  0  0  0  0  0  0
    0.3061   -9.2380    4.8781 C   0  0  0  0  0  0  0  0  0  0  0  0
    1.4644   -9.5822    5.6449 C   0  0  0  0  0  0  0  0  0  0  0  0
    1.3213   -9.8521    6.9787 O   0  0  0  0  0  0  0  0  0  0  0  0
    2.7598   -9.5542    5.0591 C   0  0  0  0  0  0  0  0  0  0  0  0
    2.6521   -9.1675    3.6877 C   0  0  0  0  0  0  0  0  0  0  0  0
    3.9768   -9.0886    3.2646 C   0  0  1  0  0  0  0  0  0  0  0  0
    3.7809   -7.4736    4.0808 C   0  0  0  0  0  0  0  0  0  0  0  0
    4.9786   -6.6823    4.6499 C   0  0  0  0  0  0  0  0  0  0  0  0
    6.2172   -7.1184    3.9277 C   0  0  0  0  0  0  0  0  0  0  0  0
    5.8829   -8.5547    3.6064 C   0  0  1  0  0  0  0  0  0  0  0  0
    5.4837   -9.3551    5.1123 C   0  0  2  0  0  0  0  0  0  0  0  0
    5.9844  -10.7379    4.9762 C   0  0  0  0  0  0  0  0  0  0  0  0
    5.3642  -11.4330    4.0445 C   0  0  0  0  0  0  0  0  0  0  0  0
    4.2381  -10.7807    3.2617 C   0  0  1  0  0  0  0  0  0  0  0  0
    3.1245  -11.6705    3.2383 O   0  0  0  0  0  0  0  0  0  0  0  0
    4.0541   -9.4994    5.7399 O   0  0  0  0  0  0  0  0  0  0  0  0
    4.8628   -8.5950    2.2418 C   0  0  2  0  0  0  0  0  0  0  0  0
    5.5906   -9.3688    1.2840 O   0  0  0  0  0  0  0  0  0  0  0  0
    3.5586   -1.3475   -2.8539 H   0  0  0  0  0  0  0  0  0  0  0  0
    2.3954   -2.2973   -1.9484 H   0  0  0  0  0  0  0  0  0  0  0  0
    3.2866   -3.0294   -3.2812 H   0  0  0  0  0  0  0  0  0  0  0  0
    5.4270   -2.7528   -1.9988 H   0  0  0  0  0  0  0  0  0  0  0  0
    4.5572   -2.0274   -0.6584 H   0  0  0  0  0  0  0  0  0  0  0  0
    4.0113   -4.7262   -1.7063 H   0  0  0  0  0  0  0  0  0  0  0  0
    6.2295   -4.3898   -0.6160 H   0  0  0  0  0  0  0  0  0  0  0  0
    5.3400   -3.9677    0.8347 H   0  0  0  0  0  0  0  0  0  0  0  0
    4.9800   -6.5933   -0.7531 H   0  0  0  0  0  0  0  0  0  0  0  0
    6.0845   -6.4409    0.5859 H   0  0  0  0  0  0  0  0  0  0  0  0
    4.3180   -5.9422    2.0368 H   0  0  0  0  0  0  0  0  0  0  0  0
    3.8497   -8.1894    0.3723 H   0  0  0  0  0  0  0  0  0  0  0  0
    1.5900   -7.1611    1.4189 H   0  0  0  0  0  0  0  0  0  0  0  0
    1.8469   -8.7682    0.8145 H   0  0  0  0  0  0  0  0  0  0  0  0
   -0.5378   -8.4658    3.0123 H   0  0  0  0  0  0  0  0  0  0  0  0
   -0.6504   -9.2568    5.3685 H   0  0  0  0  0  0  0  0  0  0  0  0
    1.4173  -10.7958    7.2027 H   0  0  0  0  0  0  0  0  0  0  0  0
    3.3285   -6.7360    3.4317 H   0  0  0  0  0  0  0  0  0  0  0  0
    3.0554   -7.3019    4.8883 H   0  0  0  0  0  0  0  0  0  0  0  0
    4.8422   -5.6038    4.5884 H   0  0  0  0  0  0  0  0  0  0  0  0
    5.0799   -6.8928    5.7151 H   0  0  0  0  0  0  0  0  0  0  0  0
    6.3852   -6.5382    3.0217 H   0  0  0  0  0  0  0  0  0  0  0  0
    7.1072   -7.0262    4.5578 H   0  0  0  0  0  0  0  0  0  0  0  0
    6.8342   -8.9786    3.2898 H   0  0  0  0  0  0  0  0  0  0  0  0
    6.1014   -8.9239    5.8985 H   0  0  0  0  0  0  0  0  0  0  0  0
    6.7644  -11.1155    5.6215 H   0  0  0  0  0  0  0  0  0  0  0  0
    5.6231  -12.4589    3.8392 H   0  0  0  0  0  0  0  0  0  0  0  0
    4.5366  -11.0797    2.2717 H   0  0  0  0  0  0  0  0  0  0  0  0
    3.1861  -12.1856    2.4437 H   0  0  0  0  0  0  0  0  0  0  0  0
    5.0652  -10.1112    1.0054 H   0  0  0  0  0  0  0  0  0  0  0  0
    3.2537   -5.8839    0.7846 H   0  0  0  0  0  0  0  0  0  0  0  0
  1  2  1  0
  1 29  1  0
  1 30  1  0
  1 31  1  0
  2  3  1  0
  2 32  1  0
  2 33  1  0
  3  4  1  0
  3 34  1  0
  4  5  1  0
  4 35  1  0
  4 36  1  0
  5  6  1  0
  5 37  1  0
  5 38  1  0
  6  7  1  0
  6 39  1  0
  6 59  1  0
  7 27  1  0
  7  8  1  0
  7 40  1  6
  8  9  1  0
  8 41  1  0
  8 42  1  0
  9 15  2  0
  9 10  1  0
 10 11  2  0
 10 43  1  0
 11 12  1  0
 11 44  1  0
 12 13  1  0
 12 14  2  0
 13 45  1  0
 14 26  1  0
 14 15  1  0
 15 16  1  0
 16 24  1  0
 16 27  1  0
 16 17  1  1
 17 18  1  0
 17 46  1  0
 17 47  1  0
 18 19  1  0
 18 48  1  0
 18 49  1  0
 19 20  1  0
 19 50  1  0
 19 51  1  0
 20 21  1  0
 20 27  1  0
 20 52  1  6
 21 22  1  0
 21 26  1  0
 21 53  1  1
 22 23  2  0
 22 54  1  0
 23 24  1  0
 23 55  1  0
 24 25  1  0
 24 56  1  6
 25 57  1  0
 27 28  1  6
 28 58  1  0
M  CHG  1   6   1
M  END
>  <i_m_ct_stereo_status>  (61) 
1

>  <s_m_source_file>  (61) 
/var/tmp/pbs.5076255.sched01/tmplremgrqo/0ygzoxw5b.sdf

>  <i_m_source_file_index>  (61) 
25

>  <i_lp_mmshare_version>  (61) 
48012

>  <i_f3d_flags>  (61) 
0

>  <s_epik_input>  (61) 
W0NIM11bQ0gyXVtOSF1bQ0gyXVtDSDJdW05IXVtDQEhdKFtDSDJdMSlbQ0BAXTIoW09IXSlbQ0BASF0oW0NIMl1bQ0gyXVtDSDJdMylbQ0BIXShbQ0hdPVtDSF1bQ0BIXTRbT0hdKU9jNWMoW09IXSlbY0hdW2NIXWMxYzVDMjM0

>  <s_epik_cmdline>  (61) 
J2VwaWtfcHl0aG9uJywgJy1waHQnLCAnMi4wJywgJy1waCcsICc3LjAnLCAnLXRuJywgJzgnLCAnLW1hJywgJzIwMCcsICctaW1hZScsICc8aW5maWxlLm1hZT4nLCAnLW9tYWUnLCAnPG91dGZpbGUubWFlPic=

>  <r_epik_Ionization_Penalty>  (61) 
0.804865

>  <r_epik_Ionization_Penalty_Charging>  (61) 
0.0056171

>  <r_epik_Ionization_Penalty_Neutral>  (61) 
0.799248

>  <r_epik_State_Penalty>  (61) 
1.15224

>  <r_epik_Charging_Adjusted_Penalty>  (61) 
1.15786

>  <i_epik_Tot_Q>  (61) 
1

>  <i_epik_Tot_abs_Q>  (61) 
1

>  <s_lp_Force_Field>  (61) 
OPLS3e

>  <r_lp_Energy>  (61) 
439.399

>  <b_lp_Chiralities_Consistent>  (61) 
1

>  <s_lp_Variant>  (61) 
14:0-3

>  <s_i_glide_gridfile>  (61) 
pfpi4k_grid

>  <i_i_glide_lignum>  (61) 
25

>  <i_i_glide_rotatable_bonds>  (61) 
8

>  <r_i_docking_score>  (61) 
-3.49358

>  <r_i_glide_ligand_efficiency>  (61) 
-0.124771

>  <r_i_glide_ligand_efficiency_sa>  (61) 
-0.378877

>  <r_i_glide_ligand_efficiency_ln>  (61) 
-0.806421

>  <r_i_glide_gscore>  (61) 
-3.49358

>  <r_i_glide_lipo>  (61) 
-0.182864

>  <r_i_glide_hbond>  (61) 
-0.33636

>  <r_i_glide_metal>  (61) 
-0

>  <r_i_glide_rewards>  (61) 
-0.767096

>  <r_i_glide_evdw>  (61) 
-19.0385

>  <r_i_glide_ecoul>  (61) 
-11.8275

>  <r_i_glide_erotb>  (61) 
0.518794

>  <r_i_glide_esite>  (61) 
0

>  <r_i_glide_emodel>  (61) 
-35.9401

>  <r_i_glide_energy>  (61) 
-30.8661

>  <r_i_glide_einternal>  (61) 
5.56462

>  <r_i_glide_intrahb_reward>  (61) 
-0

>  <i_i_glide_confnum>  (61) 
1

>  <i_i_glide_posenum>  (61) 
24

>  <r_i_glide_eff_state_penalty>  (61) 
0

>  <ligand_id>  (61) 
14

>  <original_smiles>  (61) 
CCNCCNC1Cc2ccc(O)c3c2C24CCCC(C(C=CC2O)O3)C14O

>  <smiles>  (61) 
[H]Oc1c([H])c([H])c2c3c1OC1([H])C([H])=C([H])C([H])(O[H])C34C([H])([H])C([H])([H])C([H])([H])C1([H])C4(O[H])C([H])([N+]([H])([H])C([H])([H])C([H])([H])N([H])C([H])([H])C([H])([H])[H])C2([H])[H]

$$$$
15:0:0
     RDKit          3D

 70 77  0  0  1  0  0  0  0  0999 V2000
    1.6898   -7.9575    1.8425 C   0  0  0  0  0  0  0  0  0  0  0  0
    2.0008   -6.4990    1.4032 C   0  0  0  0  0  0  0  0  0  0  0  0
    1.0812   -6.1929    0.2073 C   0  0  0  0  0  0  0  0  0  0  0  0
    1.6044   -5.7005    2.5231 O   0  0  0  0  0  0  0  0  0  0  0  0
    2.6707   -5.6629    3.4798 C   0  0  2  0  0  0  0  0  0  0  0  0
    2.7318   -4.2898    4.2155 C   0  0  0  0  0  0  0  0  0  0  0  0
    4.1281   -3.6275    4.3515 C   0  0  0  0  0  0  0  0  0  0  0  0
    5.1434   -3.9355    3.2326 C   0  0  1  0  0  0  0  0  0  0  0  0
    5.2157   -5.4627    3.0929 C   0  0  0  0  0  0  0  0  0  0  0  0
    3.9123   -6.1056    2.6816 C   0  0  2  0  0  0  0  0  0  0  0  0
    3.5356   -6.1489    1.1982 C   0  0  1  0  0  0  0  0  0  0  0  0
    4.3084   -7.3061    0.5007 C   0  0  0  0  0  0  0  0  0  0  0  0
    3.8330   -4.8057    0.3871 C   0  0  2  0  0  0  0  0  0  0  0  0
    5.3026   -4.4948   -0.1423 C   0  0  1  0  0  0  0  0  0  0  0  0
    5.2463   -3.7565   -1.5267 C   0  0  1  0  0  0  0  0  0  0  0  0
    4.7908   -4.3468   -2.6917 O   0  0  0  0  0  0  0  0  0  0  0  0
    4.4462   -2.4941   -1.4785 C   0  0  2  0  0  0  0  0  0  0  0  0
    5.0156   -1.4675   -2.3595 C   0  0  1  0  0  0  0  0  0  0  0  0
    4.1062   -0.3187   -2.0732 C   0  0  0  0  0  0  0  0  0  0  0  0
    3.8535   -0.4411   -0.5605 C   0  0  0  0  0  0  0  0  0  0  0  0
    4.5891   -1.6880   -0.1689 C   0  0  2  0  0  0  0  0  0  0  0  0
    6.0582   -1.3285   -0.2647 C   0  0  1  0  0  0  0  0  0  0  0  0
    6.9719   -2.4436    0.1972 C   0  0  0  0  0  0  0  0  0  0  0  0
    6.2025   -3.6283    0.8506 C   0  0  2  0  0  0  0  0  0  0  0  0
    7.3134   -4.3749    1.2926 O   0  0  0  0  0  0  0  0  0  0  0  0
    5.3379   -2.9945    1.9728 C   0  0  1  0  0  0  0  0  0  0  0  0
    4.1259   -2.3417    1.2182 C   0  0  1  0  0  0  0  0  0  0  0  0
    3.3863   -1.2895    2.1072 C   0  0  0  0  0  0  0  0  0  0  0  0
    4.2525   -0.2519    2.5128 O   0  0  0  0  0  0  0  0  0  0  0  0
    3.1602   -3.5035    0.9216 C   0  0  1  0  0  0  0  0  0  0  0  0
    2.2028   -3.0829   -0.0302 O   0  0  0  0  0  0  0  0  0  0  0  0
    6.2171   -1.2498   -1.6764 O   0  0  0  0  0  0  0  0  0  0  0  0
    1.8086   -8.6650    1.0222 H   0  0  0  0  0  0  0  0  0  0  0  0
    0.6557   -8.0345    2.1764 H   0  0  0  0  0  0  0  0  0  0  0  0
    2.3003   -8.3147    2.6721 H   0  0  0  0  0  0  0  0  0  0  0  0
    1.4055   -6.6390   -0.7095 H   0  0  0  0  0  0  0  0  0  0  0  0
    1.0775   -5.1374   -0.0186 H   0  0  0  0  0  0  0  0  0  0  0  0
    0.0668   -6.5634    0.3852 H   0  0  0  0  0  0  0  0  0  0  0  0
    2.4705   -6.4320    4.2260 H   0  0  0  0  0  0  0  0  0  0  0  0
    2.0146   -3.5869    3.7895 H   0  0  0  0  0  0  0  0  0  0  0  0
    2.3636   -4.4480    5.2288 H   0  0  0  0  0  0  0  0  0  0  0  0
    4.0604   -2.5615    4.5446 H   0  0  0  0  0  0  0  0  0  0  0  0
    4.5694   -4.0172    5.2726 H   0  0  0  0  0  0  0  0  0  0  0  0
    6.0775   -3.7283    3.7361 H   0  0  0  0  0  0  0  0  0  0  0  0
    6.0195   -5.8607    2.4875 H   0  0  0  0  0  0  0  0  0  0  0  0
    5.4515   -5.8400    4.0881 H   0  0  0  0  0  0  0  0  0  0  0  0
    4.0747   -7.1457    2.9576 H   0  0  0  0  0  0  0  0  0  0  0  0
    5.3827   -7.2298    0.6525 H   0  0  0  0  0  0  0  0  0  0  0  0
    4.2042   -7.2782   -0.5813 H   0  0  0  0  0  0  0  0  0  0  0  0
    4.0312   -8.2931    0.8748 H   0  0  0  0  0  0  0  0  0  0  0  0
    3.3044   -5.0255   -0.5360 H   0  0  0  0  0  0  0  0  0  0  0  0
    5.8219   -5.4174   -0.3663 H   0  0  0  0  0  0  0  0  0  0  0  0
    6.2486   -3.5697   -1.8780 H   0  0  0  0  0  0  0  0  0  0  0  0
    4.1121   -4.9554   -2.4225 H   0  0  0  0  0  0  0  0  0  0  0  0
    3.4350   -2.6455   -1.8746 H   0  0  0  0  0  0  0  0  0  0  0  0
    5.0816   -1.7230   -3.4155 H   0  0  0  0  0  0  0  0  0  0  0  0
    4.6518    0.5439   -2.3325 H   0  0  0  0  0  0  0  0  0  0  0  0
    3.1981   -0.3493   -2.6745 H   0  0  0  0  0  0  0  0  0  0  0  0
    4.2116    0.3904    0.0662 H   0  0  0  0  0  0  0  0  0  0  0  0
    2.8055   -0.6625   -0.4102 H   0  0  0  0  0  0  0  0  0  0  0  0
    6.2575   -0.3906    0.2522 H   0  0  0  0  0  0  0  0  0  0  0  0
    7.6104   -2.7396   -0.6367 H   0  0  0  0  0  0  0  0  0  0  0  0
    7.6510   -1.9918    0.9044 H   0  0  0  0  0  0  0  0  0  0  0  0
    7.7372   -4.7138    0.5241 H   0  0  0  0  0  0  0  0  0  0  0  0
    5.9116   -2.1521    2.3674 H   0  0  0  0  0  0  0  0  0  0  0  0
    2.5142   -0.8628    1.6075 H   0  0  0  0  0  0  0  0  0  0  0  0
    2.9556   -1.7296    2.9926 H   0  0  0  0  0  0  0  0  0  0  0  0
    4.3491    0.3447    1.7857 H   0  0  0  0  0  0  0  0  0  0  0  0
    2.5855   -3.6991    1.8076 H   0  0  0  0  0  0  0  0  0  0  0  0
    2.0148   -2.1638    0.0692 H   0  0  0  0  0  0  0  0  0  0  0  0
  1  2  1  0
  1 33  1  0
  1 34  1  0
  1 35  1  0
  2 11  1  0
  2  3  1  0
  2  4  1  0
  3 36  1  0
  3 37  1  0
  3 38  1  0
  4  5  1  0
  5 10  1  0
  5  6  1  0
  5 39  1  1
  6  7  1  0
  6 40  1  0
  6 41  1  0
  7  8  1  0
  7 42  1  0
  7 43  1  0
  8 26  1  0
  8  9  1  0
  8 44  1  1
  9 10  1  0
  9 45  1  0
  9 46  1  0
 10 11  1  0
 10 47  1  1
 11 12  1  6
 11 13  1  0
 12 48  1  0
 12 49  1  0
 12 50  1  0
 13 30  1  0
 13 14  1  0
 13 51  1  6
 14 24  1  0
 14 15  1  0
 14 52  1  6
 15 16  1  0
 15 17  1  0
 15 53  1  6
 16 54  1  0
 17 21  1  0
 17 18  1  0
 17 55  1  6
 18 32  1  0
 18 19  1  0
 18 56  1  6
 19 20  1  0
 19 57  1  0
 19 58  1  0
 21 20  1  6
 20 59  1  0
 20 60  1  0
 21 27  1  0
 21 22  1  0
 22 23  1  0
 22 32  1  0
 22 61  1  1
 23 24  1  0
 23 62  1  0
 23 63  1  0
 24 25  1  1
 24 26  1  0
 25 64  1  0
 26 27  1  0
 26 65  1  1
 27 28  1  1
 27 30  1  0
 28 29  1  0
 28 66  1  0
 28 67  1  0
 29 68  1  0
 30 31  1  0
 30 69  1  1
 31 70  1  0
M  END
>  <i_m_ct_stereo_status>  (62) 
1

>  <s_m_source_file>  (62) 
/var/tmp/pbs.5076255.sched01/tmplremgrqo/0ygzoxw5b.sdf

>  <i_m_source_file_index>  (62) 
26

>  <i_lp_mmshare_version>  (62) 
48012

>  <i_f3d_flags>  (62) 
0

>  <s_epik_input>  (62) 
W09IXVtDSDJdW0NAXTEoW0NASF0yW09IXSlbQ0BIXTNbQ0BIXShbQ0gyXTQpW0NIMl1bQ0gyXVtDQEBIXShPQzUoW0NIM10pW0NIM10pW0NASF00W0NAXTUoW0NIM10pW0NAQEhdMltDQEBIXShbQ0BIXTZbT0hdKVtDQEBdMyhbT0hdKVtDSDJdW0NASF03T1tDQEBIXShbQ0BASF02W0NAQF0xNzgpW0NIMl1bQ0gyXTg=

>  <s_epik_cmdline>  (62) 
J2VwaWtfcHl0aG9uJywgJy1waHQnLCAnMi4wJywgJy1waCcsICc3LjAnLCAnLXRuJywgJzgnLCAnLW1hJywgJzIwMCcsICctaW1hZScsICc8aW5maWxlLm1hZT4nLCAnLW9tYWUnLCAnPG91dGZpbGUubWFlPic=

>  <r_lp_tautomer_probability>  (62) 
1

>  <r_epik_Ionization_Penalty>  (62) 
1.08873e-06

>  <r_epik_Ionization_Penalty_Charging>  (62) 
0

>  <r_epik_Ionization_Penalty_Neutral>  (62) 
1.08873e-06

>  <r_epik_State_Penalty>  (62) 
-0

>  <r_epik_Charging_Adjusted_Penalty>  (62) 
0

>  <i_epik_Tot_Q>  (62) 
0

>  <i_epik_Tot_abs_Q>  (62) 
0

>  <s_lp_Force_Field>  (62) 
OPLS3e

>  <r_lp_Energy>  (62) 
119.414

>  <b_lp_Chiralities_Consistent>  (62) 
1

>  <s_lp_Variant>  (62) 
15:0-1

>  <s_i_glide_gridfile>  (62) 
pfpi4k_grid

>  <i_i_glide_lignum>  (62) 
26

>  <i_i_glide_rotatable_bonds>  (62) 
5

>  <r_i_docking_score>  (62) 
-2.57688

>  <r_i_glide_ligand_efficiency>  (62) 
-0.0805275

>  <r_i_glide_ligand_efficiency_sa>  (62) 
-0.255659

>  <r_i_glide_ligand_efficiency_ln>  (62) 
-0.577034

>  <r_i_glide_gscore>  (62) 
-2.57688

>  <r_i_glide_lipo>  (62) 
-0.56716

>  <r_i_glide_hbond>  (62) 
-0.521331

>  <r_i_glide_metal>  (62) 
-0

>  <r_i_glide_rewards>  (62) 
-0.364252

>  <r_i_glide_evdw>  (62) 
-0.749797

>  <r_i_glide_ecoul>  (62) 
-9.79221

>  <r_i_glide_erotb>  (62) 
0.100374

>  <r_i_glide_esite>  (62) 
0

>  <r_i_glide_emodel>  (62) 
-7.59018

>  <r_i_glide_energy>  (62) 
-10.542

>  <r_i_glide_einternal>  (62) 
1.71695

>  <r_i_glide_intrahb_reward>  (62) 
-0

>  <i_i_glide_confnum>  (62) 
1

>  <i_i_glide_posenum>  (62) 
4

>  <r_i_glide_eff_state_penalty>  (62) 
0

>  <ligand_id>  (62) 
15

>  <original_smiles>  (62) 
CC1(C)OC2CCC3CC2C1(C)C1C2C(O)C4C5CCC46C(CC2(O)C3C6(CO)C1O)O5

>  <smiles>  (62) 
[H]OC([H])([H])C12C([H])(O[H])C3([H])C4([H])C([H])(O[H])C5([H])C6([H])OC([H])(C([H])([H])C4(O[H])C1([H])C1([H])C([H])([H])C([H])([H])C4([H])OC(C([H])([H])[H])(C([H])([H])[H])C3(C([H])([H])[H])C4([H])C1([H])[H])C52C([H])([H])C6([H])[H]

$$$$
15:0:1
     RDKit          3D

 70 77  0  0  1  0  0  0  0  0999 V2000
    1.6856   -7.9648    1.8479 C   0  0  0  0  0  0  0  0  0  0  0  0
    1.9963   -6.5083    1.4103 C   0  0  0  0  0  0  0  0  0  0  0  0
    1.0658   -6.1774    0.2202 C   0  0  0  0  0  0  0  0  0  0  0  0
    1.5967   -5.7078    2.5156 O   0  0  0  0  0  0  0  0  0  0  0  0
    2.6502   -5.6538    3.4903 C   0  0  2  0  0  0  0  0  0  0  0  0
    2.7012   -4.2733    4.2218 C   0  0  0  0  0  0  0  0  0  0  0  0
    4.0950   -3.6150    4.3899 C   0  0  0  0  0  0  0  0  0  0  0  0
    5.1060   -3.8960    3.2541 C   0  0  1  0  0  0  0  0  0  0  0  0
    5.1918   -5.4288    3.1069 C   0  0  0  0  0  0  0  0  0  0  0  0
    3.8945   -6.0938    2.6947 C   0  0  2  0  0  0  0  0  0  0  0  0
    3.5252   -6.1454    1.2015 C   0  0  1  0  0  0  0  0  0  0  0  0
    4.3136   -7.2995    0.5179 C   0  0  0  0  0  0  0  0  0  0  0  0
    3.8217   -4.7987    0.3876 C   0  0  2  0  0  0  0  0  0  0  0  0
    5.2991   -4.4905   -0.1445 C   0  0  1  0  0  0  0  0  0  0  0  0
    5.2571   -3.7714   -1.5442 C   0  0  1  0  0  0  0  0  0  0  0  0
    4.7963   -4.3955   -2.7003 O   0  0  0  0  0  0  0  0  0  0  0  0
    4.4573   -2.5054   -1.4851 C   0  0  2  0  0  0  0  0  0  0  0  0
    5.0113   -1.4602   -2.3589 C   0  0  1  0  0  0  0  0  0  0  0  0
    4.1158   -0.2842   -2.0930 C   0  0  0  0  0  0  0  0  0  0  0  0
    3.8600   -0.4162   -0.5775 C   0  0  0  0  0  0  0  0  0  0  0  0
    4.5741   -1.6791   -0.1780 C   0  0  2  0  0  0  0  0  0  0  0  0
    6.0516   -1.3234   -0.2572 C   0  0  1  0  0  0  0  0  0  0  0  0
    6.9688   -2.4274    0.2339 C   0  0  0  0  0  0  0  0  0  0  0  0
    6.1830   -3.6126    0.8737 C   0  0  2  0  0  0  0  0  0  0  0  0
    7.2999   -4.3520    1.3178 O   0  0  0  0  0  0  0  0  0  0  0  0
    5.2848   -2.9649    1.9822 C   0  0  1  0  0  0  0  0  0  0  0  0
    4.0743   -2.3155    1.2166 C   0  0  1  0  0  0  0  0  0  0  0  0
    3.3561   -1.2351    2.1168 C   0  0  0  0  0  0  0  0  0  0  0  0
    1.9567   -1.0383    1.8433 O   0  0  0  0  0  0  0  0  0  0  0  0
    3.1291   -3.4860    0.9044 C   0  0  1  0  0  0  0  0  0  0  0  0
    2.1687   -3.0568   -0.0405 O   0  0  0  0  0  0  0  0  0  0  0  0
    6.2065   -1.2397   -1.6768 O   0  0  0  0  0  0  0  0  0  0  0  0
    1.8166   -8.6709    1.0315 H   0  0  0  0  0  0  0  0  0  0  0  0
    0.6497   -8.0441    2.1845 H   0  0  0  0  0  0  0  0  0  0  0  0
    2.2972   -8.3077    2.6821 H   0  0  0  0  0  0  0  0  0  0  0  0
    1.3362   -6.6456   -0.7347 H   0  0  0  0  0  0  0  0  0  0  0  0
    1.0408   -5.1150    0.0412 H   0  0  0  0  0  0  0  0  0  0  0  0
    0.0523   -6.5563    0.3832 H   0  0  0  0  0  0  0  0  0  0  0  0
    2.4480   -6.4206    4.2432 H   0  0  0  0  0  0  0  0  0  0  0  0
    2.0055   -3.5604    3.7760 H   0  0  0  0  0  0  0  0  0  0  0  0
    2.2987   -4.4263    5.2242 H   0  0  0  0  0  0  0  0  0  0  0  0
    4.0224   -2.5553    4.6240 H   0  0  0  0  0  0  0  0  0  0  0  0
    4.5306   -4.0860    5.2834 H   0  0  0  0  0  0  0  0  0  0  0  0
    6.0477   -3.6866    3.7563 H   0  0  0  0  0  0  0  0  0  0  0  0
    6.0011   -5.8256    2.5061 H   0  0  0  0  0  0  0  0  0  0  0  0
    5.4302   -5.8138    4.0990 H   0  0  0  0  0  0  0  0  0  0  0  0
    4.0619   -7.1332    2.9844 H   0  0  0  0  0  0  0  0  0  0  0  0
    5.3907   -7.2158    0.6925 H   0  0  0  0  0  0  0  0  0  0  0  0
    4.2057   -7.2854   -0.5695 H   0  0  0  0  0  0  0  0  0  0  0  0
    4.0406   -8.2921    0.8910 H   0  0  0  0  0  0  0  0  0  0  0  0
    3.3279   -5.0691   -0.5403 H   0  0  0  0  0  0  0  0  0  0  0  0
    5.8321   -5.4154   -0.3454 H   0  0  0  0  0  0  0  0  0  0  0  0
    6.2640   -3.5647   -1.8558 H   0  0  0  0  0  0  0  0  0  0  0  0
    4.0870   -4.9526   -2.4179 H   0  0  0  0  0  0  0  0  0  0  0  0
    3.4642   -2.6356   -1.9110 H   0  0  0  0  0  0  0  0  0  0  0  0
    5.1103   -1.7400   -3.4207 H   0  0  0  0  0  0  0  0  0  0  0  0
    4.6705    0.5645   -2.4631 H   0  0  0  0  0  0  0  0  0  0  0  0
    3.1922   -0.4112   -2.6494 H   0  0  0  0  0  0  0  0  0  0  0  0
    4.2088    0.4078    0.0646 H   0  0  0  0  0  0  0  0  0  0  0  0
    2.8314   -0.6822   -0.4327 H   0  0  0  0  0  0  0  0  0  0  0  0
    6.2441   -0.3791    0.2590 H   0  0  0  0  0  0  0  0  0  0  0  0
    7.6106   -2.7320   -0.5951 H   0  0  0  0  0  0  0  0  0  0  0  0
    7.6389   -1.9620    0.9490 H   0  0  0  0  0  0  0  0  0  0  0  0
    7.7178   -4.6768    0.5304 H   0  0  0  0  0  0  0  0  0  0  0  0
    5.8212   -2.0973    2.3722 H   0  0  0  0  0  0  0  0  0  0  0  0
    3.3506   -1.5308    3.1618 H   0  0  0  0  0  0  0  0  0  0  0  0
    3.9277   -0.2991    2.0552 H   0  0  0  0  0  0  0  0  0  0  0  0
    1.7636   -0.7004    0.9689 H   0  0  0  0  0  0  0  0  0  0  0  0
    2.5197   -3.6964    1.7593 H   0  0  0  0  0  0  0  0  0  0  0  0
    2.0742   -2.0963   -0.0437 H   0  0  0  0  0  0  0  0  0  0  0  0
  1  2  1  0
  1 33  1  0
  1 34  1  0
  1 35  1  0
  2 11  1  0
  2  3  1  0
  2  4  1  0
  3 36  1  0
  3 37  1  0
  3 38  1  0
  4  5  1  0
  5 10  1  0
  5  6  1  0
  5 39  1  1
  6  7  1  0
  6 40  1  0
  6 41  1  0
  7  8  1  0
  7 42  1  0
  7 43  1  0
  8 26  1  0
  8  9  1  0
  8 44  1  1
  9 10  1  0
  9 45  1  0
  9 46  1  0
 10 11  1  0
 10 47  1  1
 11 12  1  6
 11 13  1  0
 12 48  1  0
 12 49  1  0
 12 50  1  0
 13 30  1  0
 13 14  1  0
 13 51  1  6
 14 24  1  0
 14 15  1  0
 14 52  1  6
 15 16  1  0
 15 17  1  0
 15 53  1  6
 16 54  1  0
 17 21  1  0
 17 18  1  0
 17 55  1  6
 18 32  1  0
 18 19  1  0
 18 56  1  6
 19 20  1  0
 19 57  1  0
 19 58  1  0
 21 20  1  6
 20 59  1  0
 20 60  1  0
 21 27  1  0
 21 22  1  0
 22 23  1  0
 22 32  1  0
 22 61  1  1
 23 24  1  0
 23 62  1  0
 23 63  1  0
 24 25  1  1
 24 26  1  0
 25 64  1  0
 26 27  1  0
 26 65  1  1
 27 28  1  1
 27 30  1  0
 28 29  1  0
 28 66  1  0
 28 67  1  0
 29 68  1  0
 30 31  1  0
 30 69  1  1
 31 70  1  0
M  END
>  <i_m_ct_stereo_status>  (63) 
1

>  <s_m_source_file>  (63) 
/var/tmp/pbs.5076255.sched01/tmplremgrqo/0ygzoxw5b.sdf

>  <i_m_source_file_index>  (63) 
26

>  <i_lp_mmshare_version>  (63) 
48012

>  <i_f3d_flags>  (63) 
0

>  <s_epik_input>  (63) 
W09IXVtDSDJdW0NAXTEoW0NASF0yW09IXSlbQ0BIXTNbQ0BIXShbQ0gyXTQpW0NIMl1bQ0gyXVtDQEBIXShPQzUoW0NIM10pW0NIM10pW0NASF00W0NAXTUoW0NIM10pW0NAQEhdMltDQEBIXShbQ0BIXTZbT0hdKVtDQEBdMyhbT0hdKVtDSDJdW0NASF03T1tDQEBIXShbQ0BASF02W0NAQF0xNzgpW0NIMl1bQ0gyXTg=

>  <s_epik_cmdline>  (63) 
J2VwaWtfcHl0aG9uJywgJy1waHQnLCAnMi4wJywgJy1waCcsICc3LjAnLCAnLXRuJywgJzgnLCAnLW1hJywgJzIwMCcsICctaW1hZScsICc8aW5maWxlLm1hZT4nLCAnLW9tYWUnLCAnPG91dGZpbGUubWFlPic=

>  <r_lp_tautomer_probability>  (63) 
1

>  <r_epik_Ionization_Penalty>  (63) 
1.08873e-06

>  <r_epik_Ionization_Penalty_Charging>  (63) 
0

>  <r_epik_Ionization_Penalty_Neutral>  (63) 
1.08873e-06

>  <r_epik_State_Penalty>  (63) 
-0

>  <r_epik_Charging_Adjusted_Penalty>  (63) 
0

>  <i_epik_Tot_Q>  (63) 
0

>  <i_epik_Tot_abs_Q>  (63) 
0

>  <s_lp_Force_Field>  (63) 
OPLS3e

>  <r_lp_Energy>  (63) 
119.414

>  <b_lp_Chiralities_Consistent>  (63) 
1

>  <s_lp_Variant>  (63) 
15:0-1

>  <s_i_glide_gridfile>  (63) 
pfpi4k_grid

>  <i_i_glide_lignum>  (63) 
26

>  <i_i_glide_rotatable_bonds>  (63) 
5

>  <r_i_docking_score>  (63) 
-2.48641

>  <r_i_glide_ligand_efficiency>  (63) 
-0.0777003

>  <r_i_glide_ligand_efficiency_sa>  (63) 
-0.246683

>  <r_i_glide_ligand_efficiency_ln>  (63) 
-0.556775

>  <r_i_glide_gscore>  (63) 
-2.48641

>  <r_i_glide_lipo>  (63) 
-0.574747

>  <r_i_glide_hbond>  (63) 
-0.380226

>  <r_i_glide_metal>  (63) 
-0

>  <r_i_glide_rewards>  (63) 
-0.364252

>  <r_i_glide_evdw>  (63) 
3.38813

>  <r_i_glide_ecoul>  (63) 
-10.4865

>  <r_i_glide_erotb>  (63) 
0.100374

>  <r_i_glide_esite>  (63) 
0

>  <r_i_glide_emodel>  (63) 
-2.09855

>  <r_i_glide_energy>  (63) 
-7.09839

>  <r_i_glide_einternal>  (63) 
6.47786

>  <r_i_glide_intrahb_reward>  (63) 
-0

>  <i_i_glide_confnum>  (63) 
5

>  <i_i_glide_posenum>  (63) 
3

>  <r_i_glide_eff_state_penalty>  (63) 
0

>  <ligand_id>  (63) 
15

>  <original_smiles>  (63) 
CC1(C)OC2CCC3CC2C1(C)C1C2C(O)C4C5CCC46C(CC2(O)C3C6(CO)C1O)O5

>  <smiles>  (63) 
[H]OC([H])([H])C12C([H])(O[H])C3([H])C4([H])C([H])(O[H])C5([H])C6([H])OC([H])(C([H])([H])C4(O[H])C1([H])C1([H])C([H])([H])C([H])([H])C4([H])OC(C([H])([H])[H])(C([H])([H])[H])C3(C([H])([H])[H])C4([H])C1([H])[H])C52C([H])([H])C6([H])[H]

$$$$
15:0:2
     RDKit          3D

 70 77  0  0  1  0  0  0  0  0999 V2000
    1.7080   -7.9427    1.8606 C   0  0  0  0  0  0  0  0  0  0  0  0
    2.0184   -6.4852    1.4094 C   0  0  0  0  0  0  0  0  0  0  0  0
    1.0970   -6.1768    0.2118 C   0  0  0  0  0  0  0  0  0  0  0  0
    1.6320   -5.6899    2.5365 O   0  0  0  0  0  0  0  0  0  0  0  0
    2.7002   -5.6407    3.4929 C   0  0  2  0  0  0  0  0  0  0  0  0
    2.7710   -4.2614    4.2237 C   0  0  0  0  0  0  0  0  0  0  0  0
    4.1765   -3.6222    4.3790 C   0  0  0  0  0  0  0  0  0  0  0  0
    5.1695   -3.9078    3.2273 C   0  0  1  0  0  0  0  0  0  0  0  0
    5.2422   -5.4429    3.0850 C   0  0  0  0  0  0  0  0  0  0  0  0
    3.9353   -6.0901    2.6880 C   0  0  2  0  0  0  0  0  0  0  0  0
    3.5537   -6.1428    1.2031 C   0  0  1  0  0  0  0  0  0  0  0  0
    4.3228   -7.3001    0.5004 C   0  0  0  0  0  0  0  0  0  0  0  0
    3.8497   -4.8072    0.3846 C   0  0  2  0  0  0  0  0  0  0  0  0
    5.3131   -4.4870   -0.1645 C   0  0  1  0  0  0  0  0  0  0  0  0
    5.2478   -3.7508   -1.5498 C   0  0  1  0  0  0  0  0  0  0  0  0
    4.7756   -4.3538   -2.6941 O   0  0  0  0  0  0  0  0  0  0  0  0
    4.4471   -2.4944   -1.4939 C   0  0  2  0  0  0  0  0  0  0  0  0
    5.0065   -1.4686   -2.3797 C   0  0  1  0  0  0  0  0  0  0  0  0
    4.1065   -0.2850   -2.1119 C   0  0  0  0  0  0  0  0  0  0  0  0
    3.8287   -0.4401   -0.5923 C   0  0  0  0  0  0  0  0  0  0  0  0
    4.5728   -1.6869   -0.1926 C   0  0  2  0  0  0  0  0  0  0  0  0
    6.0587   -1.3222   -0.2821 C   0  0  1  0  0  0  0  0  0  0  0  0
    6.9785   -2.4253    0.1868 C   0  0  0  0  0  0  0  0  0  0  0  0
    6.2032   -3.6050    0.8264 C   0  0  2  0  0  0  0  0  0  0  0  0
    7.3280   -4.3395    1.2568 O   0  0  0  0  0  0  0  0  0  0  0  0
    5.3329   -2.9675    1.9534 C   0  0  1  0  0  0  0  0  0  0  0  0
    4.1070   -2.3250    1.1958 C   0  0  1  0  0  0  0  0  0  0  0  0
    3.4146   -1.2284    2.0934 C   0  0  0  0  0  0  0  0  0  0  0  0
    2.0584   -0.8904    1.7683 O   0  0  0  0  0  0  0  0  0  0  0  0
    3.1589   -3.5093    0.9006 C   0  0  1  0  0  0  0  0  0  0  0  0
    2.1861   -3.1331   -0.0622 O   0  0  0  0  0  0  0  0  0  0  0  0
    6.2324   -1.2605   -1.7053 O   0  0  0  0  0  0  0  0  0  0  0  0
    1.8225   -8.6557    1.0435 H   0  0  0  0  0  0  0  0  0  0  0  0
    0.6758   -8.0210    2.2057 H   0  0  0  0  0  0  0  0  0  0  0  0
    2.3244   -8.2976    2.6892 H   0  0  0  0  0  0  0  0  0  0  0  0
    1.4228   -6.6636   -0.6920 H   0  0  0  0  0  0  0  0  0  0  0  0
    1.0328   -5.1085    0.0555 H   0  0  0  0  0  0  0  0  0  0  0  0
    0.0858   -6.5431    0.3967 H   0  0  0  0  0  0  0  0  0  0  0  0
    2.5039   -6.4083    4.2423 H   0  0  0  0  0  0  0  0  0  0  0  0
    2.0709   -3.5472    3.7895 H   0  0  0  0  0  0  0  0  0  0  0  0
    2.3874   -4.4179    5.2306 H   0  0  0  0  0  0  0  0  0  0  0  0
    4.1289   -2.5660    4.6386 H   0  0  0  0  0  0  0  0  0  0  0  0
    4.6192   -4.0786    5.2730 H   0  0  0  0  0  0  0  0  0  0  0  0
    6.1139   -3.7025    3.7182 H   0  0  0  0  0  0  0  0  0  0  0  0
    6.0403   -5.8588    2.4809 H   0  0  0  0  0  0  0  0  0  0  0  0
    5.4789   -5.8188    4.0815 H   0  0  0  0  0  0  0  0  0  0  0  0
    4.0999   -7.1301    2.9688 H   0  0  0  0  0  0  0  0  0  0  0  0
    5.3986   -7.2206    0.6511 H   0  0  0  0  0  0  0  0  0  0  0  0
    4.2044   -7.2790   -0.5810 H   0  0  0  0  0  0  0  0  0  0  0  0
    4.0489   -8.2861    0.8812 H   0  0  0  0  0  0  0  0  0  0  0  0
    3.3381   -5.0596   -0.5413 H   0  0  0  0  0  0  0  0  0  0  0  0
    5.8421   -5.4091   -0.3802 H   0  0  0  0  0  0  0  0  0  0  0  0
    6.2561   -3.5715   -1.8966 H   0  0  0  0  0  0  0  0  0  0  0  0
    4.0909   -4.9685   -2.4254 H   0  0  0  0  0  0  0  0  0  0  0  0
    3.4603   -2.6255   -1.9078 H   0  0  0  0  0  0  0  0  0  0  0  0
    5.0765   -1.7241   -3.4414 H   0  0  0  0  0  0  0  0  0  0  0  0
    4.6399    0.5571   -2.4905 H   0  0  0  0  0  0  0  0  0  0  0  0
    3.2075   -0.3514   -2.6753 H   0  0  0  0  0  0  0  0  0  0  0  0
    4.2093    0.3864    0.0483 H   0  0  0  0  0  0  0  0  0  0  0  0
    2.7832   -0.6679   -0.4692 H   0  0  0  0  0  0  0  0  0  0  0  0
    6.2706   -0.3827    0.2187 H   0  0  0  0  0  0  0  0  0  0  0  0
    7.6194   -2.7444   -0.6433 H   0  0  0  0  0  0  0  0  0  0  0  0
    7.6637   -1.9834    0.8992 H   0  0  0  0  0  0  0  0  0  0  0  0
    6.9979   -5.0996    1.7033 H   0  0  0  0  0  0  0  0  0  0  0  0
    5.8828   -2.1031    2.3414 H   0  0  0  0  0  0  0  0  0  0  0  0
    3.2658   -1.5761    3.1117 H   0  0  0  0  0  0  0  0  0  0  0  0
    4.0583   -0.3380    2.1294 H   0  0  0  0  0  0  0  0  0  0  0  0
    1.9378   -0.5997    0.8696 H   0  0  0  0  0  0  0  0  0  0  0  0
    2.5742   -3.6877    1.7831 H   0  0  0  0  0  0  0  0  0  0  0  0
    1.9882   -2.2267    0.0274 H   0  0  0  0  0  0  0  0  0  0  0  0
  1  2  1  0
  1 33  1  0
  1 34  1  0
  1 35  1  0
  2 11  1  0
  2  3  1  0
  2  4  1  0
  3 36  1  0
  3 37  1  0
  3 38  1  0
  4  5  1  0
  5 10  1  0
  5  6  1  0
  5 39  1  1
  6  7  1  0
  6 40  1  0
  6 41  1  0
  7  8  1  0
  7 42  1  0
  7 43  1  0
  8 26  1  0
  8  9  1  0
  8 44  1  1
  9 10  1  0
  9 45  1  0
  9 46  1  0
 10 11  1  0
 10 47  1  1
 11 12  1  6
 11 13  1  0
 12 48  1  0
 12 49  1  0
 12 50  1  0
 13 30  1  0
 13 14  1  0
 13 51  1  6
 14 24  1  0
 14 15  1  0
 14 52  1  6
 15 16  1  0
 15 17  1  0
 15 53  1  6
 16 54  1  0
 17 21  1  0
 17 18  1  0
 17 55  1  6
 18 32  1  0
 18 19  1  0
 18 56  1  6
 19 20  1  0
 19 57  1  0
 19 58  1  0
 21 20  1  6
 20 59  1  0
 20 60  1  0
 21 27  1  0
 21 22  1  0
 22 23  1  0
 22 32  1  0
 22 61  1  1
 23 24  1  0
 23 62  1  0
 23 63  1  0
 24 25  1  1
 24 26  1  0
 25 64  1  0
 26 27  1  0
 26 65  1  1
 27 28  1  1
 27 30  1  0
 28 29  1  0
 28 66  1  0
 28 67  1  0
 29 68  1  0
 30 31  1  0
 30 69  1  1
 31 70  1  0
M  END
>  <i_m_ct_stereo_status>  (64) 
1

>  <s_m_source_file>  (64) 
/var/tmp/pbs.5076255.sched01/tmplremgrqo/0ygzoxw5b.sdf

>  <i_m_source_file_index>  (64) 
26

>  <i_lp_mmshare_version>  (64) 
48012

>  <i_f3d_flags>  (64) 
0

>  <s_epik_input>  (64) 
W09IXVtDSDJdW0NAXTEoW0NASF0yW09IXSlbQ0BIXTNbQ0BIXShbQ0gyXTQpW0NIMl1bQ0gyXVtDQEBIXShPQzUoW0NIM10pW0NIM10pW0NASF00W0NAXTUoW0NIM10pW0NAQEhdMltDQEBIXShbQ0BIXTZbT0hdKVtDQEBdMyhbT0hdKVtDSDJdW0NASF03T1tDQEBIXShbQ0BASF02W0NAQF0xNzgpW0NIMl1bQ0gyXTg=

>  <s_epik_cmdline>  (64) 
J2VwaWtfcHl0aG9uJywgJy1waHQnLCAnMi4wJywgJy1waCcsICc3LjAnLCAnLXRuJywgJzgnLCAnLW1hJywgJzIwMCcsICctaW1hZScsICc8aW5maWxlLm1hZT4nLCAnLW9tYWUnLCAnPG91dGZpbGUubWFlPic=

>  <r_lp_tautomer_probability>  (64) 
1

>  <r_epik_Ionization_Penalty>  (64) 
1.08873e-06

>  <r_epik_Ionization_Penalty_Charging>  (64) 
0

>  <r_epik_Ionization_Penalty_Neutral>  (64) 
1.08873e-06

>  <r_epik_State_Penalty>  (64) 
-0

>  <r_epik_Charging_Adjusted_Penalty>  (64) 
0

>  <i_epik_Tot_Q>  (64) 
0

>  <i_epik_Tot_abs_Q>  (64) 
0

>  <s_lp_Force_Field>  (64) 
OPLS3e

>  <r_lp_Energy>  (64) 
119.414

>  <b_lp_Chiralities_Consistent>  (64) 
1

>  <s_lp_Variant>  (64) 
15:0-1

>  <s_i_glide_gridfile>  (64) 
pfpi4k_grid

>  <i_i_glide_lignum>  (64) 
26

>  <i_i_glide_rotatable_bonds>  (64) 
5

>  <r_i_docking_score>  (64) 
-2.15575

>  <r_i_glide_ligand_efficiency>  (64) 
-0.0673671

>  <r_i_glide_ligand_efficiency_sa>  (64) 
-0.213877

>  <r_i_glide_ligand_efficiency_ln>  (64) 
-0.482731

>  <r_i_glide_gscore>  (64) 
-2.15575

>  <r_i_glide_lipo>  (64) 
-0.575541

>  <r_i_glide_hbond>  (64) 
-0.383976

>  <r_i_glide_metal>  (64) 
-0

>  <r_i_glide_rewards>  (64) 
-0.364252

>  <r_i_glide_evdw>  (64) 
3.42715

>  <r_i_glide_ecoul>  (64) 
-10.6045

>  <r_i_glide_erotb>  (64) 
0.100374

>  <r_i_glide_esite>  (64) 
0

>  <r_i_glide_emodel>  (64) 
-1.22475

>  <r_i_glide_energy>  (64) 
-7.17732

>  <r_i_glide_einternal>  (64) 
5.61878

>  <r_i_glide_intrahb_reward>  (64) 
-0

>  <i_i_glide_confnum>  (64) 
2

>  <i_i_glide_posenum>  (64) 
2

>  <r_i_glide_eff_state_penalty>  (64) 
0

>  <ligand_id>  (64) 
15

>  <original_smiles>  (64) 
CC1(C)OC2CCC3CC2C1(C)C1C2C(O)C4C5CCC46C(CC2(O)C3C6(CO)C1O)O5

>  <smiles>  (64) 
[H]OC([H])([H])C12C([H])(O[H])C3([H])C4([H])C([H])(O[H])C5([H])C6([H])OC([H])(C([H])([H])C4(O[H])C1([H])C1([H])C([H])([H])C([H])([H])C4([H])OC(C([H])([H])[H])(C([H])([H])[H])C3(C([H])([H])[H])C4([H])C1([H])[H])C52C([H])([H])C6([H])[H]

$$$$
17:1:0
     RDKit          3D

 69 74  0  0  1  0  0  0  0  0999 V2000
    5.7351   -2.9750    6.6775 C   0  0  0  0  0  0  0  0  0  0  0  0
    5.3476   -4.2058    5.9598 N   0  0  0  0  0  0  0  0  0  0  0  0
    4.3923   -4.0589    4.8384 C   0  0  2  0  0  0  0  0  0  0  0  0
    2.9932   -3.5231    5.2096 C   0  0  1  0  0  0  0  0  0  0  0  0
    2.6474   -2.2289    4.4322 C   0  0  0  0  0  0  0  0  0  0  0  0
    2.2998   -2.5175    2.9859 C   0  0  0  0  0  0  0  0  0  0  0  0
    3.0771   -2.3673    1.8983 C   0  0  0  0  0  0  0  0  0  0  0  0
    3.1740   -2.5851    0.4436 C   0  0  2  0  0  0  0  0  0  0  0  0
    3.1491   -3.9951   -0.1907 C   0  0  0  0  0  0  0  0  0  0  0  0
    3.7929   -5.2906    0.4162 C   0  0  1  0  0  0  0  0  0  0  0  0
    5.1994   -5.3323    0.2492 O   0  0  0  0  0  0  0  0  0  0  0  0
    3.3632   -5.8300    1.8164 C   0  0  2  0  0  0  0  0  0  0  0  0
    3.6943   -7.3191    2.0959 C   0  0  0  0  0  0  0  0  0  0  0  0
    2.4047   -7.8067    2.8090 C   0  0  2  0  0  0  0  0  0  0  0  0
    1.4205   -8.1564    1.6756 C   0  0  0  0  0  0  0  0  0  0  0  0
    1.0979   -6.7637    1.1123 C   0  0  0  0  0  0  0  0  0  0  0  0
    1.8424   -5.8178    2.1044 C   0  0  1  0  0  0  0  0  0  0  0  0
    1.7624   -6.5411    3.4672 C   0  0  1  0  0  0  0  0  0  0  0  0
    0.2563   -6.7097    3.8878 C   0  0  0  0  0  0  0  0  0  0  0  0
    2.6259   -5.8507    4.6409 C   0  0  2  0  0  0  0  0  0  0  0  0
    2.7778   -6.7252    5.9722 C   0  0  0  0  0  0  0  0  0  0  0  0
    1.6893   -7.7818    6.2818 C   0  0  0  0  0  0  0  0  0  0  0  0
    2.9250   -5.9329    7.3004 C   0  0  0  0  0  0  0  0  0  0  0  0
    2.0366   -4.5753    4.9523 O   0  0  0  0  0  0  0  0  0  0  0  0
    4.0254   -5.3688    4.1335 C   0  0  1  0  0  0  0  0  0  0  0  0
    3.9870   -4.9876    2.7693 O   0  0  0  0  0  0  0  0  0  0  0  0
    4.3291   -1.8734    1.2571 C   0  0  0  0  0  0  0  0  0  0  0  0
    4.4872   -0.3768    1.0729 C   0  0  0  0  0  0  0  0  0  0  0  0
    5.6730   -2.5203    1.5166 C   0  0  0  0  0  0  0  0  0  0  0  0
    6.4316   -3.2140    7.4885 H   0  0  0  0  0  0  0  0  0  0  0  0
    4.8631   -2.4916    7.1363 H   0  0  0  0  0  0  0  0  0  0  0  0
    6.2234   -2.2572    6.0058 H   0  0  0  0  0  0  0  0  0  0  0  0
    6.1958   -4.6496    5.6120 H   0  0  0  0  0  0  0  0  0  0  0  0
    4.8818   -3.3701    4.1388 H   0  0  0  0  0  0  0  0  0  0  0  0
    2.9282   -3.2965    6.2724 H   0  0  0  0  0  0  0  0  0  0  0  0
    1.7828   -1.7395    4.8862 H   0  0  0  0  0  0  0  0  0  0  0  0
    3.4709   -1.5111    4.4807 H   0  0  0  0  0  0  0  0  0  0  0  0
    1.3165   -2.9365    2.8557 H   0  0  0  0  0  0  0  0  0  0  0  0
    2.6215   -1.9003   -0.1953 H   0  0  0  0  0  0  0  0  0  0  0  0
    2.0949   -4.2194   -0.3602 H   0  0  0  0  0  0  0  0  0  0  0  0
    3.5451   -3.8668   -1.1973 H   0  0  0  0  0  0  0  0  0  0  0  0
    3.4858   -6.0584   -0.2925 H   0  0  0  0  0  0  0  0  0  0  0  0
    5.3877   -5.2287   -0.6657 H   0  0  0  0  0  0  0  0  0  0  0  0
    3.8663   -7.8696    1.1693 H   0  0  0  0  0  0  0  0  0  0  0  0
    4.6024   -7.4748    2.6759 H   0  0  0  0  0  0  0  0  0  0  0  0
    2.5922   -8.6534    3.4668 H   0  0  0  0  0  0  0  0  0  0  0  0
    1.8409   -8.8256    0.9230 H   0  0  0  0  0  0  0  0  0  0  0  0
    0.5288   -8.6485    2.0663 H   0  0  0  0  0  0  0  0  0  0  0  0
    1.4151   -6.6563    0.0782 H   0  0  0  0  0  0  0  0  0  0  0  0
    0.0225   -6.6010    1.0955 H   0  0  0  0  0  0  0  0  0  0  0  0
    1.4174   -4.8259    2.0960 H   0  0  0  0  0  0  0  0  0  0  0  0
   -0.0298   -5.9542    4.6154 H   0  0  0  0  0  0  0  0  0  0  0  0
    0.0686   -7.6940    4.3156 H   0  0  0  0  0  0  0  0  0  0  0  0
   -0.4805   -6.5656    3.0924 H   0  0  0  0  0  0  0  0  0  0  0  0
    3.6834   -7.3166    5.8149 H   0  0  0  0  0  0  0  0  0  0  0  0
    0.7218   -7.3036    6.4446 H   0  0  0  0  0  0  0  0  0  0  0  0
    1.9149   -8.3151    7.2104 H   0  0  0  0  0  0  0  0  0  0  0  0
    1.5731   -8.5146    5.4772 H   0  0  0  0  0  0  0  0  0  0  0  0
    1.9992   -5.3916    7.5299 H   0  0  0  0  0  0  0  0  0  0  0  0
    3.7381   -5.2289    7.3351 H   0  0  0  0  0  0  0  0  0  0  0  0
    3.1097   -6.6310    8.1232 H   0  0  0  0  0  0  0  0  0  0  0  0
    4.8192   -6.1071    4.2822 H   0  0  0  0  0  0  0  0  0  0  0  0
    5.1201   -0.1712    0.2110 H   0  0  0  0  0  0  0  0  0  0  0  0
    4.9318    0.0834    1.9528 H   0  0  0  0  0  0  0  0  0  0  0  0
    3.5204    0.0919    0.8938 H   0  0  0  0  0  0  0  0  0  0  0  0
    6.2074   -2.6422    0.5745 H   0  0  0  0  0  0  0  0  0  0  0  0
    5.5731   -3.4929    1.9788 H   0  0  0  0  0  0  0  0  0  0  0  0
    6.2748   -1.8990    2.1800 H   0  0  0  0  0  0  0  0  0  0  0  0
    4.9298   -4.8435    6.6450 H   0  0  0  0  0  0  0  0  0  0  0  0
  1  2  1  0
  1 30  1  0
  1 31  1  0
  1 32  1  0
  2  3  1  0
  2 33  1  0
  2 69  1  0
  3 25  1  0
  3  4  1  0
  3 34  1  6
  4 24  1  0
  4  5  1  0
  4 35  1  1
  5  6  1  0
  5 36  1  0
  5 37  1  0
  6  7  2  3
  6 38  1  0
  7 27  1  0
  7  8  1  0
  8  9  1  0
  8 27  1  0
  8 39  1  6
  9 10  1  0
  9 40  1  0
  9 41  1  0
 10 11  1  0
 10 12  1  0
 10 42  1  6
 11 43  1  0
 12 17  1  0
 12 26  1  0
 12 13  1  1
 13 14  1  0
 13 44  1  0
 13 45  1  0
 14 18  1  0
 14 15  1  0
 14 46  1  1
 15 16  1  0
 15 47  1  0
 15 48  1  0
 16 17  1  0
 16 49  1  0
 16 50  1  0
 17 18  1  0
 17 51  1  1
 18 19  1  1
 18 20  1  0
 19 52  1  0
 19 53  1  0
 19 54  1  0
 20 21  1  1
 20 24  1  0
 20 25  1  0
 21 22  1  0
 21 23  1  0
 21 55  1  0
 22 56  1  0
 22 57  1  0
 22 58  1  0
 23 59  1  0
 23 60  1  0
 23 61  1  0
 25 26  1  0
 25 62  1  6
 27 28  1  0
 27 29  1  0
 28 63  1  0
 28 64  1  0
 28 65  1  0
 29 66  1  0
 29 67  1  0
 29 68  1  0
M  CHG  1   2   1
M  END
>  <i_m_ct_stereo_status>  (65) 
1

>  <s_m_source_file>  (65) 
/var/tmp/pbs.5076255.sched01/tmplremgrqo/0ygzoxw5b.sdf

>  <i_m_source_file_index>  (65) 
30

>  <i_lp_mmshare_version>  (65) 
48012

>  <i_f3d_flags>  (65) 
0

>  <s_epik_input>  (65) 
W0NIMl0xW0NIMl1bQ0BASF0oW0NIMl0yKVtDQEBdKFtDQEhdMVtDQEBdMjM0KShbQ0gzXSlbQ0BAXTUoW0NIXShbQ0gzXSlbQ0gzXSlbQ0BASF0oTzQpW0NASF0oW05IXVtDSDNdKVtDQEhdKE81KVtDSDJdL1tDSF09QzZcW0NIXShDNihbQ0gzXSlbQ0gzXSlbQ0gyXVtDQEhdM1tPSF0=

>  <s_epik_cmdline>  (65) 
J2VwaWtfcHl0aG9uJywgJy1waHQnLCAnMi4wJywgJy1waCcsICc3LjAnLCAnLXRuJywgJzgnLCAnLW1hJywgJzIwMCcsICctaW1hZScsICc8aW5maWxlLm1hZT4nLCAnLW9tYWUnLCAnPG91dGZpbGUubWFlPic=

>  <r_epik_Ionization_Penalty>  (65) 
0.00491834

>  <r_epik_Ionization_Penalty_Charging>  (65) 
0.00491822

>  <r_epik_Ionization_Penalty_Neutral>  (65) 
1.14171e-07

>  <r_epik_State_Penalty>  (65) 
0.00357139

>  <r_epik_Charging_Adjusted_Penalty>  (65) 
0.00848962

>  <i_epik_Tot_Q>  (65) 
1

>  <i_epik_Tot_abs_Q>  (65) 
1

>  <s_lp_Force_Field>  (65) 
OPLS3e

>  <r_lp_Energy>  (65) 
88.4779

>  <b_lp_Chiralities_Consistent>  (65) 
1

>  <s_lp_Variant>  (65) 
17:0-2

>  <s_i_glide_gridfile>  (65) 
pfpi4k_grid

>  <i_i_glide_lignum>  (65) 
30

>  <i_i_glide_rotatable_bonds>  (65) 
3

>  <r_i_docking_score>  (65) 
-2.1528

>  <r_i_glide_ligand_efficiency>  (65) 
-0.0742343

>  <r_i_glide_ligand_efficiency_sa>  (65) 
-0.228071

>  <r_i_glide_ligand_efficiency_ln>  (65) 
-0.492936

>  <r_i_glide_gscore>  (65) 
-2.1528

>  <r_i_glide_lipo>  (65) 
-0.279731

>  <r_i_glide_hbond>  (65) 
0

>  <r_i_glide_metal>  (65) 
-0

>  <r_i_glide_rewards>  (65) 
-0.664159

>  <r_i_glide_evdw>  (65) 
-18.2893

>  <r_i_glide_ecoul>  (65) 
-1.96294

>  <r_i_glide_erotb>  (65) 
0

>  <r_i_glide_esite>  (65) 
0

>  <r_i_glide_emodel>  (65) 
-19.5162

>  <r_i_glide_energy>  (65) 
-20.2522

>  <r_i_glide_einternal>  (65) 
5.59582

>  <r_i_glide_intrahb_reward>  (65) 
-0

>  <i_i_glide_confnum>  (65) 
2

>  <i_i_glide_posenum>  (65) 
8

>  <r_i_glide_eff_state_penalty>  (65) 
0

>  <ligand_id>  (65) 
17

>  <original_smiles>  (65) 
CNC1C2CC=C3C(CC(O)C45CC6CCC4C6(C)C(C(C)C)(O2)C1O5)C3(C)C

>  <smiles>  (65) 
[H]OC1([H])C([H])([H])C2([H])C(=C([H])C([H])([H])C3([H])OC4(C([H])(C([H])([H])[H])C([H])([H])[H])C([H])(OC15C([H])([H])C1([H])C([H])([H])C([H])([H])C5([H])C14C([H])([H])[H])C3([H])[N+]([H])([H])C([H])([H])[H])C2(C([H])([H])[H])C([H])([H])[H]

$$$$
17:1:1
     RDKit          3D

 69 74  0  0  1  0  0  0  0  0999 V2000
    4.8797    0.5730    4.6116 C   0  0  0  0  0  0  0  0  0  0  0  0
    5.0922   -0.8730    4.7884 N   0  0  0  0  0  0  0  0  0  0  0  0
    4.5337   -1.7695    3.7533 C   0  0  2  0  0  0  0  0  0  0  0  0
    2.9973   -1.7450    3.6698 C   0  0  1  0  0  0  0  0  0  0  0  0
    2.5125   -1.3730    2.2533 C   0  0  0  0  0  0  0  0  0  0  0  0
    2.7088   -2.5194    1.2892 C   0  0  0  0  0  0  0  0  0  0  0  0
    3.6655   -2.6882    0.3743 C   0  0  0  0  0  0  0  0  0  0  0  0
    4.2136   -3.6131   -0.6406 C   0  0  2  0  0  0  0  0  0  0  0  0
    4.7775   -4.9959   -0.2707 C   0  0  0  0  0  0  0  0  0  0  0  0
    5.5826   -5.3374    1.0201 C   0  0  1  0  0  0  0  0  0  0  0  0
    6.9110   -4.8612    0.9726 O   0  0  0  0  0  0  0  0  0  0  0  0
    4.9718   -5.1323    2.4393 C   0  0  2  0  0  0  0  0  0  0  0  0
    5.6506   -5.9499    3.5759 C   0  0  0  0  0  0  0  0  0  0  0  0
    4.4294   -6.4707    4.3713 C   0  0  2  0  0  0  0  0  0  0  0  0
    3.9381   -7.7180    3.6316 C   0  0  0  0  0  0  0  0  0  0  0  0
    3.3740   -7.1189    2.3444 C   0  0  0  0  0  0  0  0  0  0  0  0
    3.4988   -5.5863    2.5962 C   0  0  1  0  0  0  0  0  0  0  0  0
    3.3110   -5.4001    4.1266 C   0  0  1  0  0  0  0  0  0  0  0  0
    1.9045   -5.8623    4.6128 C   0  0  0  0  0  0  0  0  0  0  0  0
    3.5753   -3.8955    4.6356 C   0  0  2  0  0  0  0  0  0  0  0  0
    3.4989   -3.7853    6.2159 C   0  0  0  0  0  0  0  0  0  0  0  0
    3.0830   -2.4216    6.8326 C   0  0  0  0  0  0  0  0  0  0  0  0
    4.7489   -4.2733    6.9921 C   0  0  0  0  0  0  0  0  0  0  0  0
    2.5437   -3.0512    4.0846 O   0  0  0  0  0  0  0  0  0  0  0  0
    4.8306   -3.2409    4.0040 C   0  0  1  0  0  0  0  0  0  0  0  0
    5.0602   -3.7429    2.7006 O   0  0  0  0  0  0  0  0  0  0  0  0
    4.8351   -2.1730   -0.4000 C   0  0  0  0  0  0  0  0  0  0  0  0
    4.5760   -1.1186   -1.4446 C   0  0  0  0  0  0  0  0  0  0  0  0
    6.1703   -1.9299    0.2583 C   0  0  0  0  0  0  0  0  0  0  0  0
    5.3683    1.1179    5.4182 H   0  0  0  0  0  0  0  0  0  0  0  0
    3.8196    0.8385    4.6414 H   0  0  0  0  0  0  0  0  0  0  0  0
    5.3040    0.9225    3.6688 H   0  0  0  0  0  0  0  0  0  0  0  0
    6.0946   -1.0384    4.8185 H   0  0  0  0  0  0  0  0  0  0  0  0
    4.9628   -1.4434    2.7957 H   0  0  0  0  0  0  0  0  0  0  0  0
    2.5750   -1.0156    4.3524 H   0  0  0  0  0  0  0  0  0  0  0  0
    1.4472   -1.1366    2.2716 H   0  0  0  0  0  0  0  0  0  0  0  0
    3.0241   -0.4796    1.8859 H   0  0  0  0  0  0  0  0  0  0  0  0
    1.9831   -3.3010    1.4193 H   0  0  0  0  0  0  0  0  0  0  0  0
    3.6827   -3.6906   -1.5825 H   0  0  0  0  0  0  0  0  0  0  0  0
    3.9333   -5.6889   -0.3210 H   0  0  0  0  0  0  0  0  0  0  0  0
    5.4001   -5.2796   -1.1191 H   0  0  0  0  0  0  0  0  0  0  0  0
    5.7467   -6.4077    0.9246 H   0  0  0  0  0  0  0  0  0  0  0  0
    6.8841   -3.9299    1.0725 H   0  0  0  0  0  0  0  0  0  0  0  0
    6.2431   -6.7744    3.1765 H   0  0  0  0  0  0  0  0  0  0  0  0
    6.3434   -5.3703    4.1806 H   0  0  0  0  0  0  0  0  0  0  0  0
    4.6321   -6.8115    5.3882 H   0  0  0  0  0  0  0  0  0  0  0  0
    4.7356   -8.4435    3.4643 H   0  0  0  0  0  0  0  0  0  0  0  0
    3.1654   -8.2177    4.2139 H   0  0  0  0  0  0  0  0  0  0  0  0
    3.9295   -7.4785    1.4795 H   0  0  0  0  0  0  0  0  0  0  0  0
    2.3422   -7.4406    2.2077 H   0  0  0  0  0  0  0  0  0  0  0  0
    2.7980   -5.0515    1.9712 H   0  0  0  0  0  0  0  0  0  0  0  0
    1.1988   -5.0357    4.6577 H   0  0  0  0  0  0  0  0  0  0  0  0
    1.9712   -6.2918    5.6124 H   0  0  0  0  0  0  0  0  0  0  0  0
    1.4274   -6.6159    3.9910 H   0  0  0  0  0  0  0  0  0  0  0  0
    2.6684   -4.4237    6.5136 H   0  0  0  0  0  0  0  0  0  0  0  0
    3.8784   -1.6893    6.8082 H   0  0  0  0  0  0  0  0  0  0  0  0
    2.8815   -2.5484    7.8954 H   0  0  0  0  0  0  0  0  0  0  0  0
    2.1733   -2.0123    6.3881 H   0  0  0  0  0  0  0  0  0  0  0  0
    5.5973   -3.5959    6.8564 H   0  0  0  0  0  0  0  0  0  0  0  0
    5.0777   -5.2801    6.7557 H   0  0  0  0  0  0  0  0  0  0  0  0
    4.5191   -4.2771    8.0619 H   0  0  0  0  0  0  0  0  0  0  0  0
    5.7330   -3.3664    4.6186 H   0  0  0  0  0  0  0  0  0  0  0  0
    5.3307   -1.1778   -2.2292 H   0  0  0  0  0  0  0  0  0  0  0  0
    4.6024   -0.1275   -0.9947 H   0  0  0  0  0  0  0  0  0  0  0  0
    3.5968   -1.2671   -1.8957 H   0  0  0  0  0  0  0  0  0  0  0  0
    6.9580   -2.3185   -0.3879 H   0  0  0  0  0  0  0  0  0  0  0  0
    6.2243   -2.4058    1.2218 H   0  0  0  0  0  0  0  0  0  0  0  0
    6.3331   -0.8611    0.4166 H   0  0  0  0  0  0  0  0  0  0  0  0
    4.6916   -1.1466    5.6790 H   0  0  0  0  0  0  0  0  0  0  0  0
  1  2  1  0
  1 30  1  0
  1 31  1  0
  1 32  1  0
  2  3  1  0
  2 33  1  0
  2 69  1  0
  3 25  1  0
  3  4  1  0
  3 34  1  6
  4 24  1  0
  4  5  1  0
  4 35  1  1
  5  6  1  0
  5 36  1  0
  5 37  1  0
  6  7  2  3
  6 38  1  0
  7 27  1  0
  7  8  1  0
  8  9  1  0
  8 27  1  0
  8 39  1  6
  9 10  1  0
  9 40  1  0
  9 41  1  0
 10 11  1  0
 10 12  1  0
 10 42  1  6
 11 43  1  0
 12 17  1  0
 12 26  1  0
 12 13  1  1
 13 14  1  0
 13 44  1  0
 13 45  1  0
 14 18  1  0
 14 15  1  0
 14 46  1  1
 15 16  1  0
 15 47  1  0
 15 48  1  0
 16 17  1  0
 16 49  1  0
 16 50  1  0
 17 18  1  0
 17 51  1  6
 18 19  1  1
 18 20  1  0
 19 52  1  0
 19 53  1  0
 19 54  1  0
 20 21  1  1
 20 24  1  0
 20 25  1  0
 21 22  1  0
 21 23  1  0
 21 55  1  0
 22 56  1  0
 22 57  1  0
 22 58  1  0
 23 59  1  0
 23 60  1  0
 23 61  1  0
 25 26  1  0
 25 62  1  1
 27 28  1  0
 27 29  1  0
 28 63  1  0
 28 64  1  0
 28 65  1  0
 29 66  1  0
 29 67  1  0
 29 68  1  0
M  CHG  1   2   1
M  END
>  <i_m_ct_stereo_status>  (66) 
1

>  <s_m_source_file>  (66) 
/var/tmp/pbs.5076255.sched01/tmplremgrqo/0ygzoxw5b.sdf

>  <i_m_source_file_index>  (66) 
30

>  <i_lp_mmshare_version>  (66) 
48012

>  <i_f3d_flags>  (66) 
0

>  <s_epik_input>  (66) 
W0NIMl0xW0NIMl1bQ0BASF0oW0NIMl0yKVtDQEBdKFtDQEhdMVtDQEBdMjM0KShbQ0gzXSlbQ0BAXTUoW0NIXShbQ0gzXSlbQ0gzXSlbQ0BASF0oTzQpW0NASF0oW05IXVtDSDNdKVtDQEhdKE81KVtDSDJdL1tDSF09QzZcW0NIXShDNihbQ0gzXSlbQ0gzXSlbQ0gyXVtDQEhdM1tPSF0=

>  <s_epik_cmdline>  (66) 
J2VwaWtfcHl0aG9uJywgJy1waHQnLCAnMi4wJywgJy1waCcsICc3LjAnLCAnLXRuJywgJzgnLCAnLW1hJywgJzIwMCcsICctaW1hZScsICc8aW5maWxlLm1hZT4nLCAnLW9tYWUnLCAnPG91dGZpbGUubWFlPic=

>  <r_epik_Ionization_Penalty>  (66) 
0.00491834

>  <r_epik_Ionization_Penalty_Charging>  (66) 
0.00491822

>  <r_epik_Ionization_Penalty_Neutral>  (66) 
1.14171e-07

>  <r_epik_State_Penalty>  (66) 
0.00357139

>  <r_epik_Charging_Adjusted_Penalty>  (66) 
0.00848962

>  <i_epik_Tot_Q>  (66) 
1

>  <i_epik_Tot_abs_Q>  (66) 
1

>  <s_lp_Force_Field>  (66) 
OPLS3e

>  <r_lp_Energy>  (66) 
88.4779

>  <b_lp_Chiralities_Consistent>  (66) 
1

>  <s_lp_Variant>  (66) 
17:0-2

>  <s_i_glide_gridfile>  (66) 
pfpi4k_grid

>  <i_i_glide_lignum>  (66) 
30

>  <i_i_glide_rotatable_bonds>  (66) 
3

>  <r_i_docking_score>  (66) 
-1.97204

>  <r_i_glide_ligand_efficiency>  (66) 
-0.0680013

>  <r_i_glide_ligand_efficiency_sa>  (66) 
-0.208922

>  <r_i_glide_ligand_efficiency_ln>  (66) 
-0.451547

>  <r_i_glide_gscore>  (66) 
-1.97204

>  <r_i_glide_lipo>  (66) 
-0.282263

>  <r_i_glide_hbond>  (66) 
0

>  <r_i_glide_metal>  (66) 
-0

>  <r_i_glide_rewards>  (66) 
-0.664159

>  <r_i_glide_evdw>  (66) 
-16.5067

>  <r_i_glide_ecoul>  (66) 
-1.3352

>  <r_i_glide_erotb>  (66) 
0

>  <r_i_glide_esite>  (66) 
0

>  <r_i_glide_emodel>  (66) 
-19.6029

>  <r_i_glide_energy>  (66) 
-17.8419

>  <r_i_glide_einternal>  (66) 
0.0304977

>  <r_i_glide_intrahb_reward>  (66) 
-0

>  <i_i_glide_confnum>  (66) 
2

>  <i_i_glide_posenum>  (66) 
1

>  <r_i_glide_eff_state_penalty>  (66) 
0

>  <ligand_id>  (66) 
17

>  <original_smiles>  (66) 
CNC1C2CC=C3C(CC(O)C45CC6CCC4C6(C)C(C(C)C)(O2)C1O5)C3(C)C

>  <smiles>  (66) 
[H]OC1([H])C([H])([H])C2([H])C(=C([H])C([H])([H])C3([H])OC4(C([H])(C([H])([H])[H])C([H])([H])[H])C([H])(OC15C([H])([H])C1([H])C([H])([H])C([H])([H])C5([H])C14C([H])([H])[H])C3([H])[N+]([H])([H])C([H])([H])[H])C2(C([H])([H])[H])C([H])([H])[H]

$$$$
18:0:0
     RDKit          3D

 95100  0  0  1  0  0  0  0  0999 V2000
    7.9407   -3.1031   -1.9543 C   0  0  0  0  0  0  0  0  0  0  0  0
    6.5434   -3.3255   -1.9631 O   0  0  0  0  0  0  0  0  0  0  0  0
    5.6220   -2.3118   -1.5069 C   0  0  2  0  0  0  0  0  0  0  0  0
    6.1710   -1.5768   -0.2967 C   0  0  0  0  0  0  0  0  0  0  0  0
    6.5274   -2.5418    0.8236 C   0  0  0  0  0  0  0  0  0  0  0  0
    5.3361   -3.4180    1.3032 C   0  0  1  0  0  0  0  0  0  0  0  0
    6.0126   -4.6859    1.8939 C   0  0  0  0  0  0  0  0  0  0  0  0
    4.4947   -2.6052    2.3643 C   0  0  2  0  0  0  0  0  0  0  0  0
    5.1781   -2.5841    3.7445 C   0  0  0  0  0  0  0  0  0  0  0  0
    4.3882   -1.8260    4.8001 C   0  0  0  0  0  0  0  0  0  0  0  0
    3.0196   -2.4849    5.0232 C   0  0  2  0  0  0  0  0  0  0  0  0
    3.0624   -3.9267    5.6495 C   0  0  1  0  0  0  0  0  0  0  0  0
    3.9280   -4.1282    6.9371 C   0  0  1  0  0  0  0  0  0  0  0  0
    5.2895   -3.7800    6.8316 O   0  0  0  0  0  0  0  0  0  0  0  0
    3.3130   -3.5559    8.2197 C   0  0  1  0  0  0  0  0  0  0  0  0
    3.2479   -2.1568    8.1667 O   0  0  0  0  0  0  0  0  0  0  0  0
    1.9100   -4.1422    8.4761 C   0  0  2  0  0  0  0  0  0  0  0  0
    1.9510   -5.5301    9.1199 C   0  0  0  0  0  0  0  0  0  0  0  0
    0.6743   -6.2384    8.6747 C   0  0  1  0  0  0  0  0  0  0  0  0
   -0.0340   -6.9492    9.8283 C   0  0  0  0  0  0  0  0  0  0  0  0
   -0.1245   -5.2417    7.7834 C   0  0  1  0  0  0  0  0  0  0  0  0
   -1.3683   -4.6545    8.4924 C   0  0  0  0  0  0  0  0  0  0  0  0
    0.9243   -4.1972    7.2609 C   0  0  1  0  0  0  0  0  0  0  0  0
    0.2357   -2.7941    7.1595 C   0  0  0  0  0  0  0  0  0  0  0  0
    1.6547   -4.6173    5.8703 C   0  0  2  0  0  0  0  0  0  0  0  0
    1.9024   -6.1510    5.7891 C   0  0  0  0  0  0  0  0  0  0  0  0
    0.7504   -4.3750    4.6277 C   0  0  0  0  0  0  0  0  0  0  0  0
    0.8064   -2.9989    3.9529 C   0  0  0  0  0  0  0  0  0  0  0  0
    2.1973   -2.3925    3.7046 C   0  0  1  0  0  0  0  0  0  0  0  0
    1.9075   -0.9024    3.3808 C   0  0  0  0  0  0  0  0  0  0  0  0
    2.9690   -2.9701    2.4382 C   0  0  2  0  0  0  0  0  0  0  0  0
    2.7430   -4.4367    2.0148 C   0  0  0  0  0  0  0  0  0  0  0  0
    3.2452   -4.7443    0.5879 C   0  0  0  0  0  0  0  0  0  0  0  0
    4.4794   -3.9382    0.1019 C   0  0  1  0  0  0  0  0  0  0  0  0
    4.2637   -2.9572   -1.1257 C   0  0  0  0  0  0  0  0  0  0  0  0
    3.2208   -1.8674   -0.8416 C   0  0  0  0  0  0  0  0  0  0  0  0
    3.7591   -3.7082   -2.3654 C   0  0  0  0  0  0  0  0  0  0  0  0
    8.3885   -3.8796   -2.5911 H   0  0  0  0  0  0  0  0  0  0  0  0
    8.3718   -3.1608   -1.0010 H   0  0  0  0  0  0  0  0  0  0  0  0
    8.1860   -2.1689   -2.4441 H   0  0  0  0  0  0  0  0  0  0  0  0
    5.4413   -1.5945   -2.3134 H   0  0  0  0  0  0  0  0  0  0  0  0
    7.0967   -1.1352   -0.5644 H   0  0  0  0  0  0  0  0  0  0  0  0
    5.5318   -0.7401   -0.0105 H   0  0  0  0  0  0  0  0  0  0  0  0
    7.3359   -3.1786    0.5326 H   0  0  0  0  0  0  0  0  0  0  0  0
    6.8573   -1.9091    1.6550 H   0  0  0  0  0  0  0  0  0  0  0  0
    5.3475   -5.3666    2.4269 H   0  0  0  0  0  0  0  0  0  0  0  0
    6.8277   -4.4056    2.5519 H   0  0  0  0  0  0  0  0  0  0  0  0
    6.5304   -5.2483    1.1185 H   0  0  0  0  0  0  0  0  0  0  0  0
    4.5087   -1.5550    2.0450 H   0  0  0  0  0  0  0  0  0  0  0  0
    5.3931   -3.5852    4.1068 H   0  0  0  0  0  0  0  0  0  0  0  0
    6.1375   -2.0902    3.6273 H   0  0  0  0  0  0  0  0  0  0  0  0
    4.9579   -1.7256    5.7219 H   0  0  0  0  0  0  0  0  0  0  0  0
    4.2878   -0.7967    4.4773 H   0  0  0  0  0  0  0  0  0  0  0  0
    2.5549   -1.8240    5.7354 H   0  0  0  0  0  0  0  0  0  0  0  0
    3.5630   -4.5258    4.8866 H   0  0  0  0  0  0  0  0  0  0  0  0
    3.9970   -5.1920    7.0947 H   0  0  0  0  0  0  0  0  0  0  0  0
    5.7421   -4.1303    7.5906 H   0  0  0  0  0  0  0  0  0  0  0  0
    3.9516   -3.8121    9.0741 H   0  0  0  0  0  0  0  0  0  0  0  0
    4.1418   -1.8309    8.0413 H   0  0  0  0  0  0  0  0  0  0  0  0
    1.4532   -3.5206    9.2405 H   0  0  0  0  0  0  0  0  0  0  0  0
    2.8101   -6.1161    8.8011 H   0  0  0  0  0  0  0  0  0  0  0  0
    2.0191   -5.4484   10.2082 H   0  0  0  0  0  0  0  0  0  0  0  0
    0.9657   -7.0758    8.0578 H   0  0  0  0  0  0  0  0  0  0  0  0
   -0.4726   -6.2442   10.5556 H   0  0  0  0  0  0  0  0  0  0  0  0
    0.6448   -7.5846   10.4015 H   0  0  0  0  0  0  0  0  0  0  0  0
   -0.6897   -7.6498    9.3704 H   0  0  0  0  0  0  0  0  0  0  0  0
   -0.5476   -5.7963    6.9440 H   0  0  0  0  0  0  0  0  0  0  0  0
   -1.1139   -4.1089    9.3958 H   0  0  0  0  0  0  0  0  0  0  0  0
   -2.0547   -5.4506    8.7623 H   0  0  0  0  0  0  0  0  0  0  0  0
   -1.9474   -4.0107    7.8456 H   0  0  0  0  0  0  0  0  0  0  0  0
   -0.6149   -2.8161    6.4803 H   0  0  0  0  0  0  0  0  0  0  0  0
    0.8972   -2.0047    6.8467 H   0  0  0  0  0  0  0  0  0  0  0  0
   -0.1370   -2.4520    8.1237 H   0  0  0  0  0  0  0  0  0  0  0  0
    0.9716   -6.7339    5.7471 H   0  0  0  0  0  0  0  0  0  0  0  0
    2.4962   -6.5557    6.6089 H   0  0  0  0  0  0  0  0  0  0  0  0
    2.4358   -6.4123    4.8821 H   0  0  0  0  0  0  0  0  0  0  0  0
    0.9221   -5.1618    3.8701 H   0  0  0  0  0  0  0  0  0  0  0  0
   -0.2761   -4.5451    4.9097 H   0  0  0  0  0  0  0  0  0  0  0  0
    0.2947   -3.0519    3.0021 H   0  0  0  0  0  0  0  0  0  0  0  0
    0.1981   -2.2741    4.5196 H   0  0  0  0  0  0  0  0  0  0  0  0
    1.1513   -0.8077    2.5985 H   0  0  0  0  0  0  0  0  0  0  0  0
    2.7843   -0.3567    3.0181 H   0  0  0  0  0  0  0  0  0  0  0  0
    1.5361   -0.3815    4.2533 H   0  0  0  0  0  0  0  0  0  0  0  0
    2.5078   -2.4472    1.6097 H   0  0  0  0  0  0  0  0  0  0  0  0
    3.2203   -5.1063    2.7139 H   0  0  0  0  0  0  0  0  0  0  0  0
    1.6744   -4.6610    1.9952 H   0  0  0  0  0  0  0  0  0  0  0  0
    3.4929   -5.8257    0.5134 H   0  0  0  0  0  0  0  0  0  0  0  0
    2.4324   -4.5791   -0.1086 H   0  0  0  0  0  0  0  0  0  0  0  0
    5.1034   -4.6795   -0.3698 H   0  0  0  0  0  0  0  0  0  0  0  0
    2.2735   -2.3599   -0.6250 H   0  0  0  0  0  0  0  0  0  0  0  0
    3.0918   -1.1946   -1.6980 H   0  0  0  0  0  0  0  0  0  0  0  0
    3.4772   -1.2591    0.0184 H   0  0  0  0  0  0  0  0  0  0  0  0
    2.7289   -4.0203   -2.1926 H   0  0  0  0  0  0  0  0  0  0  0  0
    4.4118   -4.5527   -2.5728 H   0  0  0  0  0  0  0  0  0  0  0  0
    3.7326   -3.0973   -3.2678 H   0  0  0  0  0  0  0  0  0  0  0  0
  1  2  1  0
  1 38  1  0
  1 39  1  0
  1 40  1  0
  2  3  1  0
  3 35  1  0
  3  4  1  0
  3 41  1  6
  4  5  1  0
  4 42  1  0
  4 43  1  0
  5  6  1  0
  5 44  1  0
  5 45  1  0
  6 34  1  0
  6  7  1  1
  6  8  1  0
  7 46  1  0
  7 47  1  0
  7 48  1  0
  8 31  1  0
  8  9  1  0
  8 49  1  6
  9 10  1  0
  9 50  1  0
  9 51  1  0
 10 11  1  0
 10 52  1  0
 10 53  1  0
 11 29  1  0
 11 12  1  0
 11 54  1  1
 12 25  1  0
 12 13  1  0
 12 55  1  6
 13 14  1  0
 13 15  1  0
 13 56  1  1
 14 57  1  0
 15 16  1  0
 15 17  1  0
 15 58  1  1
 16 59  1  0
 17 23  1  0
 17 18  1  0
 17 60  1  1
 18 19  1  0
 18 61  1  0
 18 62  1  0
 19 20  1  0
 19 21  1  0
 19 63  1  6
 20 64  1  0
 20 65  1  0
 20 66  1  0
 21 22  1  0
 21 23  1  0
 21 67  1  6
 22 68  1  0
 22 69  1  0
 22 70  1  0
 23 24  1  6
 23 25  1  0
 24 71  1  0
 24 72  1  0
 24 73  1  0
 25 26  1  1
 25 27  1  0
 26 74  1  0
 26 75  1  0
 26 76  1  0
 27 28  1  0
 27 77  1  0
 27 78  1  0
 28 29  1  0
 28 79  1  0
 28 80  1  0
 29 30  1  6
 29 31  1  0
 30 81  1  0
 30 82  1  0
 30 83  1  0
 31 32  1  0
 31 84  1  6
 32 33  1  0
 32 85  1  0
 32 86  1  0
 33 34  1  0
 33 87  1  0
 33 88  1  0
 34 35  1  0
 34 89  1  6
 35 36  1  0
 35 37  1  0
 36 90  1  0
 36 91  1  0
 36 92  1  0
 37 93  1  0
 37 94  1  0
 37 95  1  0
M  END
>  <i_m_ct_stereo_status>  (67) 
1

>  <s_m_source_file>  (67) 
/var/tmp/pbs.5076255.sched01/tmplremgrqo/0ygzoxw5b.sdf

>  <i_m_source_file_index>  (67) 
33

>  <i_lp_mmshare_version>  (67) 
48012

>  <i_f3d_flags>  (67) 
0

>  <s_epik_input>  (67) 
W0NIM11PW0NASF0oW0NIMl1bQ0gyXTEpQyhbQ0gzXSkoW0NIM10pW0NAQEhdMltDSDJdW0NIMl1bQ0BIXShbQ0BASF0zW0NAXTEyW0NIM10pW0NAXTQoW0NIM10pW0NASF0oW0NIMl1bQ0gyXTMpW0NAQEhdNVtDQF0oW0NIM10pKFtDSDJdW0NIMl00KVtDQF02KFtDSDNdKVtDQEhdKFtDQEhdKFtPSF0pW0NAQEhdNVtPSF0pW0NIMl1bQ0BASF0oW0NIM10pW0NASF02W0NIM10=

>  <s_epik_cmdline>  (67) 
J2VwaWtfcHl0aG9uJywgJy1waHQnLCAnMi4wJywgJy1waCcsICc3LjAnLCAnLXRuJywgJzgnLCAnLW1hJywgJzIwMCcsICctaW1hZScsICc8aW5maWxlLm1hZT4nLCAnLW9tYWUnLCAnPG91dGZpbGUubWFlPic=

>  <r_lp_tautomer_probability>  (67) 
1

>  <r_epik_Ionization_Penalty>  (67) 
1.85889e-06

>  <r_epik_Ionization_Penalty_Charging>  (67) 
0

>  <r_epik_Ionization_Penalty_Neutral>  (67) 
1.85889e-06

>  <r_epik_State_Penalty>  (67) 
-0

>  <r_epik_Charging_Adjusted_Penalty>  (67) 
0

>  <i_epik_Tot_Q>  (67) 
0

>  <i_epik_Tot_abs_Q>  (67) 
0

>  <s_lp_Force_Field>  (67) 
OPLS3e

>  <r_lp_Energy>  (67) 
129.579

>  <b_lp_Chiralities_Consistent>  (67) 
1

>  <s_lp_Variant>  (67) 
18:0-1

>  <s_i_glide_gridfile>  (67) 
pfpi4k_grid

>  <i_i_glide_lignum>  (67) 
33

>  <i_i_glide_rotatable_bonds>  (67) 
3

>  <r_i_docking_score>  (67) 
-0.864546

>  <r_i_glide_ligand_efficiency>  (67) 
-0.0233661

>  <r_i_glide_ligand_efficiency_sa>  (67) 
-0.0778611

>  <r_i_glide_ligand_efficiency_ln>  (67) 
-0.1875

>  <r_i_glide_gscore>  (67) 
-0.864546

>  <r_i_glide_lipo>  (67) 
-0.338801

>  <r_i_glide_hbond>  (67) 
0

>  <r_i_glide_metal>  (67) 
-0

>  <r_i_glide_rewards>  (67) 
0

>  <r_i_glide_evdw>  (67) 
-9.86913

>  <r_i_glide_ecoul>  (67) 
-0.215258

>  <r_i_glide_erotb>  (67) 
0

>  <r_i_glide_esite>  (67) 
0

>  <r_i_glide_emodel>  (67) 
-4.00557

>  <r_i_glide_energy>  (67) 
-10.0844

>  <r_i_glide_einternal>  (67) 
7.09055

>  <r_i_glide_intrahb_reward>  (67) 
-0

>  <i_i_glide_confnum>  (67) 
2

>  <i_i_glide_posenum>  (67) 
9

>  <r_i_glide_eff_state_penalty>  (67) 
0

>  <ligand_id>  (67) 
18

>  <original_smiles>  (67) 
COC1CCC2(C)C3CCC4C5C(O)C(O)C6CC(C)C(C)C6(C)C5(C)CCC4(C)C3CCC2C1(C)C

>  <smiles>  (67) 
[H]OC1([H])C([H])(O[H])C2([H])C([H])([H])C([H])(C([H])([H])[H])C([H])(C([H])([H])[H])C2(C([H])([H])[H])C2(C([H])([H])[H])C([H])([H])C([H])([H])C3(C([H])([H])[H])C4([H])C([H])([H])C([H])([H])C5([H])C(C([H])([H])[H])(C([H])([H])[H])C([H])(OC([H])([H])[H])C([H])([H])C([H])([H])C5(C([H])([H])[H])C4([H])C([H])([H])C([H])([H])C3([H])C12[H]

$$$$
19:0:0
     RDKit          3D

 34 38  0  0  1  0  0  0  0  0999 V2000
   -0.6934   -6.6661    2.1766 O   0  0  0  0  0  0  0  0  0  0  0  0
   -0.0545   -7.5352    2.7614 C   0  0  0  0  0  0  0  0  0  0  0  0
   -0.0815   -8.8451    2.4813 N   0  0  0  0  0  0  0  0  0  0  0  0
    0.8176   -9.5393    3.2881 C   0  0  0  0  0  0  0  0  0  0  0  0
    1.1132  -10.9128    3.2873 C   0  0  0  0  0  0  0  0  0  0  0  0
    2.0788  -11.3685    4.2107 C   0  0  0  0  0  0  0  0  0  0  0  0
    2.7186  -10.4660    5.0973 C   0  0  0  0  0  0  0  0  0  0  0  0
    3.9108  -11.0483    6.1962 Cl  0  0  0  0  0  0  0  0  0  0  0  0
    2.4033   -9.0869    5.0789 C   0  0  0  0  0  0  0  0  0  0  0  0
    1.4427   -8.6436    4.1520 C   0  0  0  0  0  0  0  0  0  0  0  0
    0.9331   -7.2351    3.9146 C   0  0  2  0  0  0  0  0  0  0  0  0
    0.1951   -6.6926    5.0789 N   0  0  0  0  0  0  0  0  0  0  0  0
    0.3548   -5.4596    5.6522 C   0  0  0  0  0  0  0  0  0  0  0  0
   -0.5876   -4.9093    6.8983 S   0  0  0  0  0  0  0  0  0  0  0  0
    1.3605   -4.6982    5.1387 N   0  0  0  0  0  0  0  0  0  0  0  0
    2.1960   -5.0870    4.0793 C   0  0  0  0  0  0  0  0  0  0  0  0
    3.2371   -4.3576    3.5432 N   0  0  0  0  0  0  0  0  0  0  0  0
    3.7001   -5.1286    2.5563 C   0  0  0  0  0  0  0  0  0  0  0  0
    4.7517   -4.9219    1.6334 C   0  0  0  0  0  0  0  0  0  0  0  0
    5.0285   -5.8742    0.6830 C   0  0  0  0  0  0  0  0  0  0  0  0
    4.2719   -7.0681    0.6326 C   0  0  0  0  0  0  0  0  0  0  0  0
    3.2493   -7.2956    1.5252 C   0  0  0  0  0  0  0  0  0  0  0  0
    2.9594   -6.3498    2.4700 N   0  0  0  0  0  0  0  0  0  0  0  0
    2.0031   -6.2817    3.4779 C   0  0  0  0  0  0  0  0  0  0  0  0
   -0.6118   -9.2908    1.7426 H   0  0  0  0  0  0  0  0  0  0  0  0
    0.6203  -11.5926    2.6057 H   0  0  0  0  0  0  0  0  0  0  0  0
    2.3340  -12.4161    4.2418 H   0  0  0  0  0  0  0  0  0  0  0  0
    2.8937   -8.3969    5.7533 H   0  0  0  0  0  0  0  0  0  0  0  0
   -0.5209   -7.2926    5.4625 H   0  0  0  0  0  0  0  0  0  0  0  0
    1.5230   -3.7809    5.5352 H   0  0  0  0  0  0  0  0  0  0  0  0
    5.3217   -4.0020    1.6862 H   0  0  0  0  0  0  0  0  0  0  0  0
    5.8302   -5.7047   -0.0296 H   0  0  0  0  0  0  0  0  0  0  0  0
    4.4971   -7.8134   -0.1278 H   0  0  0  0  0  0  0  0  0  0  0  0
    2.6479   -8.1996    1.5104 H   0  0  0  0  0  0  0  0  0  0  0  0
  1  2  2  0
  2 11  1  0
  2  3  1  0
  3  4  1  0
  3 25  1  0
  4 10  2  0
  4  5  1  0
  5  6  2  0
  5 26  1  0
  6  7  1  0
  6 27  1  0
  7  8  1  0
  7  9  2  0
  9 10  1  0
  9 28  1  0
 10 11  1  0
 11 24  1  0
 11 12  1  1
 12 13  1  0
 12 29  1  0
 13 14  2  0
 13 15  1  0
 15 16  1  0
 15 30  1  0
 16 24  2  0
 16 17  1  0
 17 18  2  0
 18 23  1  0
 18 19  1  0
 19 20  2  0
 19 31  1  0
 20 21  1  0
 20 32  1  0
 21 22  2  0
 21 33  1  0
 22 23  1  0
 22 34  1  0
 23 24  1  0
M  END
>  <i_m_ct_stereo_status>  (68) 
1

>  <s_m_source_file>  (68) 
/var/tmp/pbs.5076255.sched01/tmplremgrqo/0ygzoxw5b.sdf

>  <i_m_source_file_index>  (68) 
34

>  <i_lp_mmshare_version>  (68) 
48012

>  <i_f3d_flags>  (68) 
0

>  <s_epik_input>  (68) 
Q2xjKFtjSF0xKVtjSF1bY0hdYyhbTkhdQzI9TyljMVtDQEBdMjNjNGMoW05IXUMoPVMpW05IXTMpbmM1bjRbY0hdW2NIXVtjSF1bY0hdNQ==

>  <s_epik_cmdline>  (68) 
J2VwaWtfcHl0aG9uJywgJy1waHQnLCAnMi4wJywgJy1waCcsICc3LjAnLCAnLXRuJywgJzgnLCAnLW1hJywgJzIwMCcsICctaW1hZScsICc8aW5maWxlLm1hZT4nLCAnLW9tYWUnLCAnPG91dGZpbGUubWFlPic=

>  <r_epik_Ionization_Penalty>  (68) 
0.000755545

>  <r_epik_Ionization_Penalty_Charging>  (68) 
0.000754264

>  <r_epik_Ionization_Penalty_Neutral>  (68) 
1.28031e-06

>  <r_epik_State_Penalty>  (68) 
0.00048243

>  <r_epik_Charging_Adjusted_Penalty>  (68) 
0.00123669

>  <i_epik_Tot_Q>  (68) 
0

>  <i_epik_Tot_abs_Q>  (68) 
0

>  <s_lp_Force_Field>  (68) 
OPLS3e

>  <r_lp_Energy>  (68) 
47.7573

>  <b_lp_Chiralities_Consistent>  (68) 
1

>  <s_lp_Variant>  (68) 
19:0-1

>  <s_i_glide_gridfile>  (68) 
pfpi4k_grid

>  <i_i_glide_lignum>  (68) 
34

>  <i_i_glide_rotatable_bonds>  (68) 
0

>  <r_i_docking_score>  (68) 
-4.15534

>  <r_i_glide_ligand_efficiency>  (68) 
-0.173139

>  <r_i_glide_ligand_efficiency_sa>  (68) 
-0.499419

>  <r_i_glide_ligand_efficiency_ln>  (68) 
-0.994563

>  <r_i_glide_gscore>  (68) 
-4.15534

>  <r_i_glide_lipo>  (68) 
-0.551981

>  <r_i_glide_hbond>  (68) 
-0.27967

>  <r_i_glide_metal>  (68) 
-0

>  <r_i_glide_rewards>  (68) 
-1.01691

>  <r_i_glide_evdw>  (68) 
-25.2545

>  <r_i_glide_ecoul>  (68) 
-6.23036

>  <r_i_glide_erotb>  (68) 
0

>  <r_i_glide_esite>  (68) 
-0.109494

>  <r_i_glide_emodel>  (68) 
-40.6451

>  <r_i_glide_energy>  (68) 
-31.4848

>  <r_i_glide_einternal>  (68) 
0

>  <r_i_glide_intrahb_reward>  (68) 
-0

>  <i_i_glide_confnum>  (68) 
1

>  <i_i_glide_posenum>  (68) 
1

>  <r_i_glide_eff_state_penalty>  (68) 
0

>  <ligand_id>  (68) 
19

>  <original_smiles>  (68) 
O=C1Nc2ccc(Cl)cc2C12NC(=S)Nc1nc3ccccn3c12

>  <smiles>  (68) 
[H]c1c([H])c2c(c([H])c1Cl)C1(C(=O)N2[H])c2c(nc3c([H])c([H])c([H])c([H])n23)N([H])C(=S)N1[H]

$$$$
19:0:1
     RDKit          3D

 34 38  0  0  1  0  0  0  0  0999 V2000
    0.6752   -6.2547    0.5228 O   0  0  0  0  0  0  0  0  0  0  0  0
    1.8301   -6.2084    0.9470 C   0  0  0  0  0  0  0  0  0  0  0  0
    2.8806   -5.7027    0.2821 N   0  0  0  0  0  0  0  0  0  0  0  0
    4.0408   -5.7781    1.0556 C   0  0  0  0  0  0  0  0  0  0  0  0
    5.3381   -5.3579    0.7242 C   0  0  0  0  0  0  0  0  0  0  0  0
    6.3433   -5.5292    1.7027 C   0  0  0  0  0  0  0  0  0  0  0  0
    6.0376   -6.1080    2.9598 C   0  0  0  0  0  0  0  0  0  0  0  0
    7.2847   -6.2857    4.1360 Cl  0  0  0  0  0  0  0  0  0  0  0  0
    4.7224   -6.5333    3.2632 C   0  0  0  0  0  0  0  0  0  0  0  0
    3.7315   -6.3518    2.2817 C   0  0  0  0  0  0  0  0  0  0  0  0
    2.2573   -6.7095    2.3431 C   0  0  2  0  0  0  0  0  0  0  0  0
    2.0289   -8.1694    2.4492 N   0  0  0  0  0  0  0  0  0  0  0  0
    1.1887   -8.8082    3.3196 C   0  0  0  0  0  0  0  0  0  0  0  0
    0.9536  -10.4473    3.2830 S   0  0  0  0  0  0  0  0  0  0  0  0
    0.5685   -8.0095    4.2350 N   0  0  0  0  0  0  0  0  0  0  0  0
    0.7271   -6.6157    4.3178 C   0  0  0  0  0  0  0  0  0  0  0  0
    0.1391   -5.7657    5.2317 N   0  0  0  0  0  0  0  0  0  0  0  0
    0.5812   -4.5544    4.8860 C   0  0  0  0  0  0  0  0  0  0  0  0
    0.3171   -3.2781    5.4373 C   0  0  0  0  0  0  0  0  0  0  0  0
    0.8744   -2.1556    4.8752 C   0  0  0  0  0  0  0  0  0  0  0  0
    1.7219   -2.2727    3.7480 C   0  0  0  0  0  0  0  0  0  0  0  0
    2.0026   -3.5063    3.2018 C   0  0  0  0  0  0  0  0  0  0  0  0
    1.4445   -4.6256    3.7501 N   0  0  0  0  0  0  0  0  0  0  0  0
    1.5178   -5.9781    3.4244 C   0  0  0  0  0  0  0  0  0  0  0  0
    2.8697   -5.3562   -0.6696 H   0  0  0  0  0  0  0  0  0  0  0  0
    5.5589   -4.9173   -0.2393 H   0  0  0  0  0  0  0  0  0  0  0  0
    7.3506   -5.2096    1.4936 H   0  0  0  0  0  0  0  0  0  0  0  0
    4.4832   -6.9739    4.2226 H   0  0  0  0  0  0  0  0  0  0  0  0
    2.5150   -8.7496    1.7807 H   0  0  0  0  0  0  0  0  0  0  0  0
   -0.0556   -8.4462    4.9034 H   0  0  0  0  0  0  0  0  0  0  0  0
   -0.3351   -3.2093    6.3007 H   0  0  0  0  0  0  0  0  0  0  0  0
    0.6613   -1.1781    5.2997 H   0  0  0  0  0  0  0  0  0  0  0  0
    2.1582   -1.3806    3.3028 H   0  0  0  0  0  0  0  0  0  0  0  0
    2.6458   -3.6288    2.3365 H   0  0  0  0  0  0  0  0  0  0  0  0
  1  2  2  0
  2 11  1  0
  2  3  1  0
  3  4  1  0
  3 25  1  0
  4 10  2  0
  4  5  1  0
  5  6  2  0
  5 26  1  0
  6  7  1  0
  6 27  1  0
  7  8  1  0
  7  9  2  0
  9 10  1  0
  9 28  1  0
 10 11  1  0
 11 24  1  0
 11 12  1  6
 12 13  1  0
 12 29  1  0
 13 14  2  0
 13 15  1  0
 15 16  1  0
 15 30  1  0
 16 24  2  0
 16 17  1  0
 17 18  2  0
 18 23  1  0
 18 19  1  0
 19 20  2  0
 19 31  1  0
 20 21  1  0
 20 32  1  0
 21 22  2  0
 21 33  1  0
 22 23  1  0
 22 34  1  0
 23 24  1  0
M  END
>  <i_m_ct_stereo_status>  (69) 
1

>  <s_m_source_file>  (69) 
/var/tmp/pbs.5076255.sched01/tmplremgrqo/0ygzoxw5b.sdf

>  <i_m_source_file_index>  (69) 
34

>  <i_lp_mmshare_version>  (69) 
48012

>  <i_f3d_flags>  (69) 
0

>  <s_epik_input>  (69) 
Q2xjKFtjSF0xKVtjSF1bY0hdYyhbTkhdQzI9TyljMVtDQEBdMjNjNGMoW05IXUMoPVMpW05IXTMpbmM1bjRbY0hdW2NIXVtjSF1bY0hdNQ==

>  <s_epik_cmdline>  (69) 
J2VwaWtfcHl0aG9uJywgJy1waHQnLCAnMi4wJywgJy1waCcsICc3LjAnLCAnLXRuJywgJzgnLCAnLW1hJywgJzIwMCcsICctaW1hZScsICc8aW5maWxlLm1hZT4nLCAnLW9tYWUnLCAnPG91dGZpbGUubWFlPic=

>  <r_epik_Ionization_Penalty>  (69) 
0.000755545

>  <r_epik_Ionization_Penalty_Charging>  (69) 
0.000754264

>  <r_epik_Ionization_Penalty_Neutral>  (69) 
1.28031e-06

>  <r_epik_State_Penalty>  (69) 
0.00048243

>  <r_epik_Charging_Adjusted_Penalty>  (69) 
0.00123669

>  <i_epik_Tot_Q>  (69) 
0

>  <i_epik_Tot_abs_Q>  (69) 
0

>  <s_lp_Force_Field>  (69) 
OPLS3e

>  <r_lp_Energy>  (69) 
47.7573

>  <b_lp_Chiralities_Consistent>  (69) 
1

>  <s_lp_Variant>  (69) 
19:0-1

>  <s_i_glide_gridfile>  (69) 
pfpi4k_grid

>  <i_i_glide_lignum>  (69) 
34

>  <i_i_glide_rotatable_bonds>  (69) 
0

>  <r_i_docking_score>  (69) 
-4.04388

>  <r_i_glide_ligand_efficiency>  (69) 
-0.168495

>  <r_i_glide_ligand_efficiency_sa>  (69) 
-0.486023

>  <r_i_glide_ligand_efficiency_ln>  (69) 
-0.967885

>  <r_i_glide_gscore>  (69) 
-4.04388

>  <r_i_glide_lipo>  (69) 
-0.254808

>  <r_i_glide_hbond>  (69) 
-0.431412

>  <r_i_glide_metal>  (69) 
-0

>  <r_i_glide_rewards>  (69) 
-1.14277

>  <r_i_glide_evdw>  (69) 
-25.2833

>  <r_i_glide_ecoul>  (69) 
-5.37113

>  <r_i_glide_erotb>  (69) 
0

>  <r_i_glide_esite>  (69) 
-0.145049

>  <r_i_glide_emodel>  (69) 
-39.5773

>  <r_i_glide_energy>  (69) 
-30.6545

>  <r_i_glide_einternal>  (69) 
0

>  <r_i_glide_intrahb_reward>  (69) 
-0

>  <i_i_glide_confnum>  (69) 
1

>  <i_i_glide_posenum>  (69) 
4

>  <r_i_glide_eff_state_penalty>  (69) 
0

>  <ligand_id>  (69) 
19

>  <original_smiles>  (69) 
O=C1Nc2ccc(Cl)cc2C12NC(=S)Nc1nc3ccccn3c12

>  <smiles>  (69) 
[H]c1c([H])c2c(c([H])c1Cl)C1(C(=O)N2[H])c2c(nc3c([H])c([H])c([H])c([H])n23)N([H])C(=S)N1[H]

$$$$
19:0:2
     RDKit          3D

 34 38  0  0  1  0  0  0  0  0999 V2000
    3.6136   -4.3593    4.0717 O   0  0  0  0  0  0  0  0  0  0  0  0
    4.1960   -5.4000    3.7824 C   0  0  0  0  0  0  0  0  0  0  0  0
    4.9478   -6.1271    4.6235 N   0  0  0  0  0  0  0  0  0  0  0  0
    5.4415   -7.2661    3.9837 C   0  0  0  0  0  0  0  0  0  0  0  0
    6.2479   -8.2846    4.5147 C   0  0  0  0  0  0  0  0  0  0  0  0
    6.6038   -9.3419    3.6514 C   0  0  0  0  0  0  0  0  0  0  0  0
    6.1610   -9.3628    2.3077 C   0  0  0  0  0  0  0  0  0  0  0  0
    6.6106  -10.6709    1.2909 Cl  0  0  0  0  0  0  0  0  0  0  0  0
    5.3504   -8.3245    1.7936 C   0  0  0  0  0  0  0  0  0  0  0  0
    4.9995   -7.2767    2.6640 C   0  0  0  0  0  0  0  0  0  0  0  0
    4.1465   -6.0538    2.3813 C   0  0  2  0  0  0  0  0  0  0  0  0
    4.7656   -5.1510    1.3801 N   0  0  0  0  0  0  0  0  0  0  0  0
    4.1544   -4.5687    0.3013 C   0  0  0  0  0  0  0  0  0  0  0  0
    4.9283   -3.4764   -0.6789 S   0  0  0  0  0  0  0  0  0  0  0  0
    2.8674   -4.9627    0.0836 N   0  0  0  0  0  0  0  0  0  0  0  0
    2.1502   -5.8680    0.8877 C   0  0  0  0  0  0  0  0  0  0  0  0
    0.8417   -6.2771    0.7112 N   0  0  0  0  0  0  0  0  0  0  0  0
    0.6271   -7.1133    1.7353 C   0  0  0  0  0  0  0  0  0  0  0  0
   -0.5190   -7.8599    2.1018 C   0  0  0  0  0  0  0  0  0  0  0  0
   -0.5134   -8.6239    3.2432 C   0  0  0  0  0  0  0  0  0  0  0  0
    0.6444   -8.6750    4.0535 C   0  0  0  0  0  0  0  0  0  0  0  0
    1.7794   -7.9702    3.7107 C   0  0  0  0  0  0  0  0  0  0  0  0
    1.7791   -7.2072    2.5768 N   0  0  0  0  0  0  0  0  0  0  0  0
    2.7419   -6.3946    1.9870 C   0  0  0  0  0  0  0  0  0  0  0  0
    5.1278   -5.9073    5.5948 H   0  0  0  0  0  0  0  0  0  0  0  0
    6.5805   -8.2625    5.5439 H   0  0  0  0  0  0  0  0  0  0  0  0
    7.2172  -10.1464    4.0217 H   0  0  0  0  0  0  0  0  0  0  0  0
    5.0036   -8.3357    0.7673 H   0  0  0  0  0  0  0  0  0  0  0  0
    5.7247   -4.8941    1.5548 H   0  0  0  0  0  0  0  0  0  0  0  0
    2.3881   -4.5933   -0.7359 H   0  0  0  0  0  0  0  0  0  0  0  0
   -1.3862   -7.8396    1.4617 H   0  0  0  0  0  0  0  0  0  0  0  0
   -1.3950   -9.1980    3.5187 H   0  0  0  0  0  0  0  0  0  0  0  0
    0.6405   -9.2885    4.9552 H   0  0  0  0  0  0  0  0  0  0  0  0
    2.6813   -7.9925    4.3129 H   0  0  0  0  0  0  0  0  0  0  0  0
  1  2  2  0
  2 11  1  0
  2  3  1  0
  3  4  1  0
  3 25  1  0
  4 10  2  0
  4  5  1  0
  5  6  2  0
  5 26  1  0
  6  7  1  0
  6 27  1  0
  7  8  1  0
  7  9  2  0
  9 10  1  0
  9 28  1  0
 10 11  1  0
 11 24  1  0
 11 12  1  6
 12 13  1  0
 12 29  1  0
 13 14  2  0
 13 15  1  0
 15 16  1  0
 15 30  1  0
 16 24  2  0
 16 17  1  0
 17 18  2  0
 18 23  1  0
 18 19  1  0
 19 20  2  0
 19 31  1  0
 20 21  1  0
 20 32  1  0
 21 22  2  0
 21 33  1  0
 22 23  1  0
 22 34  1  0
 23 24  1  0
M  END
>  <i_m_ct_stereo_status>  (70) 
1

>  <s_m_source_file>  (70) 
/var/tmp/pbs.5076255.sched01/tmplremgrqo/0ygzoxw5b.sdf

>  <i_m_source_file_index>  (70) 
34

>  <i_lp_mmshare_version>  (70) 
48012

>  <i_f3d_flags>  (70) 
0

>  <s_epik_input>  (70) 
Q2xjKFtjSF0xKVtjSF1bY0hdYyhbTkhdQzI9TyljMVtDQEBdMjNjNGMoW05IXUMoPVMpW05IXTMpbmM1bjRbY0hdW2NIXVtjSF1bY0hdNQ==

>  <s_epik_cmdline>  (70) 
J2VwaWtfcHl0aG9uJywgJy1waHQnLCAnMi4wJywgJy1waCcsICc3LjAnLCAnLXRuJywgJzgnLCAnLW1hJywgJzIwMCcsICctaW1hZScsICc8aW5maWxlLm1hZT4nLCAnLW9tYWUnLCAnPG91dGZpbGUubWFlPic=

>  <r_epik_Ionization_Penalty>  (70) 
0.000755545

>  <r_epik_Ionization_Penalty_Charging>  (70) 
0.000754264

>  <r_epik_Ionization_Penalty_Neutral>  (70) 
1.28031e-06

>  <r_epik_State_Penalty>  (70) 
0.00048243

>  <r_epik_Charging_Adjusted_Penalty>  (70) 
0.00123669

>  <i_epik_Tot_Q>  (70) 
0

>  <i_epik_Tot_abs_Q>  (70) 
0

>  <s_lp_Force_Field>  (70) 
OPLS3e

>  <r_lp_Energy>  (70) 
47.7573

>  <b_lp_Chiralities_Consistent>  (70) 
1

>  <s_lp_Variant>  (70) 
19:0-1

>  <s_i_glide_gridfile>  (70) 
pfpi4k_grid

>  <i_i_glide_lignum>  (70) 
34

>  <i_i_glide_rotatable_bonds>  (70) 
0

>  <r_i_docking_score>  (70) 
-3.49404

>  <r_i_glide_ligand_efficiency>  (70) 
-0.145585

>  <r_i_glide_ligand_efficiency_sa>  (70) 
-0.41994

>  <r_i_glide_ligand_efficiency_ln>  (70) 
-0.836284

>  <r_i_glide_gscore>  (70) 
-3.49404

>  <r_i_glide_lipo>  (70) 
-0.0700913

>  <r_i_glide_hbond>  (70) 
-0.16

>  <r_i_glide_metal>  (70) 
-0

>  <r_i_glide_rewards>  (70) 
-1.0788

>  <r_i_glide_evdw>  (70) 
-25.7529

>  <r_i_glide_ecoul>  (70) 
-5.09697

>  <r_i_glide_erotb>  (70) 
0

>  <r_i_glide_esite>  (70) 
-0.132957

>  <r_i_glide_emodel>  (70) 
-38.5386

>  <r_i_glide_energy>  (70) 
-30.8499

>  <r_i_glide_einternal>  (70) 
0

>  <r_i_glide_intrahb_reward>  (70) 
-0

>  <i_i_glide_confnum>  (70) 
2

>  <i_i_glide_posenum>  (70) 
23

>  <r_i_glide_eff_state_penalty>  (70) 
0

>  <ligand_id>  (70) 
19

>  <original_smiles>  (70) 
O=C1Nc2ccc(Cl)cc2C12NC(=S)Nc1nc3ccccn3c12

>  <smiles>  (70) 
[H]c1c([H])c2c(c([H])c1Cl)C1(C(=O)N2[H])c2c(nc3c([H])c([H])c([H])c([H])n23)N([H])C(=S)N1[H]

$$$$
20:0:0
     RDKit          3D

 63 69  0  0  1  0  0  0  0  0999 V2000
    2.6768   -3.1792    1.5341 C   0  0  0  0  0  0  0  0  0  0  0  0
    3.9358   -3.7818    2.0441 N   0  0  2  0  0  0  0  0  0  0  0  0
    4.5709   -4.7027    1.0505 C   0  0  0  0  0  0  0  0  0  0  0  0
    5.5727   -3.9889    0.1550 C   0  0  0  0  0  0  0  0  0  0  0  0
    6.8692   -3.6952    0.6363 C   0  0  0  0  0  0  0  0  0  0  0  0
    7.8145   -3.0649   -0.1944 C   0  0  0  0  0  0  0  0  0  0  0  0
    7.4762   -2.7364   -1.5215 C   0  0  0  0  0  0  0  0  0  0  0  0
    6.1933   -3.0420   -2.0108 C   0  0  0  0  0  0  0  0  0  0  0  0
    5.2397   -3.6655   -1.1794 C   0  0  0  0  0  0  0  0  0  0  0  0
    3.8122   -4.3063    3.4514 C   0  0  2  0  0  0  0  0  0  0  0  0
    5.1786   -4.2009    4.1853 C   0  0  0  0  0  0  0  0  0  0  0  0
    5.6048   -5.3205    5.1868 C   0  0  0  0  0  0  0  0  0  0  0  0
    4.5762   -5.9507    6.1824 C   0  0  1  0  0  0  0  0  0  0  0  0
    5.3375   -6.5623    7.2044 O   0  0  0  0  0  0  0  0  0  0  0  0
    3.6369   -4.9105    6.8384 C   0  0  1  0  0  0  0  0  0  0  0  0
    3.6845   -3.5093    6.5249 O   0  0  0  0  0  0  0  0  0  0  0  0
    2.3425   -2.9817    6.5518 C   0  0  0  0  0  0  0  0  0  0  0  0
    1.4613   -4.1579    6.2326 C   0  0  0  0  0  0  0  0  0  0  0  0
    0.1368   -4.3355    6.2748 C   0  0  0  0  0  0  0  0  0  0  0  0
   -0.4571   -5.7433    6.2026 C   0  0  0  0  0  0  0  0  0  0  0  0
   -0.1755   -6.5706    4.9386 C   0  0  0  0  0  0  0  0  0  0  0  0
   -1.2229   -7.0923    4.1529 C   0  0  0  0  0  0  0  0  0  0  0  0
   -0.9981   -7.4944    2.8195 C   0  0  0  0  0  0  0  0  0  0  0  0
    0.2537   -7.2469    2.2179 C   0  0  0  0  0  0  0  0  0  0  0  0
    0.4299   -7.4529    0.8810 O   0  0  0  0  0  0  0  0  0  0  0  0
    1.3133   -6.7208    2.9868 C   0  0  0  0  0  0  0  0  0  0  0  0
    1.1345   -6.5706    4.3605 C   0  0  0  0  0  0  0  0  0  0  0  0
    2.5091   -6.1357    4.9131 C   0  0  1  0  0  0  0  0  0  0  0  0
    3.2453   -5.7245    3.5686 C   0  0  1  0  0  0  0  0  0  0  0  0
    2.4674   -6.2085    2.4777 O   0  0  0  0  0  0  0  0  0  0  0  0
    2.3364   -5.3221    6.2196 C   0  0  1  0  0  0  0  0  0  0  0  0
    3.5747   -7.0481    5.6138 C   0  0  1  0  0  0  0  0  0  0  0  0
    4.2327   -8.0537    4.8586 O   0  0  0  0  0  0  0  0  0  0  0  0
    1.9138   -3.9380    1.3730 H   0  0  0  0  0  0  0  0  0  0  0  0
    2.8478   -2.6678    0.5850 H   0  0  0  0  0  0  0  0  0  0  0  0
    2.2741   -2.4409    2.2289 H   0  0  0  0  0  0  0  0  0  0  0  0
    5.1123   -5.5077    1.5442 H   0  0  0  0  0  0  0  0  0  0  0  0
    3.8073   -5.1906    0.4405 H   0  0  0  0  0  0  0  0  0  0  0  0
    7.1639   -3.9708    1.6363 H   0  0  0  0  0  0  0  0  0  0  0  0
    8.8067   -2.8463    0.1745 H   0  0  0  0  0  0  0  0  0  0  0  0
    8.2087   -2.2761   -2.1635 H   0  0  0  0  0  0  0  0  0  0  0  0
    5.9467   -2.8135   -3.0380 H   0  0  0  0  0  0  0  0  0  0  0  0
    4.2707   -3.9222   -1.5855 H   0  0  0  0  0  0  0  0  0  0  0  0
    3.1146   -3.6546    3.9671 H   0  0  0  0  0  0  0  0  0  0  0  0
    5.9722   -4.1662    3.4447 H   0  0  0  0  0  0  0  0  0  0  0  0
    5.2305   -3.2280    4.6730 H   0  0  0  0  0  0  0  0  0  0  0  0
    6.1066   -6.1218    4.6374 H   0  0  0  0  0  0  0  0  0  0  0  0
    6.4081   -4.8712    5.7769 H   0  0  0  0  0  0  0  0  0  0  0  0
    5.8878   -7.2267    6.8131 H   0  0  0  0  0  0  0  0  0  0  0  0
    3.5744   -5.0334    7.9228 H   0  0  0  0  0  0  0  0  0  0  0  0
    2.1131   -2.6187    7.5540 H   0  0  0  0  0  0  0  0  0  0  0  0
    2.1989   -2.1645    5.8444 H   0  0  0  0  0  0  0  0  0  0  0  0
   -0.5240   -3.5163    6.5090 H   0  0  0  0  0  0  0  0  0  0  0  0
   -0.2591   -6.3172    7.1087 H   0  0  0  0  0  0  0  0  0  0  0  0
   -1.5337   -5.5787    6.2211 H   0  0  0  0  0  0  0  0  0  0  0  0
   -2.2287   -7.1050    4.5333 H   0  0  0  0  0  0  0  0  0  0  0  0
   -1.8170   -7.8695    2.2258 H   0  0  0  0  0  0  0  0  0  0  0  0
    0.1328   -8.3146    0.5834 H   0  0  0  0  0  0  0  0  0  0  0  0
    4.1103   -6.3459    3.3542 H   0  0  0  0  0  0  0  0  0  0  0  0
    1.9016   -5.9937    6.9685 H   0  0  0  0  0  0  0  0  0  0  0  0
    3.1429   -7.5990    6.4510 H   0  0  0  0  0  0  0  0  0  0  0  0
    3.6299   -8.7689    4.7099 H   0  0  0  0  0  0  0  0  0  0  0  0
    4.5728   -3.0003    2.1194 H   0  0  0  0  0  0  0  0  0  0  0  0
  1  2  1  0
  1 34  1  0
  1 35  1  0
  1 36  1  0
  2  3  1  0
  2 10  1  0
  2 63  1  1
  3  4  1  0
  3 37  1  0
  3 38  1  0
  4  9  1  0
  4  5  2  0
  5  6  1  0
  5 39  1  0
  6  7  2  0
  6 40  1  0
  7  8  1  0
  7 41  1  0
  8  9  2  0
  8 42  1  0
  9 43  1  0
 10 29  1  0
 10 11  1  0
 10 44  1  1
 11 12  1  0
 11 45  1  0
 11 46  1  0
 12 13  1  0
 12 47  1  0
 12 48  1  0
 13 32  1  0
 13 14  1  1
 13 15  1  0
 14 49  1  0
 15 31  1  0
 15 16  1  0
 15 50  1  1
 16 17  1  0
 17 18  1  0
 17 51  1  0
 17 52  1  0
 18 31  1  0
 18 19  2  0
 19 20  1  0
 19 53  1  0
 20 21  1  0
 20 54  1  0
 20 55  1  0
 21 27  2  0
 21 22  1  0
 22 23  2  0
 22 56  1  0
 23 24  1  0
 23 57  1  0
 24 25  1  0
 24 26  2  0
 25 58  1  0
 26 30  1  0
 26 27  1  0
 28 27  1  6
 28 29  1  0
 28 31  1  0
 28 32  1  0
 29 30  1  0
 29 59  1  1
 31 60  1  1
 32 33  1  0
 32 61  1  1
 33 62  1  0
M  CHG  1   2   1
M  END
>  <i_m_ct_stereo_status>  (71) 
1

>  <s_m_source_file>  (71) 
/var/tmp/pbs.5076255.sched01/tmplremgrqo/0ygzoxw5b.sdf

>  <i_m_source_file_index>  (71) 
35

>  <i_lp_mmshare_version>  (71) 
48012

>  <i_f3d_flags>  (71) 
0

>  <s_epik_input>  (71) 
W2NIXTFbY0hdW2NIXVtjSF1bY0hdYzFbQ0gyXU4oW0NIM10pW0NASF0oW0NIMl1bQ0gyXVtDQF0oW09IXSkoW0NAQEhdMltPSF0pW0NAQEhdM1tDQEhdNEMoW0NIMl1PMyk9W0NIXVtDSDJdNSlbQ0BASF02T2M3YyhbT0hdKVtjSF1bY0hdYzVjN1tDQF0yNDY=

>  <s_epik_cmdline>  (71) 
J2VwaWtfcHl0aG9uJywgJy1waHQnLCAnMi4wJywgJy1waCcsICc3LjAnLCAnLXRuJywgJzgnLCAnLW1hJywgJzIwMCcsICctaW1hZScsICc8aW5maWxlLm1hZT4nLCAnLW9tYWUnLCAnPG91dGZpbGUubWFlPic=

>  <r_lp_tautomer_probability>  (71) 
1

>  <r_epik_Ionization_Penalty>  (71) 
0.160572

>  <r_epik_Ionization_Penalty_Charging>  (71) 
0.153759

>  <r_epik_Ionization_Penalty_Neutral>  (71) 
0.00681256

>  <r_epik_State_Penalty>  (71) 
0.146737

>  <r_epik_Charging_Adjusted_Penalty>  (71) 
0.300496

>  <i_epik_Tot_Q>  (71) 
1

>  <i_epik_Tot_abs_Q>  (71) 
1

>  <s_lp_Force_Field>  (71) 
OPLS3e

>  <r_lp_Energy>  (71) 
115.278

>  <b_lp_Chiralities_Consistent>  (71) 
1

>  <s_lp_Variant>  (71) 
20:0-1

>  <s_i_glide_gridfile>  (71) 
pfpi4k_grid

>  <i_i_glide_lignum>  (71) 
35

>  <i_i_glide_rotatable_bonds>  (71) 
6

>  <r_i_docking_score>  (71) 
-2.98839

>  <r_i_glide_ligand_efficiency>  (71) 
-0.0905573

>  <r_i_glide_ligand_efficiency_sa>  (71) 
-0.290466

>  <r_i_glide_ligand_efficiency_ln>  (71) 
-0.664603

>  <r_i_glide_gscore>  (71) 
-2.98839

>  <r_i_glide_lipo>  (71) 
-0.542136

>  <r_i_glide_hbond>  (71) 
0

>  <r_i_glide_metal>  (71) 
-0

>  <r_i_glide_rewards>  (71) 
-0.350926

>  <r_i_glide_evdw>  (71) 
-24.695

>  <r_i_glide_ecoul>  (71) 
-7.72881

>  <r_i_glide_erotb>  (71) 
0.29874

>  <r_i_glide_esite>  (71) 
0

>  <r_i_glide_emodel>  (71) 
-35.1709

>  <r_i_glide_energy>  (71) 
-32.4238

>  <r_i_glide_einternal>  (71) 
4.11671

>  <r_i_glide_intrahb_reward>  (71) 
-0

>  <i_i_glide_confnum>  (71) 
2

>  <i_i_glide_posenum>  (71) 
32

>  <r_i_glide_eff_state_penalty>  (71) 
0

>  <ligand_id>  (71) 
20

>  <original_smiles>  (71) 
CN(Cc1ccccc1)C1CCC2(O)C3OCC4=CCc5ccc(O)c6c5C(C1O6)(C43)C2O

>  <smiles>  (71) 
[H]Oc1c([H])c([H])c2c3c1OC1([H])C34C([H])(O[H])C(O[H])(C([H])([H])C([H])([H])C1([H])[N+]([H])(C([H])([H])[H])C([H])([H])c1c([H])c([H])c([H])c([H])c1[H])C1([H])OC([H])([H])C(=C([H])C2([H])[H])C14[H]

$$$$
20:0:1
     RDKit          3D

 63 69  0  0  1  0  0  0  0  0999 V2000
    4.8763   -5.3301    0.9743 C   0  0  0  0  0  0  0  0  0  0  0  0
    4.0032   -4.2298    1.4886 N   0  0  2  0  0  0  0  0  0  0  0  0
    4.2567   -2.9068    0.8351 C   0  0  0  0  0  0  0  0  0  0  0  0
    4.3363   -2.9669   -0.6871 C   0  0  0  0  0  0  0  0  0  0  0  0
    3.1676   -2.8641   -1.4711 C   0  0  0  0  0  0  0  0  0  0  0  0
    3.2353   -2.9467   -2.8767 C   0  0  0  0  0  0  0  0  0  0  0  0
    4.4755   -3.1372   -3.5085 C   0  0  0  0  0  0  0  0  0  0  0  0
    5.6477   -3.2256   -2.7368 C   0  0  0  0  0  0  0  0  0  0  0  0
    5.5828   -3.1359   -1.3329 C   0  0  0  0  0  0  0  0  0  0  0  0
    3.9370   -4.1272    2.9918 C   0  0  2  0  0  0  0  0  0  0  0  0
    5.2999   -3.6831    3.6052 C   0  0  0  0  0  0  0  0  0  0  0  0
    5.7914   -4.3105    4.9479 C   0  0  0  0  0  0  0  0  0  0  0  0
    4.8102   -4.5461    6.1393 C   0  0  1  0  0  0  0  0  0  0  0  0
    5.6112   -4.6685    7.2953 O   0  0  0  0  0  0  0  0  0  0  0  0
    3.8151   -3.3815    6.3614 C   0  0  1  0  0  0  0  0  0  0  0  0
    3.7763   -2.2189    5.5210 O   0  0  0  0  0  0  0  0  0  0  0  0
    2.4059   -1.7922    5.3748 C   0  0  0  0  0  0  0  0  0  0  0  0
    1.5917   -3.0403    5.5764 C   0  0  0  0  0  0  0  0  0  0  0  0
    0.2813   -3.2539    5.7276 C   0  0  0  0  0  0  0  0  0  0  0  0
   -0.2259   -4.6020    6.2372 C   0  0  0  0  0  0  0  0  0  0  0  0
    0.0878   -5.8381    5.3849 C   0  0  0  0  0  0  0  0  0  0  0  0
   -0.9367   -6.6645    4.8780 C   0  0  0  0  0  0  0  0  0  0  0  0
   -0.6983   -7.5519    3.8128 C   0  0  0  0  0  0  0  0  0  0  0  0
    0.5330   -7.5018    3.1410 C   0  0  0  0  0  0  0  0  0  0  0  0
    0.7044   -8.2221    2.0009 O   0  0  0  0  0  0  0  0  0  0  0  0
    1.5676   -6.6705    3.6039 C   0  0  0  0  0  0  0  0  0  0  0  0
    1.3955   -6.0070    4.8179 C   0  0  0  0  0  0  0  0  0  0  0  0
    2.7475   -5.3145    5.1048 C   0  0  1  0  0  0  0  0  0  0  0  0
    3.4358   -5.4120    3.6769 C   0  0  1  0  0  0  0  0  0  0  0  0
    2.6687   -6.3177    2.8867 O   0  0  0  0  0  0  0  0  0  0  0  0
    2.5356   -4.0660    5.9950 C   0  0  1  0  0  0  0  0  0  0  0  0
    3.8780   -5.8285    6.0668 C   0  0  1  0  0  0  0  0  0  0  0  0
    4.5715   -7.0374    5.7802 O   0  0  0  0  0  0  0  0  0  0  0  0
    5.9304   -5.1395    1.1685 H   0  0  0  0  0  0  0  0  0  0  0  0
    4.7587   -5.4564   -0.1031 H   0  0  0  0  0  0  0  0  0  0  0  0
    4.6245   -6.2984    1.4014 H   0  0  0  0  0  0  0  0  0  0  0  0
    3.4701   -2.2020    1.1177 H   0  0  0  0  0  0  0  0  0  0  0  0
    5.1887   -2.4732    1.1972 H   0  0  0  0  0  0  0  0  0  0  0  0
    2.2122   -2.7123   -0.9963 H   0  0  0  0  0  0  0  0  0  0  0  0
    2.3303   -2.8739   -3.4634 H   0  0  0  0  0  0  0  0  0  0  0  0
    4.5246   -3.2301   -4.5774 H   0  0  0  0  0  0  0  0  0  0  0  0
    6.6007   -3.3837   -3.2184 H   0  0  0  0  0  0  0  0  0  0  0  0
    6.4916   -3.2212   -0.7555 H   0  0  0  0  0  0  0  0  0  0  0  0
    3.1829   -3.3747    3.2101 H   0  0  0  0  0  0  0  0  0  0  0  0
    6.1127   -3.8757    2.9024 H   0  0  0  0  0  0  0  0  0  0  0  0
    5.2988   -2.5952    3.6887 H   0  0  0  0  0  0  0  0  0  0  0  0
    6.3317   -5.2370    4.7371 H   0  0  0  0  0  0  0  0  0  0  0  0
    6.5671   -3.6318    5.3051 H   0  0  0  0  0  0  0  0  0  0  0  0
    6.1992   -5.4014    7.1790 H   0  0  0  0  0  0  0  0  0  0  0  0
    3.7693   -3.0696    7.4069 H   0  0  0  0  0  0  0  0  0  0  0  0
    2.1664   -1.0781    6.1625 H   0  0  0  0  0  0  0  0  0  0  0  0
    2.2118   -1.3229    4.4087 H   0  0  0  0  0  0  0  0  0  0  0  0
   -0.4205   -2.4426    5.6308 H   0  0  0  0  0  0  0  0  0  0  0  0
    0.0181   -4.7628    7.2864 H   0  0  0  0  0  0  0  0  0  0  0  0
   -1.3090   -4.5026    6.2334 H   0  0  0  0  0  0  0  0  0  0  0  0
   -1.9398   -6.5864    5.2654 H   0  0  0  0  0  0  0  0  0  0  0  0
   -1.4945   -8.1777    3.4396 H   0  0  0  0  0  0  0  0  0  0  0  0
    1.6039   -8.2982    1.7273 H   0  0  0  0  0  0  0  0  0  0  0  0
    4.3333   -6.0277    3.6983 H   0  0  0  0  0  0  0  0  0  0  0  0
    2.1482   -4.4103    6.9596 H   0  0  0  0  0  0  0  0  0  0  0  0
    3.4712   -6.0256    7.0577 H   0  0  0  0  0  0  0  0  0  0  0  0
    5.0214   -6.9748    4.9502 H   0  0  0  0  0  0  0  0  0  0  0  0
    3.0668   -4.4846    1.1987 H   0  0  0  0  0  0  0  0  0  0  0  0
  1  2  1  0
  1 34  1  0
  1 35  1  0
  1 36  1  0
  2  3  1  0
  2 10  1  0
  2 63  1  6
  3  4  1  0
  3 37  1  0
  3 38  1  0
  4  9  1  0
  4  5  2  0
  5  6  1  0
  5 39  1  0
  6  7  2  0
  6 40  1  0
  7  8  1  0
  7 41  1  0
  8  9  2  0
  8 42  1  0
  9 43  1  0
 10 29  1  0
 10 11  1  0
 10 44  1  6
 11 12  1  0
 11 45  1  0
 11 46  1  0
 12 13  1  0
 12 47  1  0
 12 48  1  0
 13 32  1  0
 13 14  1  1
 13 15  1  0
 14 49  1  0
 15 31  1  0
 15 16  1  0
 15 50  1  1
 16 17  1  0
 17 18  1  0
 17 51  1  0
 17 52  1  0
 18 31  1  0
 18 19  2  0
 19 20  1  0
 19 53  1  0
 20 21  1  0
 20 54  1  0
 20 55  1  0
 21 27  2  0
 21 22  1  0
 22 23  2  0
 22 56  1  0
 23 24  1  0
 23 57  1  0
 24 25  1  0
 24 26  2  0
 25 58  1  0
 26 30  1  0
 26 27  1  0
 28 27  1  6
 28 29  1  0
 28 31  1  0
 28 32  1  0
 29 30  1  0
 29 59  1  1
 31 60  1  1
 32 33  1  0
 32 61  1  1
 33 62  1  0
M  CHG  1   2   1
M  END
>  <i_m_ct_stereo_status>  (72) 
1

>  <s_m_source_file>  (72) 
/var/tmp/pbs.5076255.sched01/tmplremgrqo/0ygzoxw5b.sdf

>  <i_m_source_file_index>  (72) 
35

>  <i_lp_mmshare_version>  (72) 
48012

>  <i_f3d_flags>  (72) 
0

>  <s_epik_input>  (72) 
W2NIXTFbY0hdW2NIXVtjSF1bY0hdYzFbQ0gyXU4oW0NIM10pW0NASF0oW0NIMl1bQ0gyXVtDQF0oW09IXSkoW0NAQEhdMltPSF0pW0NAQEhdM1tDQEhdNEMoW0NIMl1PMyk9W0NIXVtDSDJdNSlbQ0BASF02T2M3YyhbT0hdKVtjSF1bY0hdYzVjN1tDQF0yNDY=

>  <s_epik_cmdline>  (72) 
J2VwaWtfcHl0aG9uJywgJy1waHQnLCAnMi4wJywgJy1waCcsICc3LjAnLCAnLXRuJywgJzgnLCAnLW1hJywgJzIwMCcsICctaW1hZScsICc8aW5maWxlLm1hZT4nLCAnLW9tYWUnLCAnPG91dGZpbGUubWFlPic=

>  <r_lp_tautomer_probability>  (72) 
1

>  <r_epik_Ionization_Penalty>  (72) 
0.160572

>  <r_epik_Ionization_Penalty_Charging>  (72) 
0.153759

>  <r_epik_Ionization_Penalty_Neutral>  (72) 
0.00681256

>  <r_epik_State_Penalty>  (72) 
0.146737

>  <r_epik_Charging_Adjusted_Penalty>  (72) 
0.300496

>  <i_epik_Tot_Q>  (72) 
1

>  <i_epik_Tot_abs_Q>  (72) 
1

>  <s_lp_Force_Field>  (72) 
OPLS3e

>  <r_lp_Energy>  (72) 
115.278

>  <b_lp_Chiralities_Consistent>  (72) 
1

>  <s_lp_Variant>  (72) 
20:0-1

>  <s_i_glide_gridfile>  (72) 
pfpi4k_grid

>  <i_i_glide_lignum>  (72) 
35

>  <i_i_glide_rotatable_bonds>  (72) 
6

>  <r_i_docking_score>  (72) 
-1.90962

>  <r_i_glide_ligand_efficiency>  (72) 
-0.0578673

>  <r_i_glide_ligand_efficiency_sa>  (72) 
-0.185611

>  <r_i_glide_ligand_efficiency_ln>  (72) 
-0.42469

>  <r_i_glide_gscore>  (72) 
-1.90962

>  <r_i_glide_lipo>  (72) 
-0.598731

>  <r_i_glide_hbond>  (72) 
0

>  <r_i_glide_metal>  (72) 
-0

>  <r_i_glide_rewards>  (72) 
-0.350926

>  <r_i_glide_evdw>  (72) 
-24.301

>  <r_i_glide_ecoul>  (72) 
-0.291037

>  <r_i_glide_erotb>  (72) 
0.29874

>  <r_i_glide_esite>  (72) 
0

>  <r_i_glide_emodel>  (72) 
-27.4208

>  <r_i_glide_energy>  (72) 
-24.592

>  <r_i_glide_einternal>  (72) 
1.06178

>  <r_i_glide_intrahb_reward>  (72) 
-0

>  <i_i_glide_confnum>  (72) 
2

>  <i_i_glide_posenum>  (72) 
1

>  <r_i_glide_eff_state_penalty>  (72) 
0

>  <ligand_id>  (72) 
20

>  <original_smiles>  (72) 
CN(Cc1ccccc1)C1CCC2(O)C3OCC4=CCc5ccc(O)c6c5C(C1O6)(C43)C2O

>  <smiles>  (72) 
[H]Oc1c([H])c([H])c2c3c1OC1([H])C34C([H])(O[H])C(O[H])(C([H])([H])C([H])([H])C1([H])[N+]([H])(C([H])([H])[H])C([H])([H])c1c([H])c([H])c([H])c([H])c1[H])C1([H])OC([H])([H])C(=C([H])C2([H])[H])C14[H]

$$$$
20:1:0
     RDKit          3D

 62 68  0  0  1  0  0  0  0  0999 V2000
    5.1412   -4.3590    4.5604 C   0  0  0  0  0  0  0  0  0  0  0  0
    4.7853   -5.1142    3.3538 N   0  0  0  0  0  0  0  0  0  0  0  0
    5.3928   -4.6329    2.0918 C   0  0  0  0  0  0  0  0  0  0  0  0
    4.9922   -3.2245    1.6491 C   0  0  0  0  0  0  0  0  0  0  0  0
    4.1859   -3.0338    0.4976 C   0  0  0  0  0  0  0  0  0  0  0  0
    3.7335   -1.7325    0.1499 C   0  0  0  0  0  0  0  0  0  0  0  0
    4.0519   -0.6274    0.9745 C   0  0  0  0  0  0  0  0  0  0  0  0
    4.8681   -0.8206    2.1062 C   0  0  0  0  0  0  0  0  0  0  0  0
    5.3840   -2.0908    2.3972 C   0  0  0  0  0  0  0  0  0  0  0  0
    4.9385   -6.5516    3.6450 C   0  0  2  0  0  0  0  0  0  0  0  0
    6.4235   -7.0236    3.7492 C   0  0  0  0  0  0  0  0  0  0  0  0
    6.7776   -8.4771    3.2775 C   0  0  0  0  0  0  0  0  0  0  0  0
    5.8260   -9.6816    3.5995 C   0  0  1  0  0  0  0  0  0  0  0  0
    6.6213  -10.8472    3.4883 O   0  0  0  0  0  0  0  0  0  0  0  0
    5.2330   -9.6570    5.0280 C   0  0  1  0  0  0  0  0  0  0  0  0
    5.5377   -8.6093    5.9616 O   0  0  0  0  0  0  0  0  0  0  0  0
    4.3508   -8.3471    6.7392 C   0  0  0  0  0  0  0  0  0  0  0  0
    3.2025   -8.7939    5.8724 C   0  0  0  0  0  0  0  0  0  0  0  0
    1.8961   -8.9587    6.0940 C   0  0  0  0  0  0  0  0  0  0  0  0
    1.0327   -9.7296    5.1018 C   0  0  0  0  0  0  0  0  0  0  0  0
    0.9116   -9.1409    3.6955 C   0  0  0  0  0  0  0  0  0  0  0  0
   -0.3533   -8.8004    3.1537 C   0  0  0  0  0  0  0  0  0  0  0  0
   -0.4515   -7.8925    2.0760 C   0  0  0  0  0  0  0  0  0  0  0  0
    0.6977   -7.2440    1.5933 C   0  0  0  0  0  0  0  0  0  0  0  0
    0.6232   -6.2606    0.6262 O   0  0  0  0  0  0  0  0  0  0  0  0
    1.9684   -7.5574    2.1161 C   0  0  0  0  0  0  0  0  0  0  0  0
    2.0635   -8.6251    3.0197 C   0  0  0  0  0  0  0  0  0  0  0  0
    3.5835   -8.8133    3.2913 C   0  0  1  0  0  0  0  0  0  0  0  0
    4.1470   -7.4558    2.6997 C   0  0  1  0  0  0  0  0  0  0  0  0
    3.0957   -6.8661    1.9168 O   0  0  0  0  0  0  0  0  0  0  0  0
    3.7987   -9.4266    4.7039 C   0  0  1  0  0  0  0  0  0  0  0  0
    4.5510   -9.8809    2.6759 C   0  0  1  0  0  0  0  0  0  0  0  0
    4.8256   -9.8544    1.2858 O   0  0  0  0  0  0  0  0  0  0  0  0
    4.7193   -4.8132    5.4607 H   0  0  0  0  0  0  0  0  0  0  0  0
    4.7780   -3.3233    4.4916 H   0  0  0  0  0  0  0  0  0  0  0  0
    6.2215   -4.3411    4.6772 H   0  0  0  0  0  0  0  0  0  0  0  0
    6.4794   -4.6546    2.1410 H   0  0  0  0  0  0  0  0  0  0  0  0
    5.1278   -5.3204    1.2841 H   0  0  0  0  0  0  0  0  0  0  0  0
    3.9091   -3.8826   -0.1152 H   0  0  0  0  0  0  0  0  0  0  0  0
    3.1411   -1.5911   -0.7374 H   0  0  0  0  0  0  0  0  0  0  0  0
    3.6759    0.3564    0.7396 H   0  0  0  0  0  0  0  0  0  0  0  0
    5.0770    0.0021    2.7741 H   0  0  0  0  0  0  0  0  0  0  0  0
    6.0629   -2.1943    3.2429 H   0  0  0  0  0  0  0  0  0  0  0  0
    4.4646   -6.6972    4.6146 H   0  0  0  0  0  0  0  0  0  0  0  0
    7.0845   -6.3681    3.1842 H   0  0  0  0  0  0  0  0  0  0  0  0
    6.7482   -6.8794    4.7826 H   0  0  0  0  0  0  0  0  0  0  0  0
    6.9821   -8.4473    2.2015 H   0  0  0  0  0  0  0  0  0  0  0  0
    7.7524   -8.6704    3.7270 H   0  0  0  0  0  0  0  0  0  0  0  0
    7.3428  -10.7649    4.0791 H   0  0  0  0  0  0  0  0  0  0  0  0
    5.3492  -10.6203    5.5267 H   0  0  0  0  0  0  0  0  0  0  0  0
    4.3583   -8.9660    7.6384 H   0  0  0  0  0  0  0  0  0  0  0  0
    4.2541   -7.2992    7.0452 H   0  0  0  0  0  0  0  0  0  0  0  0
    1.4771   -8.7128    7.0564 H   0  0  0  0  0  0  0  0  0  0  0  0
    1.2628  -10.7984    5.0972 H   0  0  0  0  0  0  0  0  0  0  0  0
    0.0388   -9.6826    5.5399 H   0  0  0  0  0  0  0  0  0  0  0  0
   -1.2731   -9.1664    3.6185 H   0  0  0  0  0  0  0  0  0  0  0  0
   -1.4114   -7.6445    1.6844 H   0  0  0  0  0  0  0  0  0  0  0  0
    1.4891   -6.0181    0.3709 H   0  0  0  0  0  0  0  0  0  0  0  0
    4.8313   -7.6028    1.8655 H   0  0  0  0  0  0  0  0  0  0  0  0
    3.3820  -10.4344    4.7035 H   0  0  0  0  0  0  0  0  0  0  0  0
    4.1513  -10.8794    2.8099 H   0  0  0  0  0  0  0  0  0  0  0  0
    4.6044  -10.7174    0.9340 H   0  0  0  0  0  0  0  0  0  0  0  0
  1  2  1  0
  1 34  1  0
  1 35  1  0
  1 36  1  0
  2  3  1  0
  2 10  1  0
  3  4  1  0
  3 37  1  0
  3 38  1  0
  4  9  1  0
  4  5  2  0
  5  6  1  0
  5 39  1  0
  6  7  2  0
  6 40  1  0
  7  8  1  0
  7 41  1  0
  8  9  2  0
  8 42  1  0
  9 43  1  0
 10 29  1  0
 10 11  1  0
 10 44  1  1
 11 12  1  0
 11 45  1  0
 11 46  1  0
 12 13  1  0
 12 47  1  0
 12 48  1  0
 13 32  1  0
 13 14  1  1
 13 15  1  0
 14 49  1  0
 15 31  1  0
 15 16  1  0
 15 50  1  1
 16 17  1  0
 17 18  1  0
 17 51  1  0
 17 52  1  0
 18 31  1  0
 18 19  2  0
 19 20  1  0
 19 53  1  0
 20 21  1  0
 20 54  1  0
 20 55  1  0
 21 27  2  0
 21 22  1  0
 22 23  2  0
 22 56  1  0
 23 24  1  0
 23 57  1  0
 24 25  1  0
 24 26  2  0
 25 58  1  0
 26 30  1  0
 26 27  1  0
 28 27  1  6
 28 29  1  0
 28 31  1  0
 28 32  1  0
 29 30  1  0
 29 59  1  6
 31 60  1  6
 32 33  1  0
 32 61  1  1
 33 62  1  0
M  END
>  <i_m_ct_stereo_status>  (73) 
1

>  <s_m_source_file>  (73) 
/var/tmp/pbs.5076255.sched01/tmplremgrqo/0ygzoxw5b.sdf

>  <i_m_source_file_index>  (73) 
36

>  <i_lp_mmshare_version>  (73) 
48012

>  <i_f3d_flags>  (73) 
0

>  <s_epik_input>  (73) 
W2NIXTFbY0hdW2NIXVtjSF1bY0hdYzFbQ0gyXU4oW0NIM10pW0NASF0oW0NIMl1bQ0gyXVtDQF0oW09IXSkoW0NAQEhdMltPSF0pW0NAQEhdM1tDQEhdNEMoW0NIMl1PMyk9W0NIXVtDSDJdNSlbQ0BASF02T2M3YyhbT0hdKVtjSF1bY0hdYzVjN1tDQF0yNDY=

>  <s_epik_cmdline>  (73) 
J2VwaWtfcHl0aG9uJywgJy1waHQnLCAnMi4wJywgJy1waCcsICc3LjAnLCAnLXRuJywgJzgnLCAnLW1hJywgJzIwMCcsICctaW1hZScsICc8aW5maWxlLm1hZT4nLCAnLW9tYWUnLCAnPG91dGZpbGUubWFlPic=

>  <r_lp_tautomer_probability>  (73) 
1

>  <r_epik_Ionization_Penalty>  (73) 
0.881555

>  <r_epik_Ionization_Penalty_Charging>  (73) 
0

>  <r_epik_Ionization_Penalty_Neutral>  (73) 
0.881555

>  <r_epik_State_Penalty>  (73) 
0.922581

>  <r_epik_Charging_Adjusted_Penalty>  (73) 
0.922581

>  <i_epik_Tot_Q>  (73) 
0

>  <i_epik_Tot_abs_Q>  (73) 
0

>  <s_lp_Force_Field>  (73) 
OPLS3e

>  <r_lp_Energy>  (73) 
123.879

>  <b_lp_Chiralities_Consistent>  (73) 
1

>  <s_lp_Variant>  (73) 
20:0-2

>  <s_i_glide_gridfile>  (73) 
pfpi4k_grid

>  <i_i_glide_lignum>  (73) 
36

>  <i_i_glide_rotatable_bonds>  (73) 
6

>  <r_i_docking_score>  (73) 
-2.91027

>  <r_i_glide_ligand_efficiency>  (73) 
-0.0881899

>  <r_i_glide_ligand_efficiency_sa>  (73) 
-0.282872

>  <r_i_glide_ligand_efficiency_ln>  (73) 
-0.647229

>  <r_i_glide_gscore>  (73) 
-2.91027

>  <r_i_glide_lipo>  (73) 
-0.330138

>  <r_i_glide_hbond>  (73) 
0

>  <r_i_glide_metal>  (73) 
-0

>  <r_i_glide_rewards>  (73) 
-0.357799

>  <r_i_glide_evdw>  (73) 
-23.6016

>  <r_i_glide_ecoul>  (73) 
-8.94812

>  <r_i_glide_erotb>  (73) 
0.299964

>  <r_i_glide_esite>  (73) 
0

>  <r_i_glide_emodel>  (73) 
-37.5344

>  <r_i_glide_energy>  (73) 
-32.5497

>  <r_i_glide_einternal>  (73) 
2.01072

>  <r_i_glide_intrahb_reward>  (73) 
-0

>  <i_i_glide_confnum>  (73) 
3

>  <i_i_glide_posenum>  (73) 
9

>  <r_i_glide_eff_state_penalty>  (73) 
0

>  <ligand_id>  (73) 
20

>  <original_smiles>  (73) 
CN(Cc1ccccc1)C1CCC2(O)C3OCC4=CCc5ccc(O)c6c5C(C1O6)(C43)C2O

>  <smiles>  (73) 
[H]Oc1c([H])c([H])c2c3c1OC1([H])C([H])(N(C([H])([H])[H])C([H])([H])c4c([H])c([H])c([H])c([H])c4[H])C([H])([H])C([H])([H])C4(O[H])C5([H])OC([H])([H])C(=C([H])C2([H])[H])C5([H])C31C4([H])O[H]

$$$$
20:1:1
     RDKit          3D

 62 68  0  0  1  0  0  0  0  0999 V2000
    2.5059   -4.6856    1.7644 C   0  0  0  0  0  0  0  0  0  0  0  0
    3.0555   -5.6949    0.8459 N   0  0  0  0  0  0  0  0  0  0  0  0
    3.7129   -4.9920   -0.2741 C   0  0  0  0  0  0  0  0  0  0  0  0
    4.7580   -3.9574    0.1109 C   0  0  0  0  0  0  0  0  0  0  0  0
    4.3886   -2.5991    0.1398 C   0  0  0  0  0  0  0  0  0  0  0  0
    5.3224   -1.6190    0.5328 C   0  0  0  0  0  0  0  0  0  0  0  0
    6.6294   -2.0083    0.8970 C   0  0  0  0  0  0  0  0  0  0  0  0
    6.9985   -3.3649    0.8620 C   0  0  0  0  0  0  0  0  0  0  0  0
    6.0727   -4.3229    0.4500 C   0  0  0  0  0  0  0  0  0  0  0  0
    3.8366   -6.7287    1.5610 C   0  0  2  0  0  0  0  0  0  0  0  0
    4.7101   -7.6130    0.6099 C   0  0  0  0  0  0  0  0  0  0  0  0
    4.9488   -9.1099    0.8808 C   0  0  0  0  0  0  0  0  0  0  0  0
    5.1485   -9.6466    2.3156 C   0  0  1  0  0  0  0  0  0  0  0  0
    5.7729  -10.9069    2.1451 O   0  0  0  0  0  0  0  0  0  0  0  0
    6.0465   -8.7406    3.1992 C   0  0  1  0  0  0  0  0  0  0  0  0
    6.6229   -7.4997    2.7580 O   0  0  0  0  0  0  0  0  0  0  0  0
    6.6145   -6.5452    3.8450 C   0  0  0  0  0  0  0  0  0  0  0  0
    5.4831   -6.9932    4.7298 C   0  0  0  0  0  0  0  0  0  0  0  0
    5.1058   -6.6318    5.9582 C   0  0  0  0  0  0  0  0  0  0  0  0
    4.1009   -7.4795    6.7356 C   0  0  0  0  0  0  0  0  0  0  0  0
    2.6942   -7.6409    6.1264 C   0  0  0  0  0  0  0  0  0  0  0  0
    1.5360   -7.2559    6.8261 C   0  0  0  0  0  0  0  0  0  0  0  0
    0.3269   -7.0168    6.1456 C   0  0  0  0  0  0  0  0  0  0  0  0
    0.2900   -7.0699    4.7356 C   0  0  0  0  0  0  0  0  0  0  0  0
   -0.8425   -6.6939    4.0727 O   0  0  0  0  0  0  0  0  0  0  0  0
    1.4136   -7.4797    4.0239 C   0  0  0  0  0  0  0  0  0  0  0  0
    2.5465   -7.9089    4.7277 C   0  0  0  0  0  0  0  0  0  0  0  0
    3.5680   -8.3643    3.6561 C   0  0  1  0  0  0  0  0  0  0  0  0
    2.9358   -7.6883    2.3603 C   0  0  1  0  0  0  0  0  0  0  0  0
    1.5884   -7.3453    2.6592 O   0  0  0  0  0  0  0  0  0  0  0  0
    5.0219   -8.2567    4.1834 C   0  0  1  0  0  0  0  0  0  0  0  0
    3.8343   -9.8378    3.1847 C   0  0  1  0  0  0  0  0  0  0  0  0
    2.8092  -10.5177    2.4784 O   0  0  0  0  0  0  0  0  0  0  0  0
    1.9118   -5.0684    2.5959 H   0  0  0  0  0  0  0  0  0  0  0  0
    1.8777   -3.9712    1.2250 H   0  0  0  0  0  0  0  0  0  0  0  0
    3.3176   -4.1188    2.2235 H   0  0  0  0  0  0  0  0  0  0  0  0
    4.2235   -5.6400   -0.9765 H   0  0  0  0  0  0  0  0  0  0  0  0
    2.9251   -4.5093   -0.8557 H   0  0  0  0  0  0  0  0  0  0  0  0
    3.3770   -2.3086   -0.1340 H   0  0  0  0  0  0  0  0  0  0  0  0
    5.0242   -0.5749    0.5712 H   0  0  0  0  0  0  0  0  0  0  0  0
    7.3479   -1.2666    1.2314 H   0  0  0  0  0  0  0  0  0  0  0  0
    7.9889   -3.6874    1.1579 H   0  0  0  0  0  0  0  0  0  0  0  0
    6.4211   -5.3514    0.4124 H   0  0  0  0  0  0  0  0  0  0  0  0
    4.4688   -6.1956    2.2605 H   0  0  0  0  0  0  0  0  0  0  0  0
    4.3053   -7.6244   -0.4030 H   0  0  0  0  0  0  0  0  0  0  0  0
    5.7079   -7.1915    0.5625 H   0  0  0  0  0  0  0  0  0  0  0  0
    4.1880   -9.6901    0.3600 H   0  0  0  0  0  0  0  0  0  0  0  0
    5.8790   -9.3123    0.3645 H   0  0  0  0  0  0  0  0  0  0  0  0
    5.2576  -11.3998    1.5088 H   0  0  0  0  0  0  0  0  0  0  0  0
    6.8113   -9.3081    3.7331 H   0  0  0  0  0  0  0  0  0  0  0  0
    7.5521   -6.6231    4.3979 H   0  0  0  0  0  0  0  0  0  0  0  0
    6.5014   -5.5120    3.5095 H   0  0  0  0  0  0  0  0  0  0  0  0
    5.5937   -5.8227    6.4704 H   0  0  0  0  0  0  0  0  0  0  0  0
    4.5218   -8.4320    7.0400 H   0  0  0  0  0  0  0  0  0  0  0  0
    3.9591   -6.9365    7.6607 H   0  0  0  0  0  0  0  0  0  0  0  0
    1.5829   -7.0527    7.8824 H   0  0  0  0  0  0  0  0  0  0  0  0
   -0.5366   -6.6784    6.6991 H   0  0  0  0  0  0  0  0  0  0  0  0
   -1.5885   -6.6208    4.6548 H   0  0  0  0  0  0  0  0  0  0  0  0
    2.6476   -8.4049    1.5914 H   0  0  0  0  0  0  0  0  0  0  0  0
    5.1233   -8.9604    5.0136 H   0  0  0  0  0  0  0  0  0  0  0  0
    4.0687  -10.4941    4.0328 H   0  0  0  0  0  0  0  0  0  0  0  0
    3.2241  -11.1979    1.9569 H   0  0  0  0  0  0  0  0  0  0  0  0
  1  2  1  0
  1 34  1  0
  1 35  1  0
  1 36  1  0
  2  3  1  0
  2 10  1  0
  3  4  1  0
  3 37  1  0
  3 38  1  0
  4  9  1  0
  4  5  2  0
  5  6  1  0
  5 39  1  0
  6  7  2  0
  6 40  1  0
  7  8  1  0
  7 41  1  0
  8  9  2  0
  8 42  1  0
  9 43  1  0
 10 29  1  0
 10 11  1  0
 10 44  1  1
 11 12  1  0
 11 45  1  0
 11 46  1  0
 12 13  1  0
 12 47  1  0
 12 48  1  0
 13 32  1  0
 13 14  1  6
 13 15  1  0
 14 49  1  0
 15 31  1  0
 15 16  1  0
 15 50  1  1
 16 17  1  0
 17 18  1  0
 17 51  1  0
 17 52  1  0
 18 31  1  0
 18 19  2  0
 19 20  1  0
 19 53  1  0
 20 21  1  0
 20 54  1  0
 20 55  1  0
 21 27  2  0
 21 22  1  0
 22 23  2  0
 22 56  1  0
 23 24  1  0
 23 57  1  0
 24 25  1  0
 24 26  2  0
 25 58  1  0
 26 30  1  0
 26 27  1  0
 28 27  1  1
 28 29  1  0
 28 31  1  0
 28 32  1  0
 29 30  1  0
 29 59  1  6
 31 60  1  1
 32 33  1  0
 32 61  1  1
 33 62  1  0
M  END
>  <i_m_ct_stereo_status>  (74) 
1

>  <s_m_source_file>  (74) 
/var/tmp/pbs.5076255.sched01/tmplremgrqo/0ygzoxw5b.sdf

>  <i_m_source_file_index>  (74) 
36

>  <i_lp_mmshare_version>  (74) 
48012

>  <i_f3d_flags>  (74) 
0

>  <s_epik_input>  (74) 
W2NIXTFbY0hdW2NIXVtjSF1bY0hdYzFbQ0gyXU4oW0NIM10pW0NASF0oW0NIMl1bQ0gyXVtDQF0oW09IXSkoW0NAQEhdMltPSF0pW0NAQEhdM1tDQEhdNEMoW0NIMl1PMyk9W0NIXVtDSDJdNSlbQ0BASF02T2M3YyhbT0hdKVtjSF1bY0hdYzVjN1tDQF0yNDY=

>  <s_epik_cmdline>  (74) 
J2VwaWtfcHl0aG9uJywgJy1waHQnLCAnMi4wJywgJy1waCcsICc3LjAnLCAnLXRuJywgJzgnLCAnLW1hJywgJzIwMCcsICctaW1hZScsICc8aW5maWxlLm1hZT4nLCAnLW9tYWUnLCAnPG91dGZpbGUubWFlPic=

>  <r_lp_tautomer_probability>  (74) 
1

>  <r_epik_Ionization_Penalty>  (74) 
0.881555

>  <r_epik_Ionization_Penalty_Charging>  (74) 
0

>  <r_epik_Ionization_Penalty_Neutral>  (74) 
0.881555

>  <r_epik_State_Penalty>  (74) 
0.922581

>  <r_epik_Charging_Adjusted_Penalty>  (74) 
0.922581

>  <i_epik_Tot_Q>  (74) 
0

>  <i_epik_Tot_abs_Q>  (74) 
0

>  <s_lp_Force_Field>  (74) 
OPLS3e

>  <r_lp_Energy>  (74) 
123.879

>  <b_lp_Chiralities_Consistent>  (74) 
1

>  <s_lp_Variant>  (74) 
20:0-2

>  <s_i_glide_gridfile>  (74) 
pfpi4k_grid

>  <i_i_glide_lignum>  (74) 
36

>  <i_i_glide_rotatable_bonds>  (74) 
6

>  <r_i_docking_score>  (74) 
-2.66023

>  <r_i_glide_ligand_efficiency>  (74) 
-0.0806131

>  <r_i_glide_ligand_efficiency_sa>  (74) 
-0.258569

>  <r_i_glide_ligand_efficiency_ln>  (74) 
-0.591622

>  <r_i_glide_gscore>  (74) 
-2.66023

>  <r_i_glide_lipo>  (74) 
-0.456735

>  <r_i_glide_hbond>  (74) 
0

>  <r_i_glide_metal>  (74) 
-0

>  <r_i_glide_rewards>  (74) 
-0.357799

>  <r_i_glide_evdw>  (74) 
-22.5633

>  <r_i_glide_ecoul>  (74) 
-6.78331

>  <r_i_glide_erotb>  (74) 
0.299964

>  <r_i_glide_esite>  (74) 
0

>  <r_i_glide_emodel>  (74) 
-30.9838

>  <r_i_glide_energy>  (74) 
-29.3467

>  <r_i_glide_einternal>  (74) 
7.67102

>  <r_i_glide_intrahb_reward>  (74) 
-0

>  <i_i_glide_confnum>  (74) 
5

>  <i_i_glide_posenum>  (74) 
7

>  <r_i_glide_eff_state_penalty>  (74) 
0

>  <ligand_id>  (74) 
20

>  <original_smiles>  (74) 
CN(Cc1ccccc1)C1CCC2(O)C3OCC4=CCc5ccc(O)c6c5C(C1O6)(C43)C2O

>  <smiles>  (74) 
[H]Oc1c([H])c([H])c2c3c1OC1([H])C([H])(N(C([H])([H])[H])C([H])([H])c4c([H])c([H])c([H])c([H])c4[H])C([H])([H])C([H])([H])C4(O[H])C5([H])OC([H])([H])C(=C([H])C2([H])[H])C5([H])C31C4([H])O[H]

$$$$
20:1:2
     RDKit          3D

 62 68  0  0  1  0  0  0  0  0999 V2000
    3.0258   -1.2262    1.9757 C   0  0  0  0  0  0  0  0  0  0  0  0
    3.1995   -2.6735    1.8755 N   0  0  0  0  0  0  0  0  0  0  0  0
    4.2055   -3.0232    0.8636 C   0  0  0  0  0  0  0  0  0  0  0  0
    3.8192   -2.6296   -0.5526 C   0  0  0  0  0  0  0  0  0  0  0  0
    4.3058   -1.4369   -1.1270 C   0  0  0  0  0  0  0  0  0  0  0  0
    3.9168   -1.0579   -2.4321 C   0  0  0  0  0  0  0  0  0  0  0  0
    3.0321   -1.8710   -3.1667 C   0  0  0  0  0  0  0  0  0  0  0  0
    2.5331   -3.0535   -2.5895 C   0  0  0  0  0  0  0  0  0  0  0  0
    2.9230   -3.4356   -1.2864 C   0  0  0  0  0  0  0  0  0  0  0  0
    3.3915   -3.2647    3.2135 C   0  0  2  0  0  0  0  0  0  0  0  0
    4.7547   -2.9161    3.8797 C   0  0  0  0  0  0  0  0  0  0  0  0
    5.4491   -3.9917    4.7718 C   0  0  0  0  0  0  0  0  0  0  0  0
    4.6288   -4.8875    5.7533 C   0  0  1  0  0  0  0  0  0  0  0  0
    5.5330   -5.3881    6.7131 O   0  0  0  0  0  0  0  0  0  0  0  0
    3.5315   -4.1240    6.5212 C   0  0  1  0  0  0  0  0  0  0  0  0
    3.2658   -2.7291    6.3215 O   0  0  0  0  0  0  0  0  0  0  0  0
    1.8423   -2.4986    6.4022 C   0  0  0  0  0  0  0  0  0  0  0  0
    1.2197   -3.8109    6.0191 C   0  0  0  0  0  0  0  0  0  0  0  0
   -0.0346   -4.2655    6.1073 C   0  0  0  0  0  0  0  0  0  0  0  0
   -0.3260   -5.7552    5.9588 C   0  0  0  0  0  0  0  0  0  0  0  0
    0.0432   -6.4280    4.6257 C   0  0  0  0  0  0  0  0  0  0  0  0
   -0.9119   -7.0927    3.8277 C   0  0  0  0  0  0  0  0  0  0  0  0
   -0.6715   -7.3262    2.4525 C   0  0  0  0  0  0  0  0  0  0  0  0
    0.4803   -6.7584    1.8519 C   0  0  0  0  0  0  0  0  0  0  0  0
    0.6101   -6.7605    0.4874 O   0  0  0  0  0  0  0  0  0  0  0  0
    1.4459   -6.1291    2.6161 C   0  0  0  0  0  0  0  0  0  0  0  0
    1.2986   -6.1220    4.0019 C   0  0  0  0  0  0  0  0  0  0  0  0
    2.5746   -5.4278    4.5468 C   0  0  1  0  0  0  0  0  0  0  0  0
    3.1583   -4.7772    3.2102 C   0  0  1  0  0  0  0  0  0  0  0  0
    2.4571   -5.3348    2.1044 O   0  0  0  0  0  0  0  0  0  0  0  0
    2.3146   -4.7629    5.9243 C   0  0  1  0  0  0  0  0  0  0  0  0
    3.8478   -6.1344    5.1369 C   0  0  1  0  0  0  0  0  0  0  0  0
    4.6669   -6.9270    4.2920 O   0  0  0  0  0  0  0  0  0  0  0  0
    2.2196   -0.9776    2.6692 H   0  0  0  0  0  0  0  0  0  0  0  0
    2.7374   -0.7933    1.0148 H   0  0  0  0  0  0  0  0  0  0  0  0
    3.9378   -0.7260    2.3112 H   0  0  0  0  0  0  0  0  0  0  0  0
    5.1640   -2.5617    1.0824 H   0  0  0  0  0  0  0  0  0  0  0  0
    4.3621   -4.0980    0.8572 H   0  0  0  0  0  0  0  0  0  0  0  0
    4.9545   -0.7869   -0.5556 H   0  0  0  0  0  0  0  0  0  0  0  0
    4.2636   -0.1255   -2.8499 H   0  0  0  0  0  0  0  0  0  0  0  0
    2.7085   -1.5796   -4.1559 H   0  0  0  0  0  0  0  0  0  0  0  0
    1.8443   -3.6833   -3.1376 H   0  0  0  0  0  0  0  0  0  0  0  0
    2.5356   -4.3425   -0.8473 H   0  0  0  0  0  0  0  0  0  0  0  0
    2.5871   -2.8619    3.8220 H   0  0  0  0  0  0  0  0  0  0  0  0
    5.4996   -2.6463    3.1371 H   0  0  0  0  0  0  0  0  0  0  0  0
    4.6217   -1.9970    4.4470 H   0  0  0  0  0  0  0  0  0  0  0  0
    6.0579   -4.6411    4.1422 H   0  0  0  0  0  0  0  0  0  0  0  0
    6.1791   -3.4365    5.3591 H   0  0  0  0  0  0  0  0  0  0  0  0
    5.9746   -4.6484    7.1107 H   0  0  0  0  0  0  0  0  0  0  0  0
    3.5325   -4.3361    7.5907 H   0  0  0  0  0  0  0  0  0  0  0  0
    1.5802   -2.2515    7.4336 H   0  0  0  0  0  0  0  0  0  0  0  0
    1.5096   -1.6851    5.7572 H   0  0  0  0  0  0  0  0  0  0  0  0
   -0.8418   -3.6208    6.4125 H   0  0  0  0  0  0  0  0  0  0  0  0
    0.0266   -6.3341    6.8060 H   0  0  0  0  0  0  0  0  0  0  0  0
   -1.4054   -5.8254    6.0203 H   0  0  0  0  0  0  0  0  0  0  0  0
   -1.8723   -7.3456    4.2352 H   0  0  0  0  0  0  0  0  0  0  0  0
   -1.4160   -7.8203    1.8495 H   0  0  0  0  0  0  0  0  0  0  0  0
    1.5203   -6.6565    0.2473 H   0  0  0  0  0  0  0  0  0  0  0  0
    4.1320   -5.1702    2.9167 H   0  0  0  0  0  0  0  0  0  0  0  0
    2.0589   -5.5572    6.6295 H   0  0  0  0  0  0  0  0  0  0  0  0
    3.5761   -6.8285    5.9389 H   0  0  0  0  0  0  0  0  0  0  0  0
    5.3360   -7.3192    4.8401 H   0  0  0  0  0  0  0  0  0  0  0  0
  1  2  1  0
  1 34  1  0
  1 35  1  0
  1 36  1  0
  2  3  1  0
  2 10  1  0
  3  4  1  0
  3 37  1  0
  3 38  1  0
  4  9  1  0
  4  5  2  0
  5  6  1  0
  5 39  1  0
  6  7  2  0
  6 40  1  0
  7  8  1  0
  7 41  1  0
  8  9  2  0
  8 42  1  0
  9 43  1  0
 10 29  1  0
 10 11  1  0
 10 44  1  1
 11 12  1  0
 11 45  1  0
 11 46  1  0
 12 13  1  0
 12 47  1  0
 12 48  1  0
 13 32  1  0
 13 14  1  1
 13 15  1  0
 14 49  1  0
 15 31  1  0
 15 16  1  0
 15 50  1  1
 16 17  1  0
 17 18  1  0
 17 51  1  0
 17 52  1  0
 18 31  1  0
 18 19  2  0
 19 20  1  0
 19 53  1  0
 20 21  1  0
 20 54  1  0
 20 55  1  0
 21 27  2  0
 21 22  1  0
 22 23  2  0
 22 56  1  0
 23 24  1  0
 23 57  1  0
 24 25  1  0
 24 26  2  0
 25 58  1  0
 26 30  1  0
 26 27  1  0
 28 27  1  6
 28 29  1  0
 28 31  1  0
 28 32  1  0
 29 30  1  0
 29 59  1  6
 31 60  1  1
 32 33  1  0
 32 61  1  1
 33 62  1  0
M  END
>  <i_m_ct_stereo_status>  (75) 
1

>  <s_m_source_file>  (75) 
/var/tmp/pbs.5076255.sched01/tmplremgrqo/0ygzoxw5b.sdf

>  <i_m_source_file_index>  (75) 
36

>  <i_lp_mmshare_version>  (75) 
48012

>  <i_f3d_flags>  (75) 
0

>  <s_epik_input>  (75) 
W2NIXTFbY0hdW2NIXVtjSF1bY0hdYzFbQ0gyXU4oW0NIM10pW0NASF0oW0NIMl1bQ0gyXVtDQF0oW09IXSkoW0NAQEhdMltPSF0pW0NAQEhdM1tDQEhdNEMoW0NIMl1PMyk9W0NIXVtDSDJdNSlbQ0BASF02T2M3YyhbT0hdKVtjSF1bY0hdYzVjN1tDQF0yNDY=

>  <s_epik_cmdline>  (75) 
J2VwaWtfcHl0aG9uJywgJy1waHQnLCAnMi4wJywgJy1waCcsICc3LjAnLCAnLXRuJywgJzgnLCAnLW1hJywgJzIwMCcsICctaW1hZScsICc8aW5maWxlLm1hZT4nLCAnLW9tYWUnLCAnPG91dGZpbGUubWFlPic=

>  <r_lp_tautomer_probability>  (75) 
1

>  <r_epik_Ionization_Penalty>  (75) 
0.881555

>  <r_epik_Ionization_Penalty_Charging>  (75) 
0

>  <r_epik_Ionization_Penalty_Neutral>  (75) 
0.881555

>  <r_epik_State_Penalty>  (75) 
0.922581

>  <r_epik_Charging_Adjusted_Penalty>  (75) 
0.922581

>  <i_epik_Tot_Q>  (75) 
0

>  <i_epik_Tot_abs_Q>  (75) 
0

>  <s_lp_Force_Field>  (75) 
OPLS3e

>  <r_lp_Energy>  (75) 
123.879

>  <b_lp_Chiralities_Consistent>  (75) 
1

>  <s_lp_Variant>  (75) 
20:0-2

>  <s_i_glide_gridfile>  (75) 
pfpi4k_grid

>  <i_i_glide_lignum>  (75) 
36

>  <i_i_glide_rotatable_bonds>  (75) 
6

>  <r_i_docking_score>  (75) 
-1.69498

>  <r_i_glide_ligand_efficiency>  (75) 
-0.0513629

>  <r_i_glide_ligand_efficiency_sa>  (75) 
-0.164748

>  <r_i_glide_ligand_efficiency_ln>  (75) 
-0.376954

>  <r_i_glide_gscore>  (75) 
-1.69498

>  <r_i_glide_lipo>  (75) 
-0.200045

>  <r_i_glide_hbond>  (75) 
0

>  <r_i_glide_metal>  (75) 
-0

>  <r_i_glide_rewards>  (75) 
-0.357799

>  <r_i_glide_evdw>  (75) 
-27.8289

>  <r_i_glide_ecoul>  (75) 
-0.304347

>  <r_i_glide_erotb>  (75) 
0.299964

>  <r_i_glide_esite>  (75) 
0

>  <r_i_glide_emodel>  (75) 
-31.0753

>  <r_i_glide_energy>  (75) 
-28.1333

>  <r_i_glide_einternal>  (75) 
0.999464

>  <r_i_glide_intrahb_reward>  (75) 
-0

>  <i_i_glide_confnum>  (75) 
1

>  <i_i_glide_posenum>  (75) 
19

>  <r_i_glide_eff_state_penalty>  (75) 
0

>  <ligand_id>  (75) 
20

>  <original_smiles>  (75) 
CN(Cc1ccccc1)C1CCC2(O)C3OCC4=CCc5ccc(O)c6c5C(C1O6)(C43)C2O

>  <smiles>  (75) 
[H]Oc1c([H])c([H])c2c3c1OC1([H])C([H])(N(C([H])([H])[H])C([H])([H])c4c([H])c([H])c([H])c([H])c4[H])C([H])([H])C([H])([H])C4(O[H])C5([H])OC([H])([H])C(=C([H])C2([H])[H])C5([H])C31C4([H])O[H]

$$$$
21:0:0
     RDKit          3D

 73 78  0  0  1  0  0  0  0  0999 V2000
    4.2314   -0.9915    5.3252 C   0  0  0  0  0  0  0  0  0  0  0  0
    3.8152   -2.2455    5.0960 C   0  0  0  0  0  0  0  0  0  0  0  0
    3.2512   -3.0908    6.1483 C   0  0  0  0  0  0  0  0  0  0  0  0
    3.0680   -2.7607    7.3255 O   0  0  0  0  0  0  0  0  0  0  0  0
    2.9560   -4.3936    5.5754 C   0  0  0  0  0  0  0  0  0  0  0  0
    3.2724   -4.4073    4.2741 C   0  0  0  0  0  0  0  0  0  0  0  0
    3.8302   -3.0599    3.7888 C   0  0  1  0  0  0  0  0  0  0  0  0
    3.0414   -2.3526    2.6485 C   0  0  1  0  0  0  0  0  0  0  0  0
    3.8788   -1.1979    1.9916 C   0  0  0  0  0  0  0  0  0  0  0  0
    4.2123   -1.4440    0.5409 C   0  0  2  0  0  0  0  0  0  0  0  0
    4.9091   -2.7771    0.3784 C   0  0  1  0  0  0  0  0  0  0  0  0
    3.9495   -3.7868   -0.2014 C   0  0  1  0  0  0  0  0  0  0  0  0
    4.6256   -4.6513   -1.1018 O   0  0  0  0  0  0  0  0  0  0  0  0
    3.0688   -4.4693    0.9200 C   0  0  2  0  0  0  0  0  0  0  0  0
    2.0635   -5.3229    0.0766 C   0  0  0  0  0  0  0  0  0  0  0  0
    2.2940   -3.3170    1.6559 C   0  0  0  0  0  0  0  0  0  0  0  0
    3.8624   -5.3601    1.9664 C   0  0  0  0  0  0  0  0  0  0  0  0
    5.1169   -5.7849    1.6733 C   0  0  0  0  0  0  0  0  0  0  0  0
    6.0187   -6.5219    2.5756 C   0  0  0  0  0  0  0  0  0  0  0  0
    7.0921   -6.9904    2.1976 O   0  0  0  0  0  0  0  0  0  0  0  0
    5.6106   -6.7077    4.0246 C   0  0  1  0  0  0  0  0  0  0  0  0
    6.2534   -5.6731    4.9542 C   0  0  0  0  0  0  0  0  0  0  0  0
    4.0977   -6.7873    4.1007 C   0  0  0  0  0  0  0  0  0  0  0  0
    3.2395   -5.6779    3.3823 C   0  0  1  0  0  0  0  0  0  0  0  0
    1.7399   -6.2046    3.3166 C   0  0  0  0  0  0  0  0  0  0  0  0
    1.4662   -7.6780    3.6384 C   0  0  0  0  0  0  0  0  0  0  0  0
    1.4997   -8.1488    4.9719 C   0  0  0  0  0  0  0  0  0  0  0  0
    1.3123   -9.5129    5.2562 C   0  0  0  0  0  0  0  0  0  0  0  0
    1.0341  -10.4213    4.2137 C   0  0  0  0  0  0  0  0  0  0  0  0
    0.8003  -11.8779    4.5376 C   0  0  0  0  0  0  0  0  0  0  0  0
    0.9791   -9.9604    2.8855 C   0  0  0  0  0  0  0  0  0  0  0  0
    1.2074   -8.5979    2.5973 C   0  0  0  0  0  0  0  0  0  0  0  0
    5.5309   -1.5369   -0.2081 C   0  0  0  0  0  0  0  0  0  0  0  0
    5.5645   -1.3842   -1.7186 C   0  0  0  0  0  0  0  0  0  0  0  0
    6.7763   -0.9459    0.4242 C   0  0  0  0  0  0  0  0  0  0  0  0
    4.6492   -0.3559    4.5612 H   0  0  0  0  0  0  0  0  0  0  0  0
    4.1582   -0.5553    6.3135 H   0  0  0  0  0  0  0  0  0  0  0  0
    2.5969   -5.2197    6.1746 H   0  0  0  0  0  0  0  0  0  0  0  0
    4.8689   -3.1978    3.4914 H   0  0  0  0  0  0  0  0  0  0  0  0
    2.2216   -1.8301    3.1461 H   0  0  0  0  0  0  0  0  0  0  0  0
    3.3203   -0.2627    2.0357 H   0  0  0  0  0  0  0  0  0  0  0  0
    4.8037   -1.0204    2.5357 H   0  0  0  0  0  0  0  0  0  0  0  0
    3.3738   -1.1965   -0.1156 H   0  0  0  0  0  0  0  0  0  0  0  0
    5.5022   -3.1640    1.2076 H   0  0  0  0  0  0  0  0  0  0  0  0
    3.2713   -3.2430   -0.8624 H   0  0  0  0  0  0  0  0  0  0  0  0
    3.9806   -5.1424   -1.6088 H   0  0  0  0  0  0  0  0  0  0  0  0
    1.7369   -4.7658   -0.8074 H   0  0  0  0  0  0  0  0  0  0  0  0
    1.1338   -5.6312    0.5247 H   0  0  0  0  0  0  0  0  0  0  0  0
    2.5585   -6.2242   -0.2903 H   0  0  0  0  0  0  0  0  0  0  0  0
    1.4579   -3.7500    2.2103 H   0  0  0  0  0  0  0  0  0  0  0  0
    1.8119   -2.6874    0.9042 H   0  0  0  0  0  0  0  0  0  0  0  0
    5.5885   -5.5936    0.7332 H   0  0  0  0  0  0  0  0  0  0  0  0
    5.9800   -7.6893    4.3384 H   0  0  0  0  0  0  0  0  0  0  0  0
    7.3300   -5.8393    5.0158 H   0  0  0  0  0  0  0  0  0  0  0  0
    5.8427   -5.7484    5.9620 H   0  0  0  0  0  0  0  0  0  0  0  0
    6.0915   -4.6619    4.5933 H   0  0  0  0  0  0  0  0  0  0  0  0
    3.9235   -7.7528    3.6242 H   0  0  0  0  0  0  0  0  0  0  0  0
    3.8333   -6.9078    5.1491 H   0  0  0  0  0  0  0  0  0  0  0  0
    1.1062   -5.6126    3.9939 H   0  0  0  0  0  0  0  0  0  0  0  0
    1.3046   -6.0742    2.3738 H   0  0  0  0  0  0  0  0  0  0  0  0
    1.7079   -7.4705    5.7787 H   0  0  0  0  0  0  0  0  0  0  0  0
    1.3947   -9.8767    6.2735 H   0  0  0  0  0  0  0  0  0  0  0  0
    0.2995  -12.3934    3.7217 H   0  0  0  0  0  0  0  0  0  0  0  0
    0.1722  -11.9405    5.4203 H   0  0  0  0  0  0  0  0  0  0  0  0
    1.7399  -12.3811    4.7537 H   0  0  0  0  0  0  0  0  0  0  0  0
    0.7707  -10.6522    2.0818 H   0  0  0  0  0  0  0  0  0  0  0  0
    1.1766   -8.2796    1.5643 H   0  0  0  0  0  0  0  0  0  0  0  0
    6.4235   -1.9113   -2.1325 H   0  0  0  0  0  0  0  0  0  0  0  0
    5.6017   -0.3321   -1.9977 H   0  0  0  0  0  0  0  0  0  0  0  0
    4.6671   -1.8108   -2.1627 H   0  0  0  0  0  0  0  0  0  0  0  0
    7.6799   -1.4100    0.0288 H   0  0  0  0  0  0  0  0  0  0  0  0
    6.7788   -1.0964    1.5023 H   0  0  0  0  0  0  0  0  0  0  0  0
    6.7886    0.1235    0.2263 H   0  0  0  0  0  0  0  0  0  0  0  0
  1  2  2  0
  1 36  1  0
  1 37  1  0
  2  7  1  0
  2  3  1  0
  3  4  2  0
  3  5  1  0
  5  6  2  0
  5 38  1  0
  6 24  1  0
  6  7  1  0
  7  8  1  0
  7 39  1  6
  8 16  1  0
  8  9  1  0
  8 40  1  1
  9 10  1  0
  9 41  1  0
  9 42  1  0
 10 33  1  0
 10 11  1  0
 10 43  1  6
 11 12  1  0
 11 33  1  0
 11 44  1  1
 12 13  1  0
 12 14  1  0
 12 45  1  6
 13 46  1  0
 14 15  1  6
 14 16  1  0
 14 17  1  0
 15 47  1  0
 15 48  1  0
 15 49  1  0
 16 50  1  0
 16 51  1  0
 17 24  1  0
 17 18  2  0
 18 19  1  0
 18 52  1  0
 19 20  2  0
 19 21  1  0
 21 22  1  0
 21 23  1  0
 21 53  1  1
 22 54  1  0
 22 55  1  0
 22 56  1  0
 23 24  1  0
 23 57  1  0
 23 58  1  0
 24 25  1  6
 25 26  1  0
 25 59  1  0
 25 60  1  0
 26 32  1  0
 26 27  2  0
 27 28  1  0
 27 61  1  0
 28 29  2  0
 28 62  1  0
 29 30  1  0
 29 31  1  0
 30 63  1  0
 30 64  1  0
 30 65  1  0
 31 32  2  0
 31 66  1  0
 32 67  1  0
 33 34  1  0
 33 35  1  0
 34 68  1  0
 34 69  1  0
 34 70  1  0
 35 71  1  0
 35 72  1  0
 35 73  1  0
M  END
>  <i_m_ct_stereo_status>  (76) 
1

>  <s_m_source_file>  (76) 
/var/tmp/pbs.5076255.sched01/tmplremgrqo/0ygzoxw5b.sdf

>  <i_m_source_file_index>  (76) 
37

>  <i_lp_mmshare_version>  (76) 
48012

>  <i_f3d_flags>  (76) 
0

>  <s_epik_input>  (76) 
W09IXVtDQEBIXTFbQ0BASF0oQzIoW0NIM10pW0NIM10pW0NASF0yW0NIMl1bQ0BASF0oW0NIMl0zKVtDQEBIXShDKD1bQ0gyXSlDKD1PKVtDSF09NClDNFtDQEBdKEM9NVtDQF0xM1tDSDNdKShbQ0gyXVtDQEhdKFtDSDNdKUMoPU8pW0NIXTUpW0NIMl1jNltjSF1bY0hdYyhbQ0gzXSlbY0hdW2NIXTY=

>  <s_epik_cmdline>  (76) 
J2VwaWtfcHl0aG9uJywgJy1waHQnLCAnMi4wJywgJy1waCcsICc3LjAnLCAnLXRuJywgJzgnLCAnLW1hJywgJzIwMCcsICctaW1hZScsICc8aW5maWxlLm1hZT4nLCAnLW9tYWUnLCAnPG91dGZpbGUubWFlPic=

>  <r_lp_tautomer_probability>  (76) 
0.9515

>  <r_epik_Ionization_Penalty>  (76) 
1.30945e-07

>  <r_epik_Ionization_Penalty_Charging>  (76) 
0

>  <r_epik_Ionization_Penalty_Neutral>  (76) 
1.30945e-07

>  <r_epik_State_Penalty>  (76) 
0.0242319

>  <r_epik_Charging_Adjusted_Penalty>  (76) 
0.0242319

>  <i_epik_Tot_Q>  (76) 
0

>  <i_epik_Tot_abs_Q>  (76) 
0

>  <s_lp_Force_Field>  (76) 
OPLS3e

>  <r_lp_Energy>  (76) 
77.1792

>  <b_lp_Chiralities_Consistent>  (76) 
1

>  <s_lp_Variant>  (76) 
21:0-1

>  <s_i_glide_gridfile>  (76) 
pfpi4k_grid

>  <i_i_glide_lignum>  (76) 
37

>  <i_i_glide_rotatable_bonds>  (76) 
3

>  <r_i_docking_score>  (76) 
-2.6086

>  <r_i_glide_ligand_efficiency>  (76) 
-0.0745313

>  <r_i_glide_ligand_efficiency_sa>  (76) 
-0.243797

>  <r_i_glide_ligand_efficiency_ln>  (76) 
-0.572645

>  <r_i_glide_gscore>  (76) 
-2.6086

>  <r_i_glide_lipo>  (76) 
-0.174853

>  <r_i_glide_hbond>  (76) 
-0.32

>  <r_i_glide_metal>  (76) 
-0

>  <r_i_glide_rewards>  (76) 
-0.217668

>  <r_i_glide_evdw>  (76) 
-26.2613

>  <r_i_glide_ecoul>  (76) 
-5.10308

>  <r_i_glide_erotb>  (76) 
0.182449

>  <r_i_glide_esite>  (76) 
0

>  <r_i_glide_emodel>  (76) 
-34.2368

>  <r_i_glide_energy>  (76) 
-31.3643

>  <r_i_glide_einternal>  (76) 
2.83005

>  <r_i_glide_intrahb_reward>  (76) 
-0

>  <i_i_glide_confnum>  (76) 
4

>  <i_i_glide_posenum>  (76) 
21

>  <r_i_glide_eff_state_penalty>  (76) 
0

>  <ligand_id>  (76) 
21

>  <original_smiles>  (76) 
C=C1C(=O)C=C2C1C1CC3C(C(O)C(C)(C1)C1=CC(=O)C(C)CC21Cc1ccc(C)cc1)C3(C)C

>  <smiles>  (76) 
[H]OC1([H])C2([H])C([H])(C([H])([H])C3([H])C4([H])C(=C([H])[H])C(=O)C([H])=C4C4(C([H])([H])c5c([H])c([H])c(C([H])([H])[H])c([H])c5[H])C(=C([H])C(=O)C([H])(C([H])([H])[H])C4([H])[H])C1(C([H])([H])[H])C3([H])[H])C2(C([H])([H])[H])C([H])([H])[H]

$$$$
21:0:1
     RDKit          3D

 73 78  0  0  1  0  0  0  0  0999 V2000
    3.9924   -8.0704    9.0601 C   0  0  0  0  0  0  0  0  0  0  0  0
    3.7945   -8.4712    7.7872 C   0  0  0  0  0  0  0  0  0  0  0  0
    2.4937   -8.9472    7.3286 C   0  0  0  0  0  0  0  0  0  0  0  0
    1.4496   -8.9787    7.9817 O   0  0  0  0  0  0  0  0  0  0  0  0
    2.6444   -9.3590    5.9490 C   0  0  0  0  0  0  0  0  0  0  0  0
    3.8954   -9.1163    5.5159 C   0  0  0  0  0  0  0  0  0  0  0  0
    4.7847   -8.5268    6.6199 C   0  0  1  0  0  0  0  0  0  0  0  0
    5.4413   -7.1445    6.3204 C   0  0  1  0  0  0  0  0  0  0  0  0
    6.5934   -6.8197    7.3344 C   0  0  0  0  0  0  0  0  0  0  0  0
    7.9530   -6.7178    6.6877 C   0  0  2  0  0  0  0  0  0  0  0  0
    8.2717   -7.9767    5.9127 C   0  0  1  0  0  0  0  0  0  0  0  0
    8.1127   -7.7114    4.4289 C   0  0  1  0  0  0  0  0  0  0  0  0
    9.0871   -8.4227    3.6823 O   0  0  0  0  0  0  0  0  0  0  0  0
    6.6046   -7.8877    3.9707 C   0  0  2  0  0  0  0  0  0  0  0  0
    6.6335   -7.4423    2.4760 C   0  0  0  0  0  0  0  0  0  0  0  0
    5.7627   -6.8572    4.8121 C   0  0  0  0  0  0  0  0  0  0  0  0
    6.0132   -9.3423    4.1013 C   0  0  0  0  0  0  0  0  0  0  0  0
    6.8530  -10.4097    4.2139 C   0  0  0  0  0  0  0  0  0  0  0  0
    6.4374  -11.8003    4.4157 C   0  0  0  0  0  0  0  0  0  0  0  0
    7.2438  -12.7309    4.4091 O   0  0  0  0  0  0  0  0  0  0  0  0
    4.9748  -12.1013    4.6722 C   0  0  1  0  0  0  0  0  0  0  0  0
    4.6869  -12.2488    6.1745 C   0  0  0  0  0  0  0  0  0  0  0  0
    4.1119  -11.0723    3.9286 C   0  0  0  0  0  0  0  0  0  0  0  0
    4.4543   -9.5565    4.1408 C   0  0  1  0  0  0  0  0  0  0  0  0
    3.7115   -8.8393    2.9518 C   0  0  0  0  0  0  0  0  0  0  0  0
    2.1923   -8.7367    2.9989 C   0  0  0  0  0  0  0  0  0  0  0  0
    1.5619   -7.5827    3.5153 C   0  0  0  0  0  0  0  0  0  0  0  0
    0.1559   -7.4932    3.5483 C   0  0  0  0  0  0  0  0  0  0  0  0
   -0.6286   -8.5483    3.0401 C   0  0  0  0  0  0  0  0  0  0  0  0
   -2.1364   -8.4524    3.0648 C   0  0  0  0  0  0  0  0  0  0  0  0
   -0.0009   -9.6982    2.5236 C   0  0  0  0  0  0  0  0  0  0  0  0
    1.4032   -9.7855    2.4935 C   0  0  0  0  0  0  0  0  0  0  0  0
    9.2569   -7.4562    6.9299 C   0  0  0  0  0  0  0  0  0  0  0  0
   10.5708   -6.8779    6.4339 C   0  0  0  0  0  0  0  0  0  0  0  0
    9.4600   -8.1990    8.2406 C   0  0  0  0  0  0  0  0  0  0  0  0
    4.9437   -7.7180    9.4235 H   0  0  0  0  0  0  0  0  0  0  0  0
    3.1810   -8.0914    9.7741 H   0  0  0  0  0  0  0  0  0  0  0  0
    1.8381   -9.8285    5.3983 H   0  0  0  0  0  0  0  0  0  0  0  0
    5.5546   -9.2564    6.8644 H   0  0  0  0  0  0  0  0  0  0  0  0
    4.6647   -6.4115    6.5491 H   0  0  0  0  0  0  0  0  0  0  0  0
    6.3944   -5.8630    7.8194 H   0  0  0  0  0  0  0  0  0  0  0  0
    6.6371   -7.5596    8.1306 H   0  0  0  0  0  0  0  0  0  0  0  0
    8.1035   -5.7491    6.2112 H   0  0  0  0  0  0  0  0  0  0  0  0
    7.8224   -8.9153    6.2320 H   0  0  0  0  0  0  0  0  0  0  0  0
    8.3918   -6.6687    4.2505 H   0  0  0  0  0  0  0  0  0  0  0  0
    9.2453   -7.9918    2.8504 H   0  0  0  0  0  0  0  0  0  0  0  0
    7.2044   -6.5208    2.3573 H   0  0  0  0  0  0  0  0  0  0  0  0
    5.6741   -7.2299    2.0165 H   0  0  0  0  0  0  0  0  0  0  0  0
    7.1173   -8.1969    1.8536 H   0  0  0  0  0  0  0  0  0  0  0  0
    4.8095   -6.6682    4.3343 H   0  0  0  0  0  0  0  0  0  0  0  0
    6.2452   -5.8821    4.7473 H   0  0  0  0  0  0  0  0  0  0  0  0
    7.9194  -10.3140    4.1883 H   0  0  0  0  0  0  0  0  0  0  0  0
    4.7699  -13.0722    4.2195 H   0  0  0  0  0  0  0  0  0  0  0  0
    5.1737  -13.1397    6.5739 H   0  0  0  0  0  0  0  0  0  0  0  0
    3.6182  -12.3505    6.3666 H   0  0  0  0  0  0  0  0  0  0  0  0
    5.0552  -11.4029    6.7481 H   0  0  0  0  0  0  0  0  0  0  0  0
    4.2301  -11.3136    2.8705 H   0  0  0  0  0  0  0  0  0  0  0  0
    3.0642  -11.2899    4.1340 H   0  0  0  0  0  0  0  0  0  0  0  0
    3.9748   -7.8007    2.8874 H   0  0  0  0  0  0  0  0  0  0  0  0
    4.0127   -9.2685    1.9942 H   0  0  0  0  0  0  0  0  0  0  0  0
    2.1575   -6.7690    3.9063 H   0  0  0  0  0  0  0  0  0  0  0  0
   -0.3145   -6.6165    3.9680 H   0  0  0  0  0  0  0  0  0  0  0  0
   -2.5832   -9.1800    2.3892 H   0  0  0  0  0  0  0  0  0  0  0  0
   -2.4610   -7.4609    2.7574 H   0  0  0  0  0  0  0  0  0  0  0  0
   -2.5066   -8.6509    4.0689 H   0  0  0  0  0  0  0  0  0  0  0  0
   -0.5879  -10.5135    2.1278 H   0  0  0  0  0  0  0  0  0  0  0  0
    1.8850  -10.6593    2.0818 H   0  0  0  0  0  0  0  0  0  0  0  0
   11.2936   -7.6758    6.2580 H   0  0  0  0  0  0  0  0  0  0  0  0
   10.9831   -6.1776    7.1609 H   0  0  0  0  0  0  0  0  0  0  0  0
   10.4204   -6.3479    5.4935 H   0  0  0  0  0  0  0  0  0  0  0  0
   10.2100   -8.9832    8.1286 H   0  0  0  0  0  0  0  0  0  0  0  0
    8.5322   -8.6703    8.5632 H   0  0  0  0  0  0  0  0  0  0  0  0
    9.7822   -7.5093    9.0211 H   0  0  0  0  0  0  0  0  0  0  0  0
  1  2  2  0
  1 36  1  0
  1 37  1  0
  2  7  1  0
  2  3  1  0
  3  4  2  0
  3  5  1  0
  5  6  2  0
  5 38  1  0
  6 24  1  0
  6  7  1  0
  7  8  1  0
  7 39  1  1
  8 16  1  0
  8  9  1  0
  8 40  1  1
  9 10  1  0
  9 41  1  0
  9 42  1  0
 10 33  1  0
 10 11  1  0
 10 43  1  6
 11 12  1  0
 11 33  1  0
 11 44  1  1
 12 13  1  0
 12 14  1  0
 12 45  1  1
 13 46  1  0
 14 15  1  6
 14 16  1  0
 14 17  1  0
 15 47  1  0
 15 48  1  0
 15 49  1  0
 16 50  1  0
 16 51  1  0
 17 24  1  0
 17 18  2  0
 18 19  1  0
 18 52  1  0
 19 20  2  0
 19 21  1  0
 21 22  1  0
 21 23  1  0
 21 53  1  6
 22 54  1  0
 22 55  1  0
 22 56  1  0
 23 24  1  0
 23 57  1  0
 23 58  1  0
 24 25  1  6
 25 26  1  0
 25 59  1  0
 25 60  1  0
 26 32  1  0
 26 27  2  0
 27 28  1  0
 27 61  1  0
 28 29  2  0
 28 62  1  0
 29 30  1  0
 29 31  1  0
 30 63  1  0
 30 64  1  0
 30 65  1  0
 31 32  2  0
 31 66  1  0
 32 67  1  0
 33 34  1  0
 33 35  1  0
 34 68  1  0
 34 69  1  0
 34 70  1  0
 35 71  1  0
 35 72  1  0
 35 73  1  0
M  END
>  <i_m_ct_stereo_status>  (77) 
1

>  <s_m_source_file>  (77) 
/var/tmp/pbs.5076255.sched01/tmplremgrqo/0ygzoxw5b.sdf

>  <i_m_source_file_index>  (77) 
37

>  <i_lp_mmshare_version>  (77) 
48012

>  <i_f3d_flags>  (77) 
0

>  <s_epik_input>  (77) 
W09IXVtDQEBIXTFbQ0BASF0oQzIoW0NIM10pW0NIM10pW0NASF0yW0NIMl1bQ0BASF0oW0NIMl0zKVtDQEBIXShDKD1bQ0gyXSlDKD1PKVtDSF09NClDNFtDQEBdKEM9NVtDQF0xM1tDSDNdKShbQ0gyXVtDQEhdKFtDSDNdKUMoPU8pW0NIXTUpW0NIMl1jNltjSF1bY0hdYyhbQ0gzXSlbY0hdW2NIXTY=

>  <s_epik_cmdline>  (77) 
J2VwaWtfcHl0aG9uJywgJy1waHQnLCAnMi4wJywgJy1waCcsICc3LjAnLCAnLXRuJywgJzgnLCAnLW1hJywgJzIwMCcsICctaW1hZScsICc8aW5maWxlLm1hZT4nLCAnLW9tYWUnLCAnPG91dGZpbGUubWFlPic=

>  <r_lp_tautomer_probability>  (77) 
0.9515

>  <r_epik_Ionization_Penalty>  (77) 
1.30945e-07

>  <r_epik_Ionization_Penalty_Charging>  (77) 
0

>  <r_epik_Ionization_Penalty_Neutral>  (77) 
1.30945e-07

>  <r_epik_State_Penalty>  (77) 
0.0242319

>  <r_epik_Charging_Adjusted_Penalty>  (77) 
0.0242319

>  <i_epik_Tot_Q>  (77) 
0

>  <i_epik_Tot_abs_Q>  (77) 
0

>  <s_lp_Force_Field>  (77) 
OPLS3e

>  <r_lp_Energy>  (77) 
77.1792

>  <b_lp_Chiralities_Consistent>  (77) 
1

>  <s_lp_Variant>  (77) 
21:0-1

>  <s_i_glide_gridfile>  (77) 
pfpi4k_grid

>  <i_i_glide_lignum>  (77) 
37

>  <i_i_glide_rotatable_bonds>  (77) 
3

>  <r_i_docking_score>  (77) 
-1.65868

>  <r_i_glide_ligand_efficiency>  (77) 
-0.047391

>  <r_i_glide_ligand_efficiency_sa>  (77) 
-0.155019

>  <r_i_glide_ligand_efficiency_ln>  (77) 
-0.364118

>  <r_i_glide_gscore>  (77) 
-1.65868

>  <r_i_glide_lipo>  (77) 
-0.146754

>  <r_i_glide_hbond>  (77) 
-0.0578326

>  <r_i_glide_metal>  (77) 
-0

>  <r_i_glide_rewards>  (77) 
-0.200166

>  <r_i_glide_evdw>  (77) 
-21.8375

>  <r_i_glide_ecoul>  (77) 
-2.01236

>  <r_i_glide_erotb>  (77) 
0.182449

>  <r_i_glide_esite>  (77) 
-0.0426523

>  <r_i_glide_emodel>  (77) 
-25.5274

>  <r_i_glide_energy>  (77) 
-23.8498

>  <r_i_glide_einternal>  (77) 
2.3675

>  <r_i_glide_intrahb_reward>  (77) 
-0

>  <i_i_glide_confnum>  (77) 
4

>  <i_i_glide_posenum>  (77) 
2

>  <r_i_glide_eff_state_penalty>  (77) 
0

>  <ligand_id>  (77) 
21

>  <original_smiles>  (77) 
C=C1C(=O)C=C2C1C1CC3C(C(O)C(C)(C1)C1=CC(=O)C(C)CC21Cc1ccc(C)cc1)C3(C)C

>  <smiles>  (77) 
[H]OC1([H])C2([H])C([H])(C([H])([H])C3([H])C4([H])C(=C([H])[H])C(=O)C([H])=C4C4(C([H])([H])c5c([H])c([H])c(C([H])([H])[H])c([H])c5[H])C(=C([H])C(=O)C([H])(C([H])([H])[H])C4([H])[H])C1(C([H])([H])[H])C3([H])[H])C2(C([H])([H])[H])C([H])([H])[H]

$$$$
21:1:0
     RDKit          3D

 73 78  0  0  1  0  0  0  0  0999 V2000
    5.3591    0.0704    4.4638 C   0  0  0  0  0  0  0  0  0  0  0  0
    4.8334   -1.1705    4.6058 C   0  0  0  0  0  0  0  0  0  0  0  0
    4.5081   -1.7656    5.8824 C   0  0  0  0  0  0  0  0  0  0  0  0
    4.6677   -1.2748    6.9966 O   0  0  0  0  0  0  0  0  0  0  0  0
    3.9167   -3.1430    5.6552 C   0  0  0  0  0  0  0  0  0  0  0  0
    3.9477   -3.2526    4.1208 C   0  0  0  0  0  0  0  0  0  0  0  0
    4.4660   -2.1202    3.5706 C   0  0  0  0  0  0  0  0  0  0  0  0
    4.6092   -1.7516    2.1031 C   0  0  1  0  0  0  0  0  0  0  0  0
    6.0930   -1.6849    1.6666 C   0  0  0  0  0  0  0  0  0  0  0  0
    6.3076   -2.0998    0.2460 C   0  0  2  0  0  0  0  0  0  0  0  0
    6.2693   -3.6067    0.1718 C   0  0  1  0  0  0  0  0  0  0  0  0
    4.9314   -4.0146   -0.3471 C   0  0  1  0  0  0  0  0  0  0  0  0
    5.0070   -5.2587   -1.0085 O   0  0  0  0  0  0  0  0  0  0  0  0
    3.8500   -3.9426    0.7829 C   0  0  2  0  0  0  0  0  0  0  0  0
    2.6411   -4.3542   -0.0527 C   0  0  0  0  0  0  0  0  0  0  0  0
    3.6161   -2.4584    1.1681 C   0  0  0  0  0  0  0  0  0  0  0  0
    4.0837   -4.8716    2.0526 C   0  0  0  0  0  0  0  0  0  0  0  0
    4.8859   -5.9683    1.9187 C   0  0  0  0  0  0  0  0  0  0  0  0
    5.2894   -6.8629    3.0110 C   0  0  0  0  0  0  0  0  0  0  0  0
    5.8536   -7.9369    2.8103 O   0  0  0  0  0  0  0  0  0  0  0  0
    5.0484   -6.4194    4.4332 C   0  0  1  0  0  0  0  0  0  0  0  0
    6.2213   -5.5942    4.9578 C   0  0  0  0  0  0  0  0  0  0  0  0
    3.6767   -5.7572    4.4689 C   0  0  0  0  0  0  0  0  0  0  0  0
    3.4000   -4.5657    3.4531 C   0  0  1  0  0  0  0  0  0  0  0  0
    1.8194   -4.4536    3.3645 C   0  0  0  0  0  0  0  0  0  0  0  0
    1.0110   -5.7568    3.1896 C   0  0  0  0  0  0  0  0  0  0  0  0
    0.3766   -6.3848    4.3278 C   0  0  0  0  0  0  0  0  0  0  0  0
   -0.3656   -7.5828    4.1290 C   0  0  0  0  0  0  0  0  0  0  0  0
   -0.5134   -8.1419    2.8350 C   0  0  0  0  0  0  0  0  0  0  0  0
   -1.2757   -9.4148    2.5791 C   0  0  0  0  0  0  0  0  0  0  0  0
    0.0884   -7.4984    1.7280 C   0  0  0  0  0  0  0  0  0  0  0  0
    0.8345   -6.3578    1.9220 C   0  0  0  0  0  0  0  0  0  0  0  0
    7.4058   -2.8560   -0.4529 C   0  0  0  0  0  0  0  0  0  0  0  0
    7.4873   -2.8502   -1.9461 C   0  0  0  0  0  0  0  0  0  0  0  0
    8.7856   -2.9151    0.1546 C   0  0  0  0  0  0  0  0  0  0  0  0
    5.5804    0.5195    3.5013 H   0  0  0  0  0  0  0  0  0  0  0  0
    4.5613   -3.8553    6.1548 H   0  0  0  0  0  0  0  0  0  0  0  0
    2.9162   -3.1996    6.0782 H   0  0  0  0  0  0  0  0  0  0  0  0
    5.5626    0.6775    5.3337 H   0  0  0  0  0  0  0  0  0  0  0  0
    4.2609   -0.7237    2.0415 H   0  0  0  0  0  0  0  0  0  0  0  0
    6.4986   -0.6799    1.7860 H   0  0  0  0  0  0  0  0  0  0  0  0
    6.6161   -2.3758    2.3190 H   0  0  0  0  0  0  0  0  0  0  0  0
    5.7008   -1.5180   -0.4504 H   0  0  0  0  0  0  0  0  0  0  0  0
    6.5930   -4.1958    1.0305 H   0  0  0  0  0  0  0  0  0  0  0  0
    4.6212   -3.3185   -1.1389 H   0  0  0  0  0  0  0  0  0  0  0  0
    4.2335   -5.4106   -1.5209 H   0  0  0  0  0  0  0  0  0  0  0  0
    2.5100   -3.8258   -1.0194 H   0  0  0  0  0  0  0  0  0  0  0  0
    1.8001   -4.1149    0.5455 H   0  0  0  0  0  0  0  0  0  0  0  0
    2.6893   -5.4167   -0.2816 H   0  0  0  0  0  0  0  0  0  0  0  0
    2.6273   -2.3138    1.5959 H   0  0  0  0  0  0  0  0  0  0  0  0
    3.5498   -1.9007    0.2345 H   0  0  0  0  0  0  0  0  0  0  0  0
    5.3223   -6.2667    0.9871 H   0  0  0  0  0  0  0  0  0  0  0  0
    4.9914   -7.3312    5.0303 H   0  0  0  0  0  0  0  0  0  0  0  0
    7.1548   -6.1526    4.8646 H   0  0  0  0  0  0  0  0  0  0  0  0
    6.0901   -5.3525    6.0105 H   0  0  0  0  0  0  0  0  0  0  0  0
    6.3161   -4.6739    4.3878 H   0  0  0  0  0  0  0  0  0  0  0  0
    3.0750   -6.6314    4.2430 H   0  0  0  0  0  0  0  0  0  0  0  0
    3.3725   -5.5406    5.4912 H   0  0  0  0  0  0  0  0  0  0  0  0
    1.4987   -3.9566    4.2859 H   0  0  0  0  0  0  0  0  0  0  0  0
    1.4907   -3.7239    2.6264 H   0  0  0  0  0  0  0  0  0  0  0  0
    0.4997   -5.9614    5.3204 H   0  0  0  0  0  0  0  0  0  0  0  0
   -0.8044   -8.1212    4.9927 H   0  0  0  0  0  0  0  0  0  0  0  0
   -1.5223   -9.4971    1.5100 H   0  0  0  0  0  0  0  0  0  0  0  0
   -2.2094   -9.3919    3.1681 H   0  0  0  0  0  0  0  0  0  0  0  0
   -0.6527  -10.2826    2.8536 H   0  0  0  0  0  0  0  0  0  0  0  0
    0.0227   -7.8927    0.7362 H   0  0  0  0  0  0  0  0  0  0  0  0
    1.2503   -6.0384    0.9719 H   0  0  0  0  0  0  0  0  0  0  0  0
    7.9824   -3.7633   -2.2684 H   0  0  0  0  0  0  0  0  0  0  0  0
    8.0736   -2.0020   -2.2886 H   0  0  0  0  0  0  0  0  0  0  0  0
    6.4957   -2.8094   -2.3971 H   0  0  0  0  0  0  0  0  0  0  0  0
    9.3359   -3.7805   -0.2136 H   0  0  0  0  0  0  0  0  0  0  0  0
    8.7120   -3.0207    1.2311 H   0  0  0  0  0  0  0  0  0  0  0  0
    9.3356   -2.0070   -0.0921 H   0  0  0  0  0  0  0  0  0  0  0  0
  1  2  2  0
  1 36  1  0
  1 39  1  0
  2  7  1  0
  2  3  1  0
  3  4  2  0
  3  5  1  0
  5 38  1  0
  5 37  1  0
  5  6  1  0
  6  7  2  0
  6 24  1  0
  7  8  1  0
  8 16  1  0
  8  9  1  0
  8 40  1  1
  9 10  1  0
  9 41  1  0
  9 42  1  0
 10 33  1  0
 10 11  1  0
 10 43  1  6
 11 12  1  0
 11 33  1  0
 11 44  1  1
 12 13  1  0
 12 14  1  0
 12 45  1  6
 13 46  1  0
 14 15  1  6
 14 16  1  0
 14 17  1  0
 15 47  1  0
 15 48  1  0
 15 49  1  0
 16 50  1  0
 16 51  1  0
 17 24  1  0
 17 18  2  0
 18 19  1  0
 18 52  1  0
 19 20  2  0
 19 21  1  0
 21 22  1  0
 21 23  1  0
 21 53  1  1
 22 54  1  0
 22 55  1  0
 22 56  1  0
 23 24  1  0
 23 57  1  0
 23 58  1  0
 24 25  1  6
 25 26  1  0
 25 59  1  0
 25 60  1  0
 26 32  1  0
 26 27  2  0
 27 28  1  0
 27 61  1  0
 28 29  2  0
 28 62  1  0
 29 30  1  0
 29 31  1  0
 30 63  1  0
 30 64  1  0
 30 65  1  0
 31 32  2  0
 31 66  1  0
 32 67  1  0
 33 34  1  0
 33 35  1  0
 34 68  1  0
 34 69  1  0
 34 70  1  0
 35 71  1  0
 35 72  1  0
 35 73  1  0
M  END
>  <i_m_ct_stereo_status>  (78) 
1

>  <s_m_source_file>  (78) 
/var/tmp/pbs.5076255.sched01/tmplremgrqo/0ygzoxw5b.sdf

>  <i_m_source_file_index>  (78) 
38

>  <i_lp_mmshare_version>  (78) 
48012

>  <i_f3d_flags>  (78) 
0

>  <s_epik_input>  (78) 
W09IXVtDQEBIXTFbQ0BASF0oQzIoW0NIM10pW0NIM10pW0NASF0yW0NIMl1bQ0BASF0oW0NIMl0zKVtDQEBIXShDKD1bQ0gyXSlDKD1PKVtDSF09NClDNFtDQEBdKEM9NVtDQF0xM1tDSDNdKShbQ0gyXVtDQEhdKFtDSDNdKUMoPU8pW0NIXTUpW0NIMl1jNltjSF1bY0hdYyhbQ0gzXSlbY0hdW2NIXTY=

>  <s_epik_cmdline>  (78) 
J2VwaWtfcHl0aG9uJywgJy1waHQnLCAnMi4wJywgJy1waCcsICc3LjAnLCAnLXRuJywgJzgnLCAnLW1hJywgJzIwMCcsICctaW1hZScsICc8aW5maWxlLm1hZT4nLCAnLW9tYWUnLCAnPG91dGZpbGUubWFlPic=

>  <r_lp_tautomer_probability>  (78) 
0.0485

>  <r_epik_Ionization_Penalty>  (78) 
1.20397e-07

>  <r_epik_Ionization_Penalty_Charging>  (78) 
0

>  <r_epik_Ionization_Penalty_Neutral>  (78) 
1.20397e-07

>  <r_epik_State_Penalty>  (78) 
1.90605

>  <r_epik_Charging_Adjusted_Penalty>  (78) 
1.90605

>  <i_epik_Tot_Q>  (78) 
0

>  <i_epik_Tot_abs_Q>  (78) 
0

>  <s_lp_Force_Field>  (78) 
OPLS3e

>  <r_lp_Energy>  (78) 
72.6195

>  <b_lp_Chiralities_Consistent>  (78) 
1

>  <s_lp_Variant>  (78) 
21:0-2

>  <s_i_glide_gridfile>  (78) 
pfpi4k_grid

>  <i_i_glide_lignum>  (78) 
38

>  <i_i_glide_rotatable_bonds>  (78) 
3

>  <r_i_docking_score>  (78) 
-3.18632

>  <r_i_glide_ligand_efficiency>  (78) 
-0.0910377

>  <r_i_glide_ligand_efficiency_sa>  (78) 
-0.29779

>  <r_i_glide_ligand_efficiency_ln>  (78) 
-0.699468

>  <r_i_glide_gscore>  (78) 
-3.18632

>  <r_i_glide_lipo>  (78) 
-0.783863

>  <r_i_glide_hbond>  (78) 
-0.32

>  <r_i_glide_metal>  (78) 
-0

>  <r_i_glide_rewards>  (78) 
-0.210493

>  <r_i_glide_evdw>  (78) 
-25.4197

>  <r_i_glide_ecoul>  (78) 
-5.22284

>  <r_i_glide_erotb>  (78) 
0.182449

>  <r_i_glide_esite>  (78) 
0

>  <r_i_glide_emodel>  (78) 
-32.2773

>  <r_i_glide_energy>  (78) 
-30.6426

>  <r_i_glide_einternal>  (78) 
2.70202

>  <r_i_glide_intrahb_reward>  (78) 
-0

>  <i_i_glide_confnum>  (78) 
4

>  <i_i_glide_posenum>  (78) 
10

>  <r_i_glide_eff_state_penalty>  (78) 
0

>  <ligand_id>  (78) 
21

>  <original_smiles>  (78) 
C=C1C(=O)C=C2C1C1CC3C(C(O)C(C)(C1)C1=CC(=O)C(C)CC21Cc1ccc(C)cc1)C3(C)C

>  <smiles>  (78) 
[H]OC1([H])C2([H])C([H])(C([H])([H])C3([H])C4=C(C([H])([H])C(=O)C4=C([H])[H])C4(C([H])([H])c5c([H])c([H])c(C([H])([H])[H])c([H])c5[H])C(=C([H])C(=O)C([H])(C([H])([H])[H])C4([H])[H])C1(C([H])([H])[H])C3([H])[H])C2(C([H])([H])[H])C([H])([H])[H]

$$$$
21:1:1
     RDKit          3D

 73 78  0  0  1  0  0  0  0  0999 V2000
    3.1641   -0.7598    5.3193 C   0  0  0  0  0  0  0  0  0  0  0  0
    3.2423   -2.1118    5.2310 C   0  0  0  0  0  0  0  0  0  0  0  0
    3.3220   -2.9774    6.3854 C   0  0  0  0  0  0  0  0  0  0  0  0
    3.3514   -2.6514    7.5737 O   0  0  0  0  0  0  0  0  0  0  0  0
    3.3658   -4.4137    5.9013 C   0  0  0  0  0  0  0  0  0  0  0  0
    3.3054   -4.2590    4.3869 C   0  0  0  0  0  0  0  0  0  0  0  0
    3.2360   -2.9524    4.0400 C   0  0  0  0  0  0  0  0  0  0  0  0
    3.0712   -2.3444    2.6625 C   0  0  1  0  0  0  0  0  0  0  0  0
    4.3408   -1.5408    2.2307 C   0  0  0  0  0  0  0  0  0  0  0  0
    4.5469   -1.5879    0.7429 C   0  0  2  0  0  0  0  0  0  0  0  0
    5.1251   -2.9386    0.4018 C   0  0  1  0  0  0  0  0  0  0  0  0
    4.0393   -3.8160   -0.1670 C   0  0  1  0  0  0  0  0  0  0  0  0
    4.6301   -4.6895   -1.1005 O   0  0  0  0  0  0  0  0  0  0  0  0
    3.1364   -4.4632    0.9652 C   0  0  2  0  0  0  0  0  0  0  0  0
    2.1313   -5.3482    0.1583 C   0  0  0  0  0  0  0  0  0  0  0  0
    2.3656   -3.2824    1.6345 C   0  0  0  0  0  0  0  0  0  0  0  0
    3.8966   -5.3305    2.0535 C   0  0  0  0  0  0  0  0  0  0  0  0
    5.0845   -5.8944    1.6986 C   0  0  0  0  0  0  0  0  0  0  0  0
    5.9580   -6.6728    2.5798 C   0  0  0  0  0  0  0  0  0  0  0  0
    6.8907   -7.3533    2.1543 O   0  0  0  0  0  0  0  0  0  0  0  0
    5.6870   -6.6209    4.0646 C   0  0  1  0  0  0  0  0  0  0  0  0
    6.4295   -5.4571    4.7218 C   0  0  0  0  0  0  0  0  0  0  0  0
    4.1766   -6.6522    4.2538 C   0  0  0  0  0  0  0  0  0  0  0  0
    3.3079   -5.5455    3.5171 C   0  0  1  0  0  0  0  0  0  0  0  0
    1.8031   -6.0712    3.4697 C   0  0  0  0  0  0  0  0  0  0  0  0
    1.5682   -7.5706    3.7358 C   0  0  0  0  0  0  0  0  0  0  0  0
    1.4239   -8.0498    5.0592 C   0  0  0  0  0  0  0  0  0  0  0  0
    1.2449   -9.4149    5.3021 C   0  0  0  0  0  0  0  0  0  0  0  0
    1.1764  -10.3254    4.2273 C   0  0  0  0  0  0  0  0  0  0  0  0
    0.9687  -11.8026    4.5031 C   0  0  0  0  0  0  0  0  0  0  0  0
    1.3114   -9.8570    2.9097 C   0  0  0  0  0  0  0  0  0  0  0  0
    1.5040   -8.4853    2.6636 C   0  0  0  0  0  0  0  0  0  0  0  0
    5.7770   -1.6897   -0.1131 C   0  0  0  0  0  0  0  0  0  0  0  0
    5.7047   -1.3673   -1.5948 C   0  0  0  0  0  0  0  0  0  0  0  0
    7.0913   -1.2222    0.4712 C   0  0  0  0  0  0  0  0  0  0  0  0
    3.0830   -0.1152    4.4546 H   0  0  0  0  0  0  0  0  0  0  0  0
    4.2997   -4.8575    6.2594 H   0  0  0  0  0  0  0  0  0  0  0  0
    2.5263   -4.9809    6.3190 H   0  0  0  0  0  0  0  0  0  0  0  0
    3.1744   -0.2733    6.2825 H   0  0  0  0  0  0  0  0  0  0  0  0
    2.3121   -1.5691    2.7971 H   0  0  0  0  0  0  0  0  0  0  0  0
    4.2500   -0.4949    2.5216 H   0  0  0  0  0  0  0  0  0  0  0  0
    5.2237   -1.9281    2.7509 H   0  0  0  0  0  0  0  0  0  0  0  0
    3.6866   -1.2099    0.1999 H   0  0  0  0  0  0  0  0  0  0  0  0
    5.7623   -3.4391    1.1191 H   0  0  0  0  0  0  0  0  0  0  0  0
    3.3982   -3.1995   -0.7991 H   0  0  0  0  0  0  0  0  0  0  0  0
    3.9433   -5.1558   -1.5971 H   0  0  0  0  0  0  0  0  0  0  0  0
    1.7828   -4.7916   -0.7271 H   0  0  0  0  0  0  0  0  0  0  0  0
    1.2385   -5.6697    0.6841 H   0  0  0  0  0  0  0  0  0  0  0  0
    2.6287   -6.2542   -0.2033 H   0  0  0  0  0  0  0  0  0  0  0  0
    1.4739   -3.6672    2.1270 H   0  0  0  0  0  0  0  0  0  0  0  0
    1.9746   -2.6497    0.8395 H   0  0  0  0  0  0  0  0  0  0  0  0
    5.4899   -5.8079    0.7092 H   0  0  0  0  0  0  0  0  0  0  0  0
    6.0831   -7.5493    4.4864 H   0  0  0  0  0  0  0  0  0  0  0  0
    7.4997   -5.5279    4.5187 H   0  0  0  0  0  0  0  0  0  0  0  0
    6.2986   -5.4772    5.8043 H   0  0  0  0  0  0  0  0  0  0  0  0
    6.0683   -4.5064    4.3352 H   0  0  0  0  0  0  0  0  0  0  0  0
    3.9694   -7.6437    3.8390 H   0  0  0  0  0  0  0  0  0  0  0  0
    3.9325   -6.7690    5.3036 H   0  0  0  0  0  0  0  0  0  0  0  0
    1.2227   -5.5308    4.2338 H   0  0  0  0  0  0  0  0  0  0  0  0
    1.2895   -5.8298    2.5356 H   0  0  0  0  0  0  0  0  0  0  0  0
    1.4941   -7.3639    5.8817 H   0  0  0  0  0  0  0  0  0  0  0  0
    1.1774   -9.7908    6.3169 H   0  0  0  0  0  0  0  0  0  0  0  0
    0.6183  -12.3283    3.6111 H   0  0  0  0  0  0  0  0  0  0  0  0
    0.2145  -11.9272    5.2831 H   0  0  0  0  0  0  0  0  0  0  0  0
    1.8937  -12.2736    4.8460 H   0  0  0  0  0  0  0  0  0  0  0  0
    1.2817  -10.5668    2.0975 H   0  0  0  0  0  0  0  0  0  0  0  0
    1.6252   -8.1516    1.6369 H   0  0  0  0  0  0  0  0  0  0  0  0
    6.5000   -1.8892   -2.1317 H   0  0  0  0  0  0  0  0  0  0  0  0
    5.7890   -0.2902   -1.7620 H   0  0  0  0  0  0  0  0  0  0  0  0
    4.7508   -1.6887   -2.0010 H   0  0  0  0  0  0  0  0  0  0  0  0
    7.9525   -1.6849   -0.0235 H   0  0  0  0  0  0  0  0  0  0  0  0
    7.1311   -1.4382    1.5337 H   0  0  0  0  0  0  0  0  0  0  0  0
    7.1347   -0.1446    0.3502 H   0  0  0  0  0  0  0  0  0  0  0  0
  1  2  2  0
  1 36  1  0
  1 39  1  0
  2  7  1  0
  2  3  1  0
  3  4  2  0
  3  5  1  0
  5 38  1  0
  5 37  1  0
  5  6  1  0
  6  7  2  0
  6 24  1  0
  7  8  1  0
  8 16  1  0
  8  9  1  0
  8 40  1  1
  9 10  1  0
  9 41  1  0
  9 42  1  0
 10 33  1  0
 10 11  1  0
 10 43  1  6
 11 12  1  0
 11 33  1  0
 11 44  1  1
 12 13  1  0
 12 14  1  0
 12 45  1  6
 13 46  1  0
 14 15  1  6
 14 16  1  0
 14 17  1  0
 15 47  1  0
 15 48  1  0
 15 49  1  0
 16 50  1  0
 16 51  1  0
 17 24  1  0
 17 18  2  0
 18 19  1  0
 18 52  1  0
 19 20  2  0
 19 21  1  0
 21 22  1  0
 21 23  1  0
 21 53  1  1
 22 54  1  0
 22 55  1  0
 22 56  1  0
 23 24  1  0
 23 57  1  0
 23 58  1  0
 24 25  1  6
 25 26  1  0
 25 59  1  0
 25 60  1  0
 26 32  1  0
 26 27  2  0
 27 28  1  0
 27 61  1  0
 28 29  2  0
 28 62  1  0
 29 30  1  0
 29 31  1  0
 30 63  1  0
 30 64  1  0
 30 65  1  0
 31 32  2  0
 31 66  1  0
 32 67  1  0
 33 34  1  0
 33 35  1  0
 34 68  1  0
 34 69  1  0
 34 70  1  0
 35 71  1  0
 35 72  1  0
 35 73  1  0
M  END
>  <i_m_ct_stereo_status>  (79) 
1

>  <s_m_source_file>  (79) 
/var/tmp/pbs.5076255.sched01/tmplremgrqo/0ygzoxw5b.sdf

>  <i_m_source_file_index>  (79) 
38

>  <i_lp_mmshare_version>  (79) 
48012

>  <i_f3d_flags>  (79) 
0

>  <s_epik_input>  (79) 
W09IXVtDQEBIXTFbQ0BASF0oQzIoW0NIM10pW0NIM10pW0NASF0yW0NIMl1bQ0BASF0oW0NIMl0zKVtDQEBIXShDKD1bQ0gyXSlDKD1PKVtDSF09NClDNFtDQEBdKEM9NVtDQF0xM1tDSDNdKShbQ0gyXVtDQEhdKFtDSDNdKUMoPU8pW0NIXTUpW0NIMl1jNltjSF1bY0hdYyhbQ0gzXSlbY0hdW2NIXTY=

>  <s_epik_cmdline>  (79) 
J2VwaWtfcHl0aG9uJywgJy1waHQnLCAnMi4wJywgJy1waCcsICc3LjAnLCAnLXRuJywgJzgnLCAnLW1hJywgJzIwMCcsICctaW1hZScsICc8aW5maWxlLm1hZT4nLCAnLW9tYWUnLCAnPG91dGZpbGUubWFlPic=

>  <r_lp_tautomer_probability>  (79) 
0.0485

>  <r_epik_Ionization_Penalty>  (79) 
1.20397e-07

>  <r_epik_Ionization_Penalty_Charging>  (79) 
0

>  <r_epik_Ionization_Penalty_Neutral>  (79) 
1.20397e-07

>  <r_epik_State_Penalty>  (79) 
1.90605

>  <r_epik_Charging_Adjusted_Penalty>  (79) 
1.90605

>  <i_epik_Tot_Q>  (79) 
0

>  <i_epik_Tot_abs_Q>  (79) 
0

>  <s_lp_Force_Field>  (79) 
OPLS3e

>  <r_lp_Energy>  (79) 
72.6195

>  <b_lp_Chiralities_Consistent>  (79) 
1

>  <s_lp_Variant>  (79) 
21:0-2

>  <s_i_glide_gridfile>  (79) 
pfpi4k_grid

>  <i_i_glide_lignum>  (79) 
38

>  <i_i_glide_rotatable_bonds>  (79) 
3

>  <r_i_docking_score>  (79) 
-2.59524

>  <r_i_glide_ligand_efficiency>  (79) 
-0.0741497

>  <r_i_glide_ligand_efficiency_sa>  (79) 
-0.242548

>  <r_i_glide_ligand_efficiency_ln>  (79) 
-0.569712

>  <r_i_glide_gscore>  (79) 
-2.59524

>  <r_i_glide_lipo>  (79) 
-0.188002

>  <r_i_glide_hbond>  (79) 
-0.32

>  <r_i_glide_metal>  (79) 
-0

>  <r_i_glide_rewards>  (79) 
-0.217913

>  <r_i_glide_evdw>  (79) 
-24.5904

>  <r_i_glide_ecoul>  (79) 
-5.48169

>  <r_i_glide_erotb>  (79) 
0.182449

>  <r_i_glide_esite>  (79) 
0

>  <r_i_glide_emodel>  (79) 
-32.3098

>  <r_i_glide_energy>  (79) 
-30.0721

>  <r_i_glide_einternal>  (79) 
3.18152

>  <r_i_glide_intrahb_reward>  (79) 
-0

>  <i_i_glide_confnum>  (79) 
4

>  <i_i_glide_posenum>  (79) 
21

>  <r_i_glide_eff_state_penalty>  (79) 
0

>  <ligand_id>  (79) 
21

>  <original_smiles>  (79) 
C=C1C(=O)C=C2C1C1CC3C(C(O)C(C)(C1)C1=CC(=O)C(C)CC21Cc1ccc(C)cc1)C3(C)C

>  <smiles>  (79) 
[H]OC1([H])C2([H])C([H])(C([H])([H])C3([H])C4=C(C([H])([H])C(=O)C4=C([H])[H])C4(C([H])([H])c5c([H])c([H])c(C([H])([H])[H])c([H])c5[H])C(=C([H])C(=O)C([H])(C([H])([H])[H])C4([H])[H])C1(C([H])([H])[H])C3([H])[H])C2(C([H])([H])[H])C([H])([H])[H]

$$$$
21:1:2
     RDKit          3D

 73 78  0  0  1  0  0  0  0  0999 V2000
    3.0996   -0.2109    5.0640 C   0  0  0  0  0  0  0  0  0  0  0  0
    3.1946   -1.5546    5.1668 C   0  0  0  0  0  0  0  0  0  0  0  0
    3.2910   -2.2260    6.4314 C   0  0  0  0  0  0  0  0  0  0  0  0
    3.2737   -1.7436    7.5688 O   0  0  0  0  0  0  0  0  0  0  0  0
    3.3712   -3.7277    6.1924 C   0  0  0  0  0  0  0  0  0  0  0  0
    3.2579   -3.7971    4.6548 C   0  0  0  0  0  0  0  0  0  0  0  0
    3.1995   -2.5521    4.1128 C   0  0  0  0  0  0  0  0  0  0  0  0
    3.0337   -2.1609    2.6570 C   0  0  1  0  0  0  0  0  0  0  0  0
    4.3098   -1.4312    2.1322 C   0  0  0  0  0  0  0  0  0  0  0  0
    4.5374   -1.6976    0.6833 C   0  0  2  0  0  0  0  0  0  0  0  0
    5.1210   -3.0759    0.5206 C   0  0  1  0  0  0  0  0  0  0  0  0
    4.0520   -4.0392    0.0868 C   0  0  1  0  0  0  0  0  0  0  0  0
    4.6184   -5.0695   -0.6927 O   0  0  0  0  0  0  0  0  0  0  0  0
    3.1333   -4.5005    1.3017 C   0  0  2  0  0  0  0  0  0  0  0  0
    2.1140   -5.4736    0.6451 C   0  0  0  0  0  0  0  0  0  0  0  0
    2.3511   -3.2402    1.7722 C   0  0  0  0  0  0  0  0  0  0  0  0
    3.8861   -5.1961    2.5115 C   0  0  0  0  0  0  0  0  0  0  0  0
    5.0628   -5.8162    2.2450 C   0  0  0  0  0  0  0  0  0  0  0  0
    5.9217   -6.4656    3.2385 C   0  0  0  0  0  0  0  0  0  0  0  0
    6.8738   -7.1848    2.9280 O   0  0  0  0  0  0  0  0  0  0  0  0
    5.6310   -6.2130    4.6918 C   0  0  1  0  0  0  0  0  0  0  0  0
    6.3649   -4.9632    5.1882 C   0  0  0  0  0  0  0  0  0  0  0  0
    4.1084   -6.2069    4.8641 C   0  0  0  0  0  0  0  0  0  0  0  0
    3.2684   -5.2141    3.9716 C   0  0  1  0  0  0  0  0  0  0  0  0
    1.7841   -5.7469    3.9800 C   0  0  0  0  0  0  0  0  0  0  0  0
    1.3504   -6.7324    5.0592 C   0  0  0  0  0  0  0  0  0  0  0  0
    0.9566   -6.2501    6.3286 C   0  0  0  0  0  0  0  0  0  0  0  0
    0.6359   -7.1453    7.3656 C   0  0  0  0  0  0  0  0  0  0  0  0
    0.6066   -8.5348    7.1136 C   0  0  0  0  0  0  0  0  0  0  0  0
    0.1860   -9.4653    8.2088 C   0  0  0  0  0  0  0  0  0  0  0  0
    0.9362   -9.0309    5.8328 C   0  0  0  0  0  0  0  0  0  0  0  0
    1.3159   -8.1314    4.8108 C   0  0  0  0  0  0  0  0  0  0  0  0
    5.7885   -1.8924   -0.1524 C   0  0  0  0  0  0  0  0  0  0  0  0
    5.7296   -1.7908   -1.6627 C   0  0  0  0  0  0  0  0  0  0  0  0
    7.0884   -1.3294    0.3812 C   0  0  0  0  0  0  0  0  0  0  0  0
    3.0174    0.3022    4.1172 H   0  0  0  0  0  0  0  0  0  0  0  0
    4.3104   -4.1051    6.5752 H   0  0  0  0  0  0  0  0  0  0  0  0
    2.5619   -4.1750    6.7257 H   0  0  0  0  0  0  0  0  0  0  0  0
    3.1021    0.4104    5.9500 H   0  0  0  0  0  0  0  0  0  0  0  0
    2.2699   -1.3739    2.6752 H   0  0  0  0  0  0  0  0  0  0  0  0
    4.2199   -0.3527    2.2721 H   0  0  0  0  0  0  0  0  0  0  0  0
    5.1873   -1.7362    2.7131 H   0  0  0  0  0  0  0  0  0  0  0  0
    3.6784   -1.3978    0.0646 H   0  0  0  0  0  0  0  0  0  0  0  0
    5.7557   -3.4682    1.3267 H   0  0  0  0  0  0  0  0  0  0  0  0
    3.4130   -3.5217   -0.6382 H   0  0  0  0  0  0  0  0  0  0  0  0
    3.9657   -5.4175   -1.2937 H   0  0  0  0  0  0  0  0  0  0  0  0
    1.7670   -5.0818   -0.3121 H   0  0  0  0  0  0  0  0  0  0  0  0
    1.2180   -5.6673    1.2223 H   0  0  0  0  0  0  0  0  0  0  0  0
    2.5886   -6.4321    0.4355 H   0  0  0  0  0  0  0  0  0  0  0  0
    1.4446   -3.5495    2.2932 H   0  0  0  0  0  0  0  0  0  0  0  0
    1.9640   -2.7295    0.8881 H   0  0  0  0  0  0  0  0  0  0  0  0
    5.4881   -5.8721    1.2695 H   0  0  0  0  0  0  0  0  0  0  0  0
    6.0170   -7.0659    5.2498 H   0  0  0  0  0  0  0  0  0  0  0  0
    7.4368   -5.0571    5.0105 H   0  0  0  0  0  0  0  0  0  0  0  0
    6.2348   -4.8213    6.2588 H   0  0  0  0  0  0  0  0  0  0  0  0
    6.0191   -4.0713    4.6657 H   0  0  0  0  0  0  0  0  0  0  0  0
    3.8327   -7.2254    4.5775 H   0  0  0  0  0  0  0  0  0  0  0  0
    3.8602   -6.1654    5.9235 H   0  0  0  0  0  0  0  0  0  0  0  0
    1.0562   -4.9404    3.9215 H   0  0  0  0  0  0  0  0  0  0  0  0
    1.6560   -6.3661    3.1122 H   0  0  0  0  0  0  0  0  0  0  0  0
    0.8756   -5.2044    6.5188 H   0  0  0  0  0  0  0  0  0  0  0  0
    0.3905   -6.7639    8.3389 H   0  0  0  0  0  0  0  0  0  0  0  0
   -0.1279  -10.4186    7.7878 H   0  0  0  0  0  0  0  0  0  0  0  0
   -0.6581   -9.0409    8.7503 H   0  0  0  0  0  0  0  0  0  0  0  0
    1.0018   -9.6347    8.9098 H   0  0  0  0  0  0  0  0  0  0  0  0
    0.8938  -10.0925    5.6345 H   0  0  0  0  0  0  0  0  0  0  0  0
    1.5723   -8.5270    3.8426 H   0  0  0  0  0  0  0  0  0  0  0  0
    6.5283   -2.3791   -2.1159 H   0  0  0  0  0  0  0  0  0  0  0  0
    5.8123   -0.7524   -1.9804 H   0  0  0  0  0  0  0  0  0  0  0  0
    4.7759   -2.1776   -2.0322 H   0  0  0  0  0  0  0  0  0  0  0  0
    7.9469   -1.8598   -0.0336 H   0  0  0  0  0  0  0  0  0  0  0  0
    7.1241   -1.4186    1.4682 H   0  0  0  0  0  0  0  0  0  0  0  0
    7.1560   -0.2706    0.1424 H   0  0  0  0  0  0  0  0  0  0  0  0
  1  2  2  0
  1 36  1  0
  1 39  1  0
  2  7  1  0
  2  3  1  0
  3  4  2  0
  3  5  1  0
  5 38  1  0
  5 37  1  0
  5  6  1  0
  6  7  2  0
  6 24  1  0
  7  8  1  0
  8 16  1  0
  8  9  1  0
  8 40  1  1
  9 10  1  0
  9 41  1  0
  9 42  1  0
 10 33  1  0
 10 11  1  0
 10 43  1  6
 11 12  1  0
 11 33  1  0
 11 44  1  1
 12 13  1  0
 12 14  1  0
 12 45  1  6
 13 46  1  0
 14 15  1  6
 14 16  1  0
 14 17  1  0
 15 47  1  0
 15 48  1  0
 15 49  1  0
 16 50  1  0
 16 51  1  0
 17 24  1  0
 17 18  2  0
 18 19  1  0
 18 52  1  0
 19 20  2  0
 19 21  1  0
 21 22  1  0
 21 23  1  0
 21 53  1  1
 22 54  1  0
 22 55  1  0
 22 56  1  0
 23 24  1  0
 23 57  1  0
 23 58  1  0
 24 25  1  6
 25 26  1  0
 25 59  1  0
 25 60  1  0
 26 32  1  0
 26 27  2  0
 27 28  1  0
 27 61  1  0
 28 29  2  0
 28 62  1  0
 29 30  1  0
 29 31  1  0
 30 63  1  0
 30 64  1  0
 30 65  1  0
 31 32  2  0
 31 66  1  0
 32 67  1  0
 33 34  1  0
 33 35  1  0
 34 68  1  0
 34 69  1  0
 34 70  1  0
 35 71  1  0
 35 72  1  0
 35 73  1  0
M  END
>  <i_m_ct_stereo_status>  (80) 
1

>  <s_m_source_file>  (80) 
/var/tmp/pbs.5076255.sched01/tmplremgrqo/0ygzoxw5b.sdf

>  <i_m_source_file_index>  (80) 
38

>  <i_lp_mmshare_version>  (80) 
48012

>  <i_f3d_flags>  (80) 
0

>  <s_epik_input>  (80) 
W09IXVtDQEBIXTFbQ0BASF0oQzIoW0NIM10pW0NIM10pW0NASF0yW0NIMl1bQ0BASF0oW0NIMl0zKVtDQEBIXShDKD1bQ0gyXSlDKD1PKVtDSF09NClDNFtDQEBdKEM9NVtDQF0xM1tDSDNdKShbQ0gyXVtDQEhdKFtDSDNdKUMoPU8pW0NIXTUpW0NIMl1jNltjSF1bY0hdYyhbQ0gzXSlbY0hdW2NIXTY=

>  <s_epik_cmdline>  (80) 
J2VwaWtfcHl0aG9uJywgJy1waHQnLCAnMi4wJywgJy1waCcsICc3LjAnLCAnLXRuJywgJzgnLCAnLW1hJywgJzIwMCcsICctaW1hZScsICc8aW5maWxlLm1hZT4nLCAnLW9tYWUnLCAnPG91dGZpbGUubWFlPic=

>  <r_lp_tautomer_probability>  (80) 
0.0485

>  <r_epik_Ionization_Penalty>  (80) 
1.20397e-07

>  <r_epik_Ionization_Penalty_Charging>  (80) 
0

>  <r_epik_Ionization_Penalty_Neutral>  (80) 
1.20397e-07

>  <r_epik_State_Penalty>  (80) 
1.90605

>  <r_epik_Charging_Adjusted_Penalty>  (80) 
1.90605

>  <i_epik_Tot_Q>  (80) 
0

>  <i_epik_Tot_abs_Q>  (80) 
0

>  <s_lp_Force_Field>  (80) 
OPLS3e

>  <r_lp_Energy>  (80) 
72.6195

>  <b_lp_Chiralities_Consistent>  (80) 
1

>  <s_lp_Variant>  (80) 
21:0-2

>  <s_i_glide_gridfile>  (80) 
pfpi4k_grid

>  <i_i_glide_lignum>  (80) 
38

>  <i_i_glide_rotatable_bonds>  (80) 
3

>  <r_i_docking_score>  (80) 
-2.20049

>  <r_i_glide_ligand_efficiency>  (80) 
-0.0628711

>  <r_i_glide_ligand_efficiency_sa>  (80) 
-0.205655

>  <r_i_glide_ligand_efficiency_ln>  (80) 
-0.483056

>  <r_i_glide_gscore>  (80) 
-2.20049

>  <r_i_glide_lipo>  (80) 
-0.0618465

>  <r_i_glide_hbond>  (80) 
-0.32

>  <r_i_glide_metal>  (80) 
-0

>  <r_i_glide_rewards>  (80) 
-0.202815

>  <r_i_glide_evdw>  (80) 
-22.0104

>  <r_i_glide_ecoul>  (80) 
-4.6517

>  <r_i_glide_erotb>  (80) 
0.182449

>  <r_i_glide_esite>  (80) 
0

>  <r_i_glide_emodel>  (80) 
-28.8141

>  <r_i_glide_energy>  (80) 
-26.6621

>  <r_i_glide_einternal>  (80) 
2.11192

>  <r_i_glide_intrahb_reward>  (80) 
-0

>  <i_i_glide_confnum>  (80) 
4

>  <i_i_glide_posenum>  (80) 
22

>  <r_i_glide_eff_state_penalty>  (80) 
0

>  <ligand_id>  (80) 
21

>  <original_smiles>  (80) 
C=C1C(=O)C=C2C1C1CC3C(C(O)C(C)(C1)C1=CC(=O)C(C)CC21Cc1ccc(C)cc1)C3(C)C

>  <smiles>  (80) 
[H]OC1([H])C2([H])C([H])(C([H])([H])C3([H])C4=C(C([H])([H])C(=O)C4=C([H])[H])C4(C([H])([H])c5c([H])c([H])c(C([H])([H])[H])c([H])c5[H])C(=C([H])C(=O)C([H])(C([H])([H])[H])C4([H])[H])C1(C([H])([H])[H])C3([H])[H])C2(C([H])([H])[H])C([H])([H])[H]

$$$$
22:0:0
     RDKit          3D

 79 86  0  0  1  0  0  0  0  0999 V2000
   -0.3607   -1.8080    5.5751 C   0  0  0  0  0  0  0  0  0  0  0  0
    0.7018   -2.8262    6.0244 C   0  0  2  0  0  0  0  0  0  0  0  0
    0.5013   -4.1170    5.4873 O   0  0  0  0  0  0  0  0  0  0  0  0
    1.2403   -5.0254    6.2424 C   0  0  1  0  0  0  0  0  0  0  0  0
    2.5985   -5.1380    5.8403 O   0  0  0  0  0  0  0  0  0  0  0  0
    2.8853   -5.8379    4.6414 C   0  0  1  0  0  0  0  0  0  0  0  0
    2.5787   -5.0490    3.4909 O   0  0  0  0  0  0  0  0  0  0  0  0
    3.5356   -4.6594    2.4560 C   0  0  0  0  0  0  0  0  0  0  0  0
    2.6971   -4.5058    1.1637 C   0  0  0  0  0  0  0  0  0  0  0  0
    3.9640   -3.2420    2.8843 C   0  0  0  0  0  0  0  0  0  0  0  0
    4.7681   -5.6409    2.2453 C   0  0  2  0  0  0  0  0  0  0  0  0
    4.9149   -6.2952    0.8470 C   0  0  0  0  0  0  0  0  0  0  0  0
    4.5879   -7.5852    0.6084 C   0  0  0  0  0  0  0  0  0  0  0  0
    4.0104   -8.3960    1.5874 N   0  0  0  0  0  0  0  0  0  0  0  0
    3.5208   -7.6556    2.7357 C   0  0  2  0  0  0  0  0  0  0  0  0
    4.6662   -6.7742    3.2657 C   0  0  2  0  0  0  0  0  0  0  0  0
    4.3845   -6.2376    4.6642 C   0  0  1  0  0  0  0  0  0  0  0  0
    5.4074   -5.2226    5.2181 C   0  0  0  0  0  0  0  0  0  0  0  0
    2.5923   -8.2334    3.8227 C   0  0  1  0  0  0  0  0  0  0  0  0
    2.1836   -7.0747    4.6172 O   0  0  0  0  0  0  0  0  0  0  0  0
    1.2426   -8.7921    3.2750 C   0  0  2  0  0  0  0  0  0  0  0  0
    0.2849   -9.0918    4.4589 C   0  0  0  0  0  0  0  0  0  0  0  0
    0.9211  -10.1539    5.3778 C   0  0  1  0  0  0  0  0  0  0  0  0
    1.1374  -11.4562    4.5842 C   0  0  0  0  0  0  0  0  0  0  0  0
    2.0733  -11.1758    3.3975 C   0  0  1  0  0  0  0  0  0  0  0  0
    1.4329  -10.1106    2.4855 C   0  0  0  0  0  0  0  0  0  0  0  0
    3.4259  -10.6677    3.9315 C   0  0  0  0  0  0  0  0  0  0  0  0
    3.2223   -9.3511    4.7203 C   0  0  2  0  0  0  0  0  0  0  0  0
    2.2763   -9.6424    5.9112 C   0  0  0  0  0  0  0  0  0  0  0  0
    1.2234   -4.4684    7.6821 C   0  0  2  0  0  0  0  0  0  0  0  0
    0.2018   -5.0377    8.4830 O   0  0  0  0  0  0  0  0  0  0  0  0
   -0.3329   -3.9474    9.1610 C   0  0  0  0  0  0  0  0  0  0  0  0
   -1.7568   -4.2694    9.6559 C   0  0  0  0  0  0  0  0  0  0  0  0
    0.5417   -3.5637   10.3730 C   0  0  0  0  0  0  0  0  0  0  0  0
   -0.3791   -2.9107    8.2668 O   0  0  0  0  0  0  0  0  0  0  0  0
    0.8259   -3.0224    7.5346 C   0  0  2  0  0  0  0  0  0  0  0  0
   -0.1164   -0.8366    6.0062 H   0  0  0  0  0  0  0  0  0  0  0  0
   -1.3617   -2.0907    5.9133 H   0  0  0  0  0  0  0  0  0  0  0  0
   -0.3823   -1.6841    4.4874 H   0  0  0  0  0  0  0  0  0  0  0  0
    1.6768   -2.5295    5.6447 H   0  0  0  0  0  0  0  0  0  0  0  0
    0.7014   -5.9626    6.1856 H   0  0  0  0  0  0  0  0  0  0  0  0
    3.2759   -4.0836    0.3380 H   0  0  0  0  0  0  0  0  0  0  0  0
    1.8547   -3.8377    1.3391 H   0  0  0  0  0  0  0  0  0  0  0  0
    2.2854   -5.4538    0.8197 H   0  0  0  0  0  0  0  0  0  0  0  0
    4.8696   -2.9061    2.3770 H   0  0  0  0  0  0  0  0  0  0  0  0
    4.1230   -3.1832    3.9582 H   0  0  0  0  0  0  0  0  0  0  0  0
    3.1787   -2.5115    2.6807 H   0  0  0  0  0  0  0  0  0  0  0  0
    5.7037   -5.1037    2.3953 H   0  0  0  0  0  0  0  0  0  0  0  0
    4.6722   -8.0719   -0.3570 H   0  0  0  0  0  0  0  0  0  0  0  0
    2.8031   -7.0282    2.2165 H   0  0  0  0  0  0  0  0  0  0  0  0
    5.5988   -7.3377    3.2850 H   0  0  0  0  0  0  0  0  0  0  0  0
    4.4596   -7.0385    5.3935 H   0  0  0  0  0  0  0  0  0  0  0  0
    5.6907   -4.4188    4.5444 H   0  0  0  0  0  0  0  0  0  0  0  0
    6.3348   -5.7566    5.4218 H   0  0  0  0  0  0  0  0  0  0  0  0
    5.0817   -4.7976    6.1683 H   0  0  0  0  0  0  0  0  0  0  0  0
    0.7722   -8.0553    2.6264 H   0  0  0  0  0  0  0  0  0  0  0  0
    0.0487   -8.1945    5.0306 H   0  0  0  0  0  0  0  0  0  0  0  0
   -0.6708   -9.4577    4.0859 H   0  0  0  0  0  0  0  0  0  0  0  0
    0.2545  -10.3547    6.2176 H   0  0  0  0  0  0  0  0  0  0  0  0
    1.5682  -12.2215    5.2303 H   0  0  0  0  0  0  0  0  0  0  0  0
    0.1877  -11.8527    4.2304 H   0  0  0  0  0  0  0  0  0  0  0  0
    2.2353  -12.1018    2.8463 H   0  0  0  0  0  0  0  0  0  0  0  0
    0.4687  -10.4691    2.1223 H   0  0  0  0  0  0  0  0  0  0  0  0
    2.0293   -9.9755    1.5865 H   0  0  0  0  0  0  0  0  0  0  0  0
    3.8694  -11.4253    4.5827 H   0  0  0  0  0  0  0  0  0  0  0  0
    4.1306  -10.5372    3.1100 H   0  0  0  0  0  0  0  0  0  0  0  0
    4.2041   -9.0886    5.1109 H   0  0  0  0  0  0  0  0  0  0  0  0
    2.1229   -8.7522    6.5209 H   0  0  0  0  0  0  0  0  0  0  0  0
    2.7243  -10.3845    6.5745 H   0  0  0  0  0  0  0  0  0  0  0  0
    2.1871   -4.6172    8.1643 H   0  0  0  0  0  0  0  0  0  0  0  0
   -2.4575   -4.5691    8.8754 H   0  0  0  0  0  0  0  0  0  0  0  0
   -2.1534   -3.3842   10.1733 H   0  0  0  0  0  0  0  0  0  0  0  0
   -1.7044   -5.0332   10.4203 H   0  0  0  0  0  0  0  0  0  0  0  0
    1.5645   -3.2798   10.1263 H   0  0  0  0  0  0  0  0  0  0  0  0
    0.5659   -4.3899   11.0769 H   0  0  0  0  0  0  0  0  0  0  0  0
    0.0688   -2.7197   10.8752 H   0  0  0  0  0  0  0  0  0  0  0  0
    1.5693   -2.3559    7.9562 H   0  0  0  0  0  0  0  0  0  0  0  0
    5.3332   -5.6756    0.0605 H   0  0  0  0  0  0  0  0  0  0  0  0
    3.5484   -9.2485    1.3062 H   0  0  0  0  0  0  0  0  0  0  0  0
  1  2  1  0
  1 37  1  0
  1 38  1  0
  1 39  1  0
  2 36  1  0
  2  3  1  0
  2 40  1  6
  3  4  1  0
  4  5  1  0
  4 30  1  0
  4 41  1  1
  6  5  1  1
  6 17  1  0
  6 20  1  0
  6  7  1  0
  7  8  1  0
  8  9  1  0
  8 10  1  0
  8 11  1  0
  9 42  1  0
  9 43  1  0
  9 44  1  0
 10 45  1  0
 10 46  1  0
 10 47  1  0
 11 16  1  0
 11 48  1  1
 11 12  1  0
 12 78  1  0
 12 13  2  0
 13 49  1  0
 13 14  1  0
 14 15  1  0
 14 79  1  0
 15 16  1  0
 15 19  1  0
 15 50  1  6
 16 17  1  0
 16 51  1  1
 17 18  1  0
 17 52  1  1
 18 53  1  0
 18 54  1  0
 18 55  1  0
 19 28  1  0
 19 20  1  1
 19 21  1  0
 21 26  1  0
 21 22  1  0
 21 56  1  6
 22 23  1  0
 22 57  1  0
 22 58  1  0
 23 29  1  0
 23 24  1  0
 23 59  1  1
 24 25  1  0
 24 60  1  0
 24 61  1  0
 25 26  1  0
 25 27  1  0
 25 62  1  6
 26 63  1  0
 26 64  1  0
 27 28  1  0
 27 65  1  0
 27 66  1  0
 28 29  1  0
 28 67  1  1
 29 68  1  0
 29 69  1  0
 30 36  1  0
 30 31  1  0
 30 70  1  1
 31 32  1  0
 32 33  1  0
 32 34  1  0
 32 35  1  0
 33 71  1  0
 33 72  1  0
 33 73  1  0
 34 74  1  0
 34 75  1  0
 34 76  1  0
 35 36  1  0
 36 77  1  1
M  END
>  <i_m_ct_stereo_status>  (81) 
1

>  <s_m_source_file>  (81) 
/var/tmp/pbs.5076255.sched01/tmplremgrqo/0ygzoxw5b.sdf

>  <i_m_source_file_index>  (81) 
39

>  <i_lp_mmshare_version>  (81) 
48012

>  <i_f3d_flags>  (81) 
0

>  <s_epik_input>  (81) 
TzFDKFtDSDNdKShbQ0gzXSlPW0NAQEhdKFtDQEBIXTEyKVtDQEhdKFtDSDNdKU9bQ0BIXTJPW0NAXShPMykoW0NAQEhdNFtDSDNdKU9DKFtDSDNdKShbQ0gzXSlbQ0BIXShbQ0hdPVtDSF1bTkhdNSlbQ0BASF00W0NAQEhdNVtDQF0zNltDQEBIXTdbQ0gyXVtDQEhdOFtDSDJdW0NAQEhdKFtDSDJdNylbQ0gyXVtDQEBIXTZbQ0gyXTg=

>  <s_epik_cmdline>  (81) 
J2VwaWtfcHl0aG9uJywgJy1waHQnLCAnMi4wJywgJy1waCcsICc3LjAnLCAnLXRuJywgJzgnLCAnLW1hJywgJzIwMCcsICctaW1hZScsICc8aW5maWxlLm1hZT4nLCAnLW9tYWUnLCAnPG91dGZpbGUubWFlPic=

>  <r_lp_tautomer_probability>  (81) 
1

>  <r_epik_Ionization_Penalty>  (81) 
0.000351687

>  <r_epik_Ionization_Penalty_Charging>  (81) 
6.15627e-07

>  <r_epik_Ionization_Penalty_Neutral>  (81) 
0.000351071

>  <r_epik_State_Penalty>  (81) 
-0

>  <r_epik_Charging_Adjusted_Penalty>  (81) 
6.15627e-07

>  <i_epik_Tot_Q>  (81) 
0

>  <i_epik_Tot_abs_Q>  (81) 
0

>  <s_epik_Chemistry_Notes>  (81) 
This compound has an imine and may undergo hydrolysis. This compound contains an acetal/aminal-like group ( X-CH(R)-Y where X, Y are N, S, or O) that may be acid/base labile, releasing an aldehyde.

>  <s_lp_Force_Field>  (81) 
OPLS3e

>  <r_lp_Energy>  (81) 
54.0563

>  <b_lp_Chiralities_Consistent>  (81) 
1

>  <s_lp_Variant>  (81) 
22:0-1

>  <s_i_glide_gridfile>  (81) 
pfpi4k_grid

>  <i_i_glide_lignum>  (81) 
39

>  <i_i_glide_rotatable_bonds>  (81) 
2

>  <r_i_docking_score>  (81) 
-2.27725

>  <r_i_glide_ligand_efficiency>  (81) 
-0.0632568

>  <r_i_glide_ligand_efficiency_sa>  (81) 
-0.208869

>  <r_i_glide_ligand_efficiency_ln>  (81) 
-0.496833

>  <r_i_glide_gscore>  (81) 
-2.27725

>  <r_i_glide_lipo>  (81) 
-0.470747

>  <r_i_glide_hbond>  (81) 
-0.13911

>  <r_i_glide_metal>  (81) 
-0

>  <r_i_glide_rewards>  (81) 
0

>  <r_i_glide_evdw>  (81) 
-28.2164

>  <r_i_glide_ecoul>  (81) 
-2.46607

>  <r_i_glide_erotb>  (81) 
0.162347

>  <r_i_glide_esite>  (81) 
-0.0490024

>  <r_i_glide_emodel>  (81) 
-33.0234

>  <r_i_glide_energy>  (81) 
-30.6825

>  <r_i_glide_einternal>  (81) 
2.15007

>  <r_i_glide_intrahb_reward>  (81) 
-0

>  <i_i_glide_confnum>  (81) 
2

>  <i_i_glide_posenum>  (81) 
8

>  <r_i_glide_eff_state_penalty>  (81) 
0

>  <ligand_id>  (81) 
22

>  <original_smiles>  (81) 
CC1OC(OC23OC(C)(C)C4C=CNC(C4C2C)C2(O3)C3CC4CC(C3)CC2C4)C2OC(C)(C)OC12

>  <smiles>  (81) 
[H]C1=C([H])C2([H])C3([H])C([H])(N1[H])C1(OC(OC4([H])OC([H])(C([H])([H])[H])C5([H])OC(C([H])([H])[H])(C([H])([H])[H])OC45[H])(OC2(C([H])([H])[H])C([H])([H])[H])C3([H])C([H])([H])[H])C2([H])C([H])([H])C3([H])C([H])([H])C([H])(C2([H])[H])C([H])([H])C1([H])C3([H])[H]

$$$$
22:0:1
     RDKit          3D

 79 86  0  0  1  0  0  0  0  0999 V2000
    8.5288   -3.3776   -0.6135 C   0  0  0  0  0  0  0  0  0  0  0  0
    7.4655   -3.6979    0.4533 C   0  0  2  0  0  0  0  0  0  0  0  0
    6.7387   -4.8716    0.1913 O   0  0  0  0  0  0  0  0  0  0  0  0
    5.5981   -4.8897    0.9860 C   0  0  1  0  0  0  0  0  0  0  0  0
    5.9167   -5.3856    2.2775 O   0  0  0  0  0  0  0  0  0  0  0  0
    4.9241   -6.1576    2.9314 C   0  0  1  0  0  0  0  0  0  0  0  0
    4.4687   -7.2305    2.1035 O   0  0  0  0  0  0  0  0  0  0  0  0
    4.5805   -8.6492    2.4117 C   0  0  0  0  0  0  0  0  0  0  0  0
    3.4018   -9.2948    1.6468 C   0  0  0  0  0  0  0  0  0  0  0  0
    5.8789   -9.0708    1.6966 C   0  0  0  0  0  0  0  0  0  0  0  0
    4.5590   -9.0085    3.9570 C   0  0  2  0  0  0  0  0  0  0  0  0
    3.4072   -9.9191    4.4372 C   0  0  0  0  0  0  0  0  0  0  0  0
    2.3347   -9.4178    5.1492 C   0  0  0  0  0  0  0  0  0  0  0  0
    2.1931   -8.0695    5.3881 N   0  0  0  0  0  0  0  0  0  0  0  0
    3.0562   -7.2168    4.5809 C   0  0  2  0  0  0  0  0  0  0  0  0
    4.5057   -7.7122    4.7644 C   0  0  2  0  0  0  0  0  0  0  0  0
    5.5219   -6.6913    4.2596 C   0  0  1  0  0  0  0  0  0  0  0  0
    6.9960   -7.1567    4.2634 C   0  0  0  0  0  0  0  0  0  0  0  0
    2.9071   -5.6927    4.4208 C   0  0  1  0  0  0  0  0  0  0  0  0
    3.8298   -5.3331    3.3355 O   0  0  0  0  0  0  0  0  0  0  0  0
    1.5147   -5.2364    3.8793 C   0  0  2  0  0  0  0  0  0  0  0  0
    1.5661   -3.7286    3.5156 C   0  0  0  0  0  0  0  0  0  0  0  0
    1.8853   -2.8960    4.7748 C   0  0  1  0  0  0  0  0  0  0  0  0
    0.7691   -3.1059    5.8174 C   0  0  0  0  0  0  0  0  0  0  0  0
    0.6959   -4.6026    6.1829 C   0  0  1  0  0  0  0  0  0  0  0  0
    0.3787   -5.4296    4.9200 C   0  0  0  0  0  0  0  0  0  0  0  0
    2.0527   -5.0496    6.7646 C   0  0  0  0  0  0  0  0  0  0  0  0
    3.1751   -4.8516    5.7193 C   0  0  2  0  0  0  0  0  0  0  0  0
    3.2413   -3.3483    5.3611 C   0  0  0  0  0  0  0  0  0  0  0  0
    5.1696   -3.4137    1.0669 C   0  0  2  0  0  0  0  0  0  0  0  0
    4.2277   -3.0768    0.0743 O   0  0  0  0  0  0  0  0  0  0  0  0
    4.6564   -1.8533   -0.4046 C   0  0  0  0  0  0  0  0  0  0  0  0
    4.0877   -1.5812   -1.8107 C   0  0  0  0  0  0  0  0  0  0  0  0
    4.2431   -0.7217    0.5584 C   0  0  0  0  0  0  0  0  0  0  0  0
    6.0307   -1.9172   -0.4746 O   0  0  0  0  0  0  0  0  0  0  0  0
    6.3978   -2.6344    0.6783 C   0  0  2  0  0  0  0  0  0  0  0  0
    9.0482   -2.4573   -0.3263 H   0  0  0  0  0  0  0  0  0  0  0  0
    8.0951   -3.2139   -1.6036 H   0  0  0  0  0  0  0  0  0  0  0  0
    9.2933   -4.1496   -0.7094 H   0  0  0  0  0  0  0  0  0  0  0  0
    7.9583   -3.8847    1.4029 H   0  0  0  0  0  0  0  0  0  0  0  0
    4.9459   -5.5152    0.3834 H   0  0  0  0  0  0  0  0  0  0  0  0
    3.4292  -10.3837    1.6936 H   0  0  0  0  0  0  0  0  0  0  0  0
    3.4317   -9.0259    0.5914 H   0  0  0  0  0  0  0  0  0  0  0  0
    2.4319   -8.9756    2.0241 H   0  0  0  0  0  0  0  0  0  0  0  0
    6.2468  -10.0380    2.0363 H   0  0  0  0  0  0  0  0  0  0  0  0
    6.6636   -8.3300    1.8262 H   0  0  0  0  0  0  0  0  0  0  0  0
    5.7295   -9.1375    0.6184 H   0  0  0  0  0  0  0  0  0  0  0  0
    5.4624   -9.5591    4.2206 H   0  0  0  0  0  0  0  0  0  0  0  0
    1.5312  -10.0463    5.5092 H   0  0  0  0  0  0  0  0  0  0  0  0
    2.6977   -7.5266    3.6044 H   0  0  0  0  0  0  0  0  0  0  0  0
    4.7035   -7.9224    5.8140 H   0  0  0  0  0  0  0  0  0  0  0  0
    5.5666   -5.8378    4.9326 H   0  0  0  0  0  0  0  0  0  0  0  0
    7.1770   -8.1358    3.8294 H   0  0  0  0  0  0  0  0  0  0  0  0
    7.3268   -7.2399    5.2969 H   0  0  0  0  0  0  0  0  0  0  0  0
    7.6529   -6.4278    3.7854 H   0  0  0  0  0  0  0  0  0  0  0  0
    1.2796   -5.8052    2.9791 H   0  0  0  0  0  0  0  0  0  0  0  0
    2.3003   -3.5241    2.7352 H   0  0  0  0  0  0  0  0  0  0  0  0
    0.6123   -3.4090    3.1031 H   0  0  0  0  0  0  0  0  0  0  0  0
    1.9419   -1.8418    4.5043 H   0  0  0  0  0  0  0  0  0  0  0  0
    0.9719   -2.5083    6.7080 H   0  0  0  0  0  0  0  0  0  0  0  0
   -0.1881   -2.7674    5.4198 H   0  0  0  0  0  0  0  0  0  0  0  0
   -0.0855   -4.7598    6.9295 H   0  0  0  0  0  0  0  0  0  0  0  0
   -0.5875   -5.1149    4.5063 H   0  0  0  0  0  0  0  0  0  0  0  0
    0.2214   -6.4719    5.1800 H   0  0  0  0  0  0  0  0  0  0  0  0
    2.2759   -4.4656    7.6599 H   0  0  0  0  0  0  0  0  0  0  0  0
    2.0032   -6.0829    7.1038 H   0  0  0  0  0  0  0  0  0  0  0  0
    4.0968   -5.1303    6.2265 H   0  0  0  0  0  0  0  0  0  0  0  0
    4.0386   -3.1500    4.6453 H   0  0  0  0  0  0  0  0  0  0  0  0
    3.4877   -2.7637    6.2513 H   0  0  0  0  0  0  0  0  0  0  0  0
    4.7783   -3.1674    2.0550 H   0  0  0  0  0  0  0  0  0  0  0  0
    4.3206   -2.3405   -2.5552 H   0  0  0  0  0  0  0  0  0  0  0  0
    4.4601   -0.6145   -2.1504 H   0  0  0  0  0  0  0  0  0  0  0  0
    3.0083   -1.4747   -1.7268 H   0  0  0  0  0  0  0  0  0  0  0  0
    4.6348   -0.8095    1.5658 H   0  0  0  0  0  0  0  0  0  0  0  0
    3.1600   -0.6862    0.6012 H   0  0  0  0  0  0  0  0  0  0  0  0
    4.5963    0.2101    0.1345 H   0  0  0  0  0  0  0  0  0  0  0  0
    6.7027   -1.9389    1.4502 H   0  0  0  0  0  0  0  0  0  0  0  0
    3.4868  -10.9682    4.2392 H   0  0  0  0  0  0  0  0  0  0  0  0
    1.2718   -7.7266    5.6386 H   0  0  0  0  0  0  0  0  0  0  0  0
  1  2  1  0
  1 37  1  0
  1 38  1  0
  1 39  1  0
  2 36  1  0
  2  3  1  0
  2 40  1  1
  3  4  1  0
  4  5  1  0
  4 30  1  0
  4 41  1  6
  6  5  1  6
  6 17  1  0
  6 20  1  0
  6  7  1  0
  7  8  1  0
  8  9  1  0
  8 10  1  0
  8 11  1  0
  9 42  1  0
  9 43  1  0
  9 44  1  0
 10 45  1  0
 10 46  1  0
 10 47  1  0
 11 16  1  0
 11 48  1  1
 11 12  1  0
 12 78  1  0
 12 13  2  0
 13 49  1  0
 13 14  1  0
 14 15  1  0
 14 79  1  0
 15 16  1  0
 15 19  1  0
 15 50  1  6
 16 17  1  0
 16 51  1  1
 17 18  1  0
 17 52  1  1
 18 53  1  0
 18 54  1  0
 18 55  1  0
 19 28  1  0
 19 20  1  6
 19 21  1  0
 21 26  1  0
 21 22  1  0
 21 56  1  6
 22 23  1  0
 22 57  1  0
 22 58  1  0
 23 29  1  0
 23 24  1  0
 23 59  1  6
 24 25  1  0
 24 60  1  0
 24 61  1  0
 25 26  1  0
 25 27  1  0
 25 62  1  1
 26 63  1  0
 26 64  1  0
 27 28  1  0
 27 65  1  0
 27 66  1  0
 28 29  1  0
 28 67  1  1
 29 68  1  0
 29 69  1  0
 30 36  1  0
 30 31  1  0
 30 70  1  1
 31 32  1  0
 32 33  1  0
 32 34  1  0
 32 35  1  0
 33 71  1  0
 33 72  1  0
 33 73  1  0
 34 74  1  0
 34 75  1  0
 34 76  1  0
 35 36  1  0
 36 77  1  1
M  END
>  <i_m_ct_stereo_status>  (82) 
1

>  <s_m_source_file>  (82) 
/var/tmp/pbs.5076255.sched01/tmplremgrqo/0ygzoxw5b.sdf

>  <i_m_source_file_index>  (82) 
39

>  <i_lp_mmshare_version>  (82) 
48012

>  <i_f3d_flags>  (82) 
0

>  <s_epik_input>  (82) 
TzFDKFtDSDNdKShbQ0gzXSlPW0NAQEhdKFtDQEBIXTEyKVtDQEhdKFtDSDNdKU9bQ0BIXTJPW0NAXShPMykoW0NAQEhdNFtDSDNdKU9DKFtDSDNdKShbQ0gzXSlbQ0BIXShbQ0hdPVtDSF1bTkhdNSlbQ0BASF00W0NAQEhdNVtDQF0zNltDQEBIXTdbQ0gyXVtDQEhdOFtDSDJdW0NAQEhdKFtDSDJdNylbQ0gyXVtDQEBIXTZbQ0gyXTg=

>  <s_epik_cmdline>  (82) 
J2VwaWtfcHl0aG9uJywgJy1waHQnLCAnMi4wJywgJy1waCcsICc3LjAnLCAnLXRuJywgJzgnLCAnLW1hJywgJzIwMCcsICctaW1hZScsICc8aW5maWxlLm1hZT4nLCAnLW9tYWUnLCAnPG91dGZpbGUubWFlPic=

>  <r_lp_tautomer_probability>  (82) 
1

>  <r_epik_Ionization_Penalty>  (82) 
0.000351687

>  <r_epik_Ionization_Penalty_Charging>  (82) 
6.15627e-07

>  <r_epik_Ionization_Penalty_Neutral>  (82) 
0.000351071

>  <r_epik_State_Penalty>  (82) 
-0

>  <r_epik_Charging_Adjusted_Penalty>  (82) 
6.15627e-07

>  <i_epik_Tot_Q>  (82) 
0

>  <i_epik_Tot_abs_Q>  (82) 
0

>  <s_epik_Chemistry_Notes>  (82) 
This compound has an imine and may undergo hydrolysis. This compound contains an acetal/aminal-like group ( X-CH(R)-Y where X, Y are N, S, or O) that may be acid/base labile, releasing an aldehyde.

>  <s_lp_Force_Field>  (82) 
OPLS3e

>  <r_lp_Energy>  (82) 
54.0563

>  <b_lp_Chiralities_Consistent>  (82) 
1

>  <s_lp_Variant>  (82) 
22:0-1

>  <s_i_glide_gridfile>  (82) 
pfpi4k_grid

>  <i_i_glide_lignum>  (82) 
39

>  <i_i_glide_rotatable_bonds>  (82) 
2

>  <r_i_docking_score>  (82) 
-2.09983

>  <r_i_glide_ligand_efficiency>  (82) 
-0.0583287

>  <r_i_glide_ligand_efficiency_sa>  (82) 
-0.192597

>  <r_i_glide_ligand_efficiency_ln>  (82) 
-0.458127

>  <r_i_glide_gscore>  (82) 
-2.09983

>  <r_i_glide_lipo>  (82) 
-0.421716

>  <r_i_glide_hbond>  (82) 
0

>  <r_i_glide_metal>  (82) 
-0

>  <r_i_glide_rewards>  (82) 
-0.10221

>  <r_i_glide_evdw>  (82) 
-30.6358

>  <r_i_glide_ecoul>  (82) 
-1.19307

>  <r_i_glide_erotb>  (82) 
0.162347

>  <r_i_glide_esite>  (82) 
-0.0275064

>  <r_i_glide_emodel>  (82) 
-33.1276

>  <r_i_glide_energy>  (82) 
-31.8289

>  <r_i_glide_einternal>  (82) 
3.55564

>  <r_i_glide_intrahb_reward>  (82) 
-0

>  <i_i_glide_confnum>  (82) 
4

>  <i_i_glide_posenum>  (82) 
5

>  <r_i_glide_eff_state_penalty>  (82) 
0

>  <ligand_id>  (82) 
22

>  <original_smiles>  (82) 
CC1OC(OC23OC(C)(C)C4C=CNC(C4C2C)C2(O3)C3CC4CC(C3)CC2C4)C2OC(C)(C)OC12

>  <smiles>  (82) 
[H]C1=C([H])C2([H])C3([H])C([H])(N1[H])C1(OC(OC4([H])OC([H])(C([H])([H])[H])C5([H])OC(C([H])([H])[H])(C([H])([H])[H])OC45[H])(OC2(C([H])([H])[H])C([H])([H])[H])C3([H])C([H])([H])[H])C2([H])C([H])([H])C3([H])C([H])([H])C([H])(C2([H])[H])C([H])([H])C1([H])C3([H])[H]

$$$$
22:0:2
     RDKit          3D

 79 86  0  0  1  0  0  0  0  0999 V2000
    4.5067   -0.6801    0.5907 C   0  0  0  0  0  0  0  0  0  0  0  0
    4.0106   -1.3420    1.8861 C   0  0  2  0  0  0  0  0  0  0  0  0
    3.0979   -2.3847    1.6680 O   0  0  0  0  0  0  0  0  0  0  0  0
    2.4828   -2.6950    2.8752 C   0  0  1  0  0  0  0  0  0  0  0  0
    3.2682   -3.5271    3.7071 O   0  0  0  0  0  0  0  0  0  0  0  0
    3.4282   -4.8759    3.3162 C   0  0  1  0  0  0  0  0  0  0  0  0
    3.9426   -4.9469    1.9877 O   0  0  0  0  0  0  0  0  0  0  0  0
    5.2316   -5.4980    1.6175 C   0  0  0  0  0  0  0  0  0  0  0  0
    5.0201   -5.9010    0.1424 C   0  0  0  0  0  0  0  0  0  0  0  0
    6.1946   -4.2966    1.6265 C   0  0  0  0  0  0  0  0  0  0  0  0
    5.7300   -6.6961    2.5230 C   0  0  2  0  0  0  0  0  0  0  0  0
    5.9343   -8.0629    1.8194 C   0  0  0  0  0  0  0  0  0  0  0  0
    5.0470   -9.0884    1.9575 C   0  0  0  0  0  0  0  0  0  0  0  0
    3.8682   -8.9432    2.6713 N   0  0  0  0  0  0  0  0  0  0  0  0
    3.5134   -7.5604    2.9779 C   0  0  2  0  0  0  0  0  0  0  0  0
    4.7316   -6.9052    3.6607 C   0  0  2  0  0  0  0  0  0  0  0  0
    4.3550   -5.5840    4.3287 C   0  0  1  0  0  0  0  0  0  0  0  0
    5.5278   -4.7775    4.9299 C   0  0  0  0  0  0  0  0  0  0  0  0
    2.1441   -7.0729    3.4873 C   0  0  1  0  0  0  0  0  0  0  0  0
    2.1950   -5.6014    3.4087 O   0  0  0  0  0  0  0  0  0  0  0  0
    0.9549   -7.4700    2.5560 C   0  0  2  0  0  0  0  0  0  0  0  0
   -0.3199   -6.7372    3.0200 C   0  0  0  0  0  0  0  0  0  0  0  0
   -0.6858   -7.1425    4.4615 C   0  0  1  0  0  0  0  0  0  0  0  0
   -0.9614   -8.6511    4.4855 C   0  0  0  0  0  0  0  0  0  0  0  0
    0.2927   -9.4126    4.0232 C   0  0  1  0  0  0  0  0  0  0  0  0
    0.6471   -8.9884    2.5878 C   0  0  0  0  0  0  0  0  0  0  0  0
    1.4631   -9.0826    4.9642 C   0  0  0  0  0  0  0  0  0  0  0  0
    1.7581   -7.5603    4.9296 C   0  0  2  0  0  0  0  0  0  0  0  0
    0.4928   -6.8123    5.4050 C   0  0  0  0  0  0  0  0  0  0  0  0
    2.3164   -1.3123    3.5758 C   0  0  2  0  0  0  0  0  0  0  0  0
    1.0764   -0.6833    3.3353 O   0  0  0  0  0  0  0  0  0  0  0  0
    1.4059    0.6307    3.0664 C   0  0  0  0  0  0  0  0  0  0  0  0
    0.2844    1.3378    2.2661 C   0  0  0  0  0  0  0  0  0  0  0  0
    1.6573    1.4217    4.3779 C   0  0  0  0  0  0  0  0  0  0  0  0
    2.5606    0.6182    2.3249 O   0  0  0  0  0  0  0  0  0  0  0  0
    3.3226   -0.4120    2.8916 C   0  0  2  0  0  0  0  0  0  0  0  0
    5.2158    0.1161    0.8355 H   0  0  0  0  0  0  0  0  0  0  0  0
    3.6744   -0.2522    0.0339 H   0  0  0  0  0  0  0  0  0  0  0  0
    5.0198   -1.3907   -0.0590 H   0  0  0  0  0  0  0  0  0  0  0  0
    4.8623   -1.7689    2.4085 H   0  0  0  0  0  0  0  0  0  0  0  0
    1.5317   -3.1741    2.6487 H   0  0  0  0  0  0  0  0  0  0  0  0
    5.9586   -6.2258   -0.3066 H   0  0  0  0  0  0  0  0  0  0  0  0
    4.6533   -5.0673   -0.4554 H   0  0  0  0  0  0  0  0  0  0  0  0
    4.3004   -6.7112    0.0287 H   0  0  0  0  0  0  0  0  0  0  0  0
    7.2448   -4.5944    1.6142 H   0  0  0  0  0  0  0  0  0  0  0  0
    6.0313   -3.6795    2.5026 H   0  0  0  0  0  0  0  0  0  0  0  0
    6.0217   -3.6404    0.7742 H   0  0  0  0  0  0  0  0  0  0  0  0
    6.7073   -6.4617    2.9473 H   0  0  0  0  0  0  0  0  0  0  0  0
    5.1738  -10.0624    1.4903 H   0  0  0  0  0  0  0  0  0  0  0  0
    3.4455   -7.2096    1.9518 H   0  0  0  0  0  0  0  0  0  0  0  0
    5.1499   -7.5718    4.4100 H   0  0  0  0  0  0  0  0  0  0  0  0
    3.7523   -5.7657    5.2153 H   0  0  0  0  0  0  0  0  0  0  0  0
    6.3794   -4.6634    4.2736 H   0  0  0  0  0  0  0  0  0  0  0  0
    5.9096   -5.3120    5.7962 H   0  0  0  0  0  0  0  0  0  0  0  0
    5.2098   -3.7930    5.2808 H   0  0  0  0  0  0  0  0  0  0  0  0
    1.1763   -7.1741    1.5288 H   0  0  0  0  0  0  0  0  0  0  0  0
   -0.1637   -5.6623    2.9881 H   0  0  0  0  0  0  0  0  0  0  0  0
   -1.1509   -6.9647    2.3498 H   0  0  0  0  0  0  0  0  0  0  0  0
   -1.5733   -6.6011    4.7859 H   0  0  0  0  0  0  0  0  0  0  0  0
   -1.2326   -8.9692    5.4949 H   0  0  0  0  0  0  0  0  0  0  0  0
   -1.8128   -8.8947    3.8470 H   0  0  0  0  0  0  0  0  0  0  0  0
    0.0904  -10.4834    4.0520 H   0  0  0  0  0  0  0  0  0  0  0  0
   -0.2039   -9.2040    1.9397 H   0  0  0  0  0  0  0  0  0  0  0  0
    1.4580   -9.5931    2.1933 H   0  0  0  0  0  0  0  0  0  0  0  0
    1.2095   -9.3906    5.9826 H   0  0  0  0  0  0  0  0  0  0  0  0
    2.3425   -9.6657    4.6987 H   0  0  0  0  0  0  0  0  0  0  0  0
    2.5537   -7.4016    5.6548 H   0  0  0  0  0  0  0  0  0  0  0  0
    0.6642   -5.7327    5.4268 H   0  0  0  0  0  0  0  0  0  0  0  0
    0.2497   -7.0973    6.4291 H   0  0  0  0  0  0  0  0  0  0  0  0
    2.4831   -1.4112    4.6571 H   0  0  0  0  0  0  0  0  0  0  0  0
    0.0424    0.8594    1.3214 H   0  0  0  0  0  0  0  0  0  0  0  0
    0.6003    2.3660    2.0670 H   0  0  0  0  0  0  0  0  0  0  0  0
   -0.6075    1.4077    2.8934 H   0  0  0  0  0  0  0  0  0  0  0  0
    2.4599    1.0283    4.9921 H   0  0  0  0  0  0  0  0  0  0  0  0
    0.7393    1.4366    4.9628 H   0  0  0  0  0  0  0  0  0  0  0  0
    1.9027    2.4523    4.1148 H   0  0  0  0  0  0  0  0  0  0  0  0
    4.0490   -0.0052    3.5956 H   0  0  0  0  0  0  0  0  0  0  0  0
    6.8407   -8.1890    1.2472 H   0  0  0  0  0  0  0  0  0  0  0  0
    3.1255   -9.6177    2.5140 H   0  0  0  0  0  0  0  0  0  0  0  0
  1  2  1  0
  1 37  1  0
  1 38  1  0
  1 39  1  0
  2 36  1  0
  2  3  1  0
  2 40  1  1
  3  4  1  0
  4  5  1  0
  4 30  1  0
  4 41  1  6
  6  5  1  1
  6 17  1  0
  6 20  1  0
  6  7  1  0
  7  8  1  0
  8  9  1  0
  8 10  1  0
  8 11  1  0
  9 42  1  0
  9 43  1  0
  9 44  1  0
 10 45  1  0
 10 46  1  0
 10 47  1  0
 11 16  1  0
 11 48  1  1
 11 12  1  0
 12 78  1  0
 12 13  2  0
 13 49  1  0
 13 14  1  0
 14 15  1  0
 14 79  1  0
 15 16  1  0
 15 19  1  0
 15 50  1  6
 16 17  1  0
 16 51  1  1
 17 18  1  0
 17 52  1  1
 18 53  1  0
 18 54  1  0
 18 55  1  0
 19 28  1  0
 19 20  1  1
 19 21  1  0
 21 26  1  0
 21 22  1  0
 21 56  1  6
 22 23  1  0
 22 57  1  0
 22 58  1  0
 23 29  1  0
 23 24  1  0
 23 59  1  1
 24 25  1  0
 24 60  1  0
 24 61  1  0
 25 26  1  0
 25 27  1  0
 25 62  1  6
 26 63  1  0
 26 64  1  0
 27 28  1  0
 27 65  1  0
 27 66  1  0
 28 29  1  0
 28 67  1  1
 29 68  1  0
 29 69  1  0
 30 36  1  0
 30 31  1  0
 30 70  1  1
 31 32  1  0
 32 33  1  0
 32 34  1  0
 32 35  1  0
 33 71  1  0
 33 72  1  0
 33 73  1  0
 34 74  1  0
 34 75  1  0
 34 76  1  0
 35 36  1  0
 36 77  1  1
M  END
>  <i_m_ct_stereo_status>  (83) 
1

>  <s_m_source_file>  (83) 
/var/tmp/pbs.5076255.sched01/tmplremgrqo/0ygzoxw5b.sdf

>  <i_m_source_file_index>  (83) 
39

>  <i_lp_mmshare_version>  (83) 
48012

>  <i_f3d_flags>  (83) 
0

>  <s_epik_input>  (83) 
TzFDKFtDSDNdKShbQ0gzXSlPW0NAQEhdKFtDQEBIXTEyKVtDQEhdKFtDSDNdKU9bQ0BIXTJPW0NAXShPMykoW0NAQEhdNFtDSDNdKU9DKFtDSDNdKShbQ0gzXSlbQ0BIXShbQ0hdPVtDSF1bTkhdNSlbQ0BASF00W0NAQEhdNVtDQF0zNltDQEBIXTdbQ0gyXVtDQEhdOFtDSDJdW0NAQEhdKFtDSDJdNylbQ0gyXVtDQEBIXTZbQ0gyXTg=

>  <s_epik_cmdline>  (83) 
J2VwaWtfcHl0aG9uJywgJy1waHQnLCAnMi4wJywgJy1waCcsICc3LjAnLCAnLXRuJywgJzgnLCAnLW1hJywgJzIwMCcsICctaW1hZScsICc8aW5maWxlLm1hZT4nLCAnLW9tYWUnLCAnPG91dGZpbGUubWFlPic=

>  <r_lp_tautomer_probability>  (83) 
1

>  <r_epik_Ionization_Penalty>  (83) 
0.000351687

>  <r_epik_Ionization_Penalty_Charging>  (83) 
6.15627e-07

>  <r_epik_Ionization_Penalty_Neutral>  (83) 
0.000351071

>  <r_epik_State_Penalty>  (83) 
-0

>  <r_epik_Charging_Adjusted_Penalty>  (83) 
6.15627e-07

>  <i_epik_Tot_Q>  (83) 
0

>  <i_epik_Tot_abs_Q>  (83) 
0

>  <s_epik_Chemistry_Notes>  (83) 
This compound has an imine and may undergo hydrolysis. This compound contains an acetal/aminal-like group ( X-CH(R)-Y where X, Y are N, S, or O) that may be acid/base labile, releasing an aldehyde.

>  <s_lp_Force_Field>  (83) 
OPLS3e

>  <r_lp_Energy>  (83) 
54.0563

>  <b_lp_Chiralities_Consistent>  (83) 
1

>  <s_lp_Variant>  (83) 
22:0-1

>  <s_i_glide_gridfile>  (83) 
pfpi4k_grid

>  <i_i_glide_lignum>  (83) 
39

>  <i_i_glide_rotatable_bonds>  (83) 
2

>  <r_i_docking_score>  (83) 
-1.77323

>  <r_i_glide_ligand_efficiency>  (83) 
-0.0492564

>  <r_i_glide_ligand_efficiency_sa>  (83) 
-0.162641

>  <r_i_glide_ligand_efficiency_ln>  (83) 
-0.386871

>  <r_i_glide_gscore>  (83) 
-1.77323

>  <r_i_glide_lipo>  (83) 
-0.385865

>  <r_i_glide_hbond>  (83) 
0

>  <r_i_glide_metal>  (83) 
-0

>  <r_i_glide_rewards>  (83) 
0

>  <r_i_glide_evdw>  (83) 
-31.4358

>  <r_i_glide_ecoul>  (83) 
0.378921

>  <r_i_glide_erotb>  (83) 
0.162347

>  <r_i_glide_esite>  (83) 
-0.0347599

>  <r_i_glide_emodel>  (83) 
-33.4938

>  <r_i_glide_energy>  (83) 
-31.0569

>  <r_i_glide_einternal>  (83) 
0.246428

>  <r_i_glide_intrahb_reward>  (83) 
-0

>  <i_i_glide_confnum>  (83) 
4

>  <i_i_glide_posenum>  (83) 
35

>  <r_i_glide_eff_state_penalty>  (83) 
0

>  <ligand_id>  (83) 
22

>  <original_smiles>  (83) 
CC1OC(OC23OC(C)(C)C4C=CNC(C4C2C)C2(O3)C3CC4CC(C3)CC2C4)C2OC(C)(C)OC12

>  <smiles>  (83) 
[H]C1=C([H])C2([H])C3([H])C([H])(N1[H])C1(OC(OC4([H])OC([H])(C([H])([H])[H])C5([H])OC(C([H])([H])[H])(C([H])([H])[H])OC45[H])(OC2(C([H])([H])[H])C([H])([H])[H])C3([H])C([H])([H])[H])C2([H])C([H])([H])C3([H])C([H])([H])C([H])(C2([H])[H])C([H])([H])C1([H])C3([H])[H]

$$$$
23:0:0
     RDKit          3D

 89 94  0  0  1  0  0  0  0  0999 V2000
   -0.0639   -5.1024    7.9685 C   0  0  0  0  0  0  0  0  0  0  0  0
   -0.0280   -6.5240    7.9788 O   0  0  0  0  0  0  0  0  0  0  0  0
    0.9319   -7.1126    7.0975 C   0  0  2  0  0  0  0  0  0  0  0  0
    0.4968   -6.9744    5.6524 C   0  0  0  0  0  0  0  0  0  0  0  0
    0.9586   -7.4480    4.4647 C   0  0  0  0  0  0  0  0  0  0  0  0
    2.0900   -8.3768    3.8162 C   0  0  1  0  0  0  0  0  0  0  0  0
    1.1612   -9.6089    3.7451 C   0  0  0  0  0  0  0  0  0  0  0  0
    0.9693  -10.0769    5.2597 C   0  0  0  0  0  0  0  0  0  0  0  0
    1.9006   -9.3990    6.4229 C   0  0  2  0  0  0  0  0  0  0  0  0
    1.1676   -8.5733    7.5372 C   0  0  0  0  0  0  0  0  0  0  0  0
    1.9999   -8.5725    8.8456 C   0  0  0  0  0  0  0  0  0  0  0  0
   -0.1796   -9.2387    7.9191 C   0  0  0  0  0  0  0  0  0  0  0  0
    3.3605   -8.8619    5.9786 C   0  0  2  0  0  0  0  0  0  0  0  0
    4.4094   -9.7578    6.7024 C   0  0  0  0  0  0  0  0  0  0  0  0
    3.8928   -7.3680    6.0321 C   0  0  0  0  0  0  0  0  0  0  0  0
    3.5281   -6.2269    4.9862 C   0  0  0  0  0  0  0  0  0  0  0  0
    3.4610   -6.2942    3.3760 C   0  0  2  0  0  0  0  0  0  0  0  0
    2.8987   -4.9037    2.9097 C   0  0  1  0  0  0  0  0  0  0  0  0
    3.6338   -3.6717    3.4848 C   0  0  0  0  0  0  0  0  0  0  0  0
    2.7719   -4.7098    1.3791 C   0  0  1  0  0  0  0  0  0  0  0  0
    4.0713   -4.4340    0.8359 O   0  0  0  0  0  0  0  0  0  0  0  0
    4.2030   -3.5871   -0.2742 C   0  0  2  0  0  0  0  0  0  0  0  0
    2.8857   -2.8512   -0.6381 C   0  0  0  0  0  0  0  0  0  0  0  0
    3.0243   -1.9974   -1.7923 N   0  0  0  0  0  0  0  0  0  0  0  0
    3.5716   -2.7430   -2.9527 C   0  0  0  0  0  0  0  0  0  0  0  0
    4.8829   -3.4457   -2.5425 C   0  0  0  0  0  0  0  0  0  0  0  0
    4.6506   -4.2860   -1.4121 O   0  0  0  0  0  0  0  0  0  0  0  0
    2.0664   -5.8828    0.6553 C   0  0  0  0  0  0  0  0  0  0  0  0
    1.6220   -6.9978    1.6060 C   0  0  0  0  0  0  0  0  0  0  0  0
    2.7221   -7.5279    2.6133 C   0  0  2  0  0  0  0  0  0  0  0  0
    3.7215   -8.3751    1.6725 C   0  0  1  0  0  0  0  0  0  0  0  0
    4.8351   -7.6072    0.9005 C   0  0  0  0  0  0  0  0  0  0  0  0
    4.3338   -9.6324    2.3294 C   0  0  1  0  0  0  0  0  0  0  0  0
    5.4123  -10.2432    1.6518 O   0  0  0  0  0  0  0  0  0  0  0  0
    4.6891   -9.3495    3.7709 C   0  0  1  0  0  0  0  0  0  0  0  0
    5.6915   -8.3551    3.8556 O   0  0  0  0  0  0  0  0  0  0  0  0
    3.3493   -9.1088    4.5229 C   0  0  2  0  0  0  0  0  0  0  0  0
   -0.8177   -4.7584    8.6761 H   0  0  0  0  0  0  0  0  0  0  0  0
   -0.3244   -4.7046    6.9872 H   0  0  0  0  0  0  0  0  0  0  0  0
    0.8969   -4.6812    8.2687 H   0  0  0  0  0  0  0  0  0  0  0  0
    1.8237   -6.5220    7.2499 H   0  0  0  0  0  0  0  0  0  0  0  0
   -0.4190   -6.4117    5.5683 H   0  0  0  0  0  0  0  0  0  0  0  0
    0.1964   -7.1969    3.7571 H   0  0  0  0  0  0  0  0  0  0  0  0
    0.1936   -9.3905    3.2870 H   0  0  0  0  0  0  0  0  0  0  0  0
    1.5666  -10.4110    3.1281 H   0  0  0  0  0  0  0  0  0  0  0  0
   -0.0882  -10.0217    5.4883 H   0  0  0  0  0  0  0  0  0  0  0  0
    1.1731  -11.1509    5.2750 H   0  0  0  0  0  0  0  0  0  0  0  0
    2.1256  -10.2967    6.9867 H   0  0  0  0  0  0  0  0  0  0  0  0
    2.1771   -9.5862    9.2093 H   0  0  0  0  0  0  0  0  0  0  0  0
    1.4861   -8.0337    9.6413 H   0  0  0  0  0  0  0  0  0  0  0  0
    2.9687   -8.0945    8.7295 H   0  0  0  0  0  0  0  0  0  0  0  0
   -0.0563  -10.3150    8.0348 H   0  0  0  0  0  0  0  0  0  0  0  0
   -0.9592   -9.0672    7.1783 H   0  0  0  0  0  0  0  0  0  0  0  0
   -0.5641   -8.8560    8.8659 H   0  0  0  0  0  0  0  0  0  0  0  0
    5.4320   -9.5317    6.4074 H   0  0  0  0  0  0  0  0  0  0  0  0
    4.2499  -10.8168    6.4949 H   0  0  0  0  0  0  0  0  0  0  0  0
    4.3610   -9.6325    7.7815 H   0  0  0  0  0  0  0  0  0  0  0  0
    3.7998   -6.9847    7.0452 H   0  0  0  0  0  0  0  0  0  0  0  0
    4.9788   -7.4319    5.9745 H   0  0  0  0  0  0  0  0  0  0  0  0
    2.6573   -5.6946    5.3511 H   0  0  0  0  0  0  0  0  0  0  0  0
    4.3220   -5.5126    5.1899 H   0  0  0  0  0  0  0  0  0  0  0  0
    4.5023   -6.2900    3.0735 H   0  0  0  0  0  0  0  0  0  0  0  0
    1.8823   -4.8604    3.3067 H   0  0  0  0  0  0  0  0  0  0  0  0
    4.7072   -3.7183    3.2979 H   0  0  0  0  0  0  0  0  0  0  0  0
    3.4715   -3.5467    4.5528 H   0  0  0  0  0  0  0  0  0  0  0  0
    3.2659   -2.7618    3.0155 H   0  0  0  0  0  0  0  0  0  0  0  0
    2.1451   -3.8305    1.2878 H   0  0  0  0  0  0  0  0  0  0  0  0
    4.9920   -2.8781    0.0049 H   0  0  0  0  0  0  0  0  0  0  0  0
    2.1091   -3.5983   -0.8424 H   0  0  0  0  0  0  0  0  0  0  0  0
    2.5664   -2.2842    0.2426 H   0  0  0  0  0  0  0  0  0  0  0  0
    2.1001   -1.6122   -1.9883 H   0  0  0  0  0  0  0  0  0  0  0  0
    2.8471   -3.4889   -3.2809 H   0  0  0  0  0  0  0  0  0  0  0  0
    3.7256   -2.0728   -3.7992 H   0  0  0  0  0  0  0  0  0  0  0  0
    5.2621   -4.0541   -3.3596 H   0  0  0  0  0  0  0  0  0  0  0  0
    5.6571   -2.7088   -2.3258 H   0  0  0  0  0  0  0  0  0  0  0  0
    1.1729   -5.4938    0.1779 H   0  0  0  0  0  0  0  0  0  0  0  0
    2.6285   -6.2572   -0.1906 H   0  0  0  0  0  0  0  0  0  0  0  0
    0.7836   -6.5159    2.0800 H   0  0  0  0  0  0  0  0  0  0  0  0
    1.1712   -7.8239    1.0553 H   0  0  0  0  0  0  0  0  0  0  0  0
    3.1067   -8.8045    0.8829 H   0  0  0  0  0  0  0  0  0  0  0  0
    5.6400   -7.2522    1.5393 H   0  0  0  0  0  0  0  0  0  0  0  0
    4.5097   -6.7604    0.3157 H   0  0  0  0  0  0  0  0  0  0  0  0
    5.2873   -8.2771    0.1750 H   0  0  0  0  0  0  0  0  0  0  0  0
    3.5710  -10.4072    2.3140 H   0  0  0  0  0  0  0  0  0  0  0  0
    5.0197  -10.9136    1.0695 H   0  0  0  0  0  0  0  0  0  0  0  0
    5.1678  -10.2473    4.1682 H   0  0  0  0  0  0  0  0  0  0  0  0
    6.4352   -8.6637    3.3624 H   0  0  0  0  0  0  0  0  0  0  0  0
    3.1892  -10.1879    4.5128 H   0  0  0  0  0  0  0  0  0  0  0  0
    3.6464   -1.2238   -1.5763 H   0  0  0  0  0  0  0  0  0  0  0  0
  1  2  1  0
  1 38  1  0
  1 39  1  0
  1 40  1  0
  2  3  1  0
  3 10  1  0
  3  4  1  0
  3 41  1  6
  4  5  2  3
  4 42  1  0
  5  6  1  0
  5 43  1  0
  6 30  1  0
  6 37  1  0
  6  7  1  6
  7  8  1  0
  7 44  1  0
  7 45  1  0
  8  9  1  0
  8 46  1  0
  8 47  1  0
  9 10  1  0
  9 13  1  0
  9 48  1  1
 10 11  1  0
 10 12  1  0
 11 49  1  0
 11 50  1  0
 11 51  1  0
 12 52  1  0
 12 53  1  0
 12 54  1  0
 13 37  1  0
 13 14  1  1
 13 15  1  0
 14 55  1  0
 14 56  1  0
 14 57  1  0
 15 16  1  0
 15 58  1  0
 15 59  1  0
 16 17  1  0
 16 60  1  0
 16 61  1  0
 17 30  1  0
 17 18  1  0
 17 62  1  6
 18 19  1  0
 18 20  1  0
 18 63  1  1
 19 64  1  0
 19 65  1  0
 19 66  1  0
 20 21  1  0
 20 28  1  0
 20 67  1  1
 21 22  1  0
 22 27  1  0
 22 23  1  0
 22 68  1  1
 23 24  1  0
 23 69  1  0
 23 70  1  0
 24 25  1  0
 24 71  1  0
 24 89  1  0
 25 26  1  0
 25 72  1  0
 25 73  1  0
 26 27  1  0
 26 74  1  0
 26 75  1  0
 28 29  1  0
 28 76  1  0
 28 77  1  0
 30 29  1  6
 29 78  1  0
 29 79  1  0
 30 31  1  0
 31 32  1  0
 31 33  1  0
 31 80  1  6
 32 81  1  0
 32 82  1  0
 32 83  1  0
 33 34  1  0
 33 35  1  0
 33 84  1  1
 34 85  1  0
 35 36  1  0
 35 37  1  0
 35 86  1  1
 36 87  1  0
 37 88  1  1
M  CHG  1  24   1
M  END
>  <i_m_ct_stereo_status>  (84) 
1

>  <s_m_source_file>  (84) 
/var/tmp/pbs.5076255.sched01/tmplremgrqo/0ygzoxw5b.sdf

>  <i_m_source_file_index>  (84) 
40

>  <i_lp_mmshare_version>  (84) 
48012

>  <i_f3d_flags>  (84) 
0

>  <s_epik_input>  (84) 
W0NIM11PW0NASF0oL1tDSF09W0NIXVwxKUMoW0NIM10pKFtDSDNdKVtDQEBIXShbQ0gyXVtDSDJdMilbQ0BAXShbQ0gzXSkoW0NAQEhdM1tDQEhdKFtPSF0pW0NASF0oW09IXSlbQ0BASF00W0NIM10pW0NIMl1bQ0gyXVtDQEBIXShbQ0BdNDVbQ0BAXTEyMylbQ0BASF0oW0NIM10pW0NASF0oW0NIMl1bQ0gyXTUpT1tDQEBIXTZbQ0gyXVtOSF1bQ0gyXVtDSDJdTzY=

>  <s_epik_cmdline>  (84) 
J2VwaWtfcHl0aG9uJywgJy1waHQnLCAnMi4wJywgJy1waCcsICc3LjAnLCAnLXRuJywgJzgnLCAnLW1hJywgJzIwMCcsICctaW1hZScsICc8aW5maWxlLm1hZT4nLCAnLW9tYWUnLCAnPG91dGZpbGUubWFlPic=

>  <r_epik_Ionization_Penalty>  (84) 
0.0638577

>  <r_epik_Ionization_Penalty_Charging>  (84) 
0.0638567

>  <r_epik_Ionization_Penalty_Neutral>  (84) 
9.61373e-07

>  <r_epik_State_Penalty>  (84) 
0.0555871

>  <r_epik_Charging_Adjusted_Penalty>  (84) 
0.119444

>  <i_epik_Tot_Q>  (84) 
1

>  <i_epik_Tot_abs_Q>  (84) 
1

>  <s_epik_Chemistry_Notes>  (84) 
This compound contains an acetal/aminal-like group ( X-CH(R)-Y where X, Y are N, S, or O) that may be acid/base labile, releasing an aldehyde.

>  <s_lp_Force_Field>  (84) 
OPLS3e

>  <r_lp_Energy>  (84) 
232.475

>  <b_lp_Chiralities_Consistent>  (84) 
1

>  <s_lp_Variant>  (84) 
23:0-1

>  <s_i_glide_gridfile>  (84) 
pfpi4k_grid

>  <i_i_glide_lignum>  (84) 
40

>  <i_i_glide_rotatable_bonds>  (84) 
5

>  <r_i_docking_score>  (84) 
-2.77651

>  <r_i_glide_ligand_efficiency>  (84) 
-0.0750408

>  <r_i_glide_ligand_efficiency_sa>  (84) 
-0.250053

>  <r_i_glide_ligand_efficiency_ln>  (84) 
-0.60216

>  <r_i_glide_gscore>  (84) 
-2.77651

>  <r_i_glide_lipo>  (84) 
-0.188654

>  <r_i_glide_hbond>  (84) 
-0.129578

>  <r_i_glide_metal>  (84) 
-0

>  <r_i_glide_rewards>  (84) 
-0.0271778

>  <r_i_glide_evdw>  (84) 
-24.0692

>  <r_i_glide_ecoul>  (84) 
-8.64947

>  <r_i_glide_erotb>  (84) 
0.15266

>  <r_i_glide_esite>  (84) 
-0.0828772

>  <r_i_glide_emodel>  (84) 
-27.1476

>  <r_i_glide_energy>  (84) 
-32.7187

>  <r_i_glide_einternal>  (84) 
23.5561

>  <r_i_glide_intrahb_reward>  (84) 
-0

>  <i_i_glide_confnum>  (84) 
3

>  <i_i_glide_posenum>  (84) 
18

>  <r_i_glide_eff_state_penalty>  (84) 
0

>  <ligand_id>  (84) 
23

>  <original_smiles>  (84) 
COC1C=CC23CCC(C1(C)C)C1(C)CCC4C(C)C(OC5CNCCO5)CCC42C(C)C(O)C(O)C13

>  <smiles>  (84) 
[H]OC1([H])C([H])(O[H])C([H])(C([H])([H])[H])C23C([H])([H])C([H])([H])C([H])(OC4([H])OC([H])([H])C([H])([H])[N+]([H])([H])C4([H])[H])C([H])(C([H])([H])[H])C2([H])C([H])([H])C([H])([H])C2(C([H])([H])[H])C1([H])C31C([H])=C([H])C([H])(OC([H])([H])[H])C(C([H])([H])[H])(C([H])([H])[H])C2([H])C([H])([H])C1([H])[H]

$$$$
23:0:1
     RDKit          3D

 89 94  0  0  1  0  0  0  0  0999 V2000
    0.4572   -5.1297    8.4196 C   0  0  0  0  0  0  0  0  0  0  0  0
    0.5320   -6.5500    8.4283 O   0  0  0  0  0  0  0  0  0  0  0  0
    1.4243   -7.1126    7.4626 C   0  0  2  0  0  0  0  0  0  0  0  0
    0.8379   -7.0061    6.0667 C   0  0  0  0  0  0  0  0  0  0  0  0
    1.1871   -7.4736    4.8401 C   0  0  0  0  0  0  0  0  0  0  0  0
    2.2804   -8.3586    4.0827 C   0  0  1  0  0  0  0  0  0  0  0  0
    1.3961   -9.6220    4.1194 C   0  0  0  0  0  0  0  0  0  0  0  0
    1.3775  -10.0890    5.6470 C   0  0  0  0  0  0  0  0  0  0  0  0
    2.3934   -9.3690    6.7037 C   0  0  2  0  0  0  0  0  0  0  0  0
    1.7527   -8.5581    7.8862 C   0  0  0  0  0  0  0  0  0  0  0  0
    2.7214   -8.5145    9.0968 C   0  0  0  0  0  0  0  0  0  0  0  0
    0.4724   -9.2540    8.4181 C   0  0  0  0  0  0  0  0  0  0  0  0
    3.7767   -8.7865    6.0993 C   0  0  2  0  0  0  0  0  0  0  0  0
    4.9311   -9.6329    6.7189 C   0  0  0  0  0  0  0  0  0  0  0  0
    4.2617   -7.2774    6.0860 C   0  0  0  0  0  0  0  0  0  0  0  0
    3.7517   -6.1521    5.0785 C   0  0  0  0  0  0  0  0  0  0  0  0
    3.5172   -6.2302    3.4837 C   0  0  2  0  0  0  0  0  0  0  0  0
    2.8607   -4.8612    3.0553 C   0  0  1  0  0  0  0  0  0  0  0  0
    3.6035   -3.6002    3.5525 C   0  0  0  0  0  0  0  0  0  0  0  0
    2.5889   -4.6969    1.5410 C   0  0  1  0  0  0  0  0  0  0  0  0
    3.8038   -4.4754    0.8259 O   0  0  0  0  0  0  0  0  0  0  0  0
    3.9021   -3.3103    0.0634 C   0  0  2  0  0  0  0  0  0  0  0  0
    2.8688   -3.3276   -1.0931 C   0  0  0  0  0  0  0  0  0  0  0  0
    3.0317   -2.1713   -1.9842 N   0  0  0  0  0  0  0  0  0  0  0  0
    4.4212   -2.0661   -2.4760 C   0  0  0  0  0  0  0  0  0  0  0  0
    5.4049   -2.0860   -1.2930 C   0  0  0  0  0  0  0  0  0  0  0  0
    5.1769   -3.2469   -0.5051 O   0  0  0  0  0  0  0  0  0  0  0  0
    1.8414   -5.8948    0.9197 C   0  0  0  0  0  0  0  0  0  0  0  0
    1.5390   -7.0103    1.9299 C   0  0  0  0  0  0  0  0  0  0  0  0
    2.7542   -7.4999    2.8179 C   0  0  2  0  0  0  0  0  0  0  0  0
    3.6697   -8.3270    1.7758 C   0  0  1  0  0  0  0  0  0  0  0  0
    4.6695   -7.5363    0.8841 C   0  0  0  0  0  0  0  0  0  0  0  0
    4.3948   -9.5515    2.3723 C   0  0  1  0  0  0  0  0  0  0  0  0
    5.4055  -10.1493    1.5752 O   0  0  0  0  0  0  0  0  0  0  0  0
    4.8955   -9.2483    3.7682 C   0  0  1  0  0  0  0  0  0  0  0  0
    5.8529   -8.2097    3.7528 O   0  0  0  0  0  0  0  0  0  0  0  0
    3.6273   -9.0446    4.6533 C   0  0  2  0  0  0  0  0  0  0  0  0
   -0.2284   -4.8015    9.2013 H   0  0  0  0  0  0  0  0  0  0  0  0
    0.0839   -4.7435    7.4699 H   0  0  0  0  0  0  0  0  0  0  0  0
    1.4308   -4.6770    8.6174 H   0  0  0  0  0  0  0  0  0  0  0  0
    2.3050   -6.4885    7.5183 H   0  0  0  0  0  0  0  0  0  0  0  0
   -0.1018   -6.4768    6.0779 H   0  0  0  0  0  0  0  0  0  0  0  0
    0.3473   -7.2541    4.2156 H   0  0  0  0  0  0  0  0  0  0  0  0
    0.3748   -9.4501    3.7678 H   0  0  0  0  0  0  0  0  0  0  0  0
    1.7574  -10.4215    3.4731 H   0  0  0  0  0  0  0  0  0  0  0  0
    0.3472  -10.0734    5.9877 H   0  0  0  0  0  0  0  0  0  0  0  0
    1.6214  -11.1539    5.6457 H   0  0  0  0  0  0  0  0  0  0  0  0
    2.6996  -10.2630    7.2438 H   0  0  0  0  0  0  0  0  0  0  0  0
    2.9740   -9.5151    9.4484 H   0  0  0  0  0  0  0  0  0  0  0  0
    2.2769   -7.9833    9.9389 H   0  0  0  0  0  0  0  0  0  0  0  0
    3.6541   -8.0032    8.8741 H   0  0  0  0  0  0  0  0  0  0  0  0
    0.6253  -10.3210    8.5430 H   0  0  0  0  0  0  0  0  0  0  0  0
   -0.3870   -9.1082    7.7650 H   0  0  0  0  0  0  0  0  0  0  0  0
    0.1826   -8.8726    9.3974 H   0  0  0  0  0  0  0  0  0  0  0  0
    5.9114   -9.3752    6.3155 H   0  0  0  0  0  0  0  0  0  0  0  0
    4.7936  -10.6995    6.5381 H   0  0  0  0  0  0  0  0  0  0  0  0
    4.9974   -9.4989    7.7974 H   0  0  0  0  0  0  0  0  0  0  0  0
    4.2606   -6.8799    7.0958 H   0  0  0  0  0  0  0  0  0  0  0  0
    5.3380   -7.2967    5.9240 H   0  0  0  0  0  0  0  0  0  0  0  0
    2.9027   -5.6449    5.5248 H   0  0  0  0  0  0  0  0  0  0  0  0
    4.5346   -5.4049    5.1900 H   0  0  0  0  0  0  0  0  0  0  0  0
    4.5102   -6.1735    3.0548 H   0  0  0  0  0  0  0  0  0  0  0  0
    1.8816   -4.8236    3.5383 H   0  0  0  0  0  0  0  0  0  0  0  0
    4.6545   -3.6166    3.2586 H   0  0  0  0  0  0  0  0  0  0  0  0
    3.5501   -3.4855    4.6356 H   0  0  0  0  0  0  0  0  0  0  0  0
    3.1618   -2.6938    3.1357 H   0  0  0  0  0  0  0  0  0  0  0  0
    1.9485   -3.8164    1.4675 H   0  0  0  0  0  0  0  0  0  0  0  0
    3.7796   -2.4525    0.7211 H   0  0  0  0  0  0  0  0  0  0  0  0
    3.0041   -4.2442   -1.6535 H   0  0  0  0  0  0  0  0  0  0  0  0
    1.8515   -3.3111   -0.7091 H   0  0  0  0  0  0  0  0  0  0  0  0
    2.3903   -2.2567   -2.7603 H   0  0  0  0  0  0  0  0  0  0  0  0
    4.6326   -2.9075   -3.1415 H   0  0  0  0  0  0  0  0  0  0  0  0
    4.5422   -1.1583   -3.0692 H   0  0  0  0  0  0  0  0  0  0  0  0
    6.4326   -2.1098   -1.6604 H   0  0  0  0  0  0  0  0  0  0  0  0
    5.3031   -1.1861   -0.6870 H   0  0  0  0  0  0  0  0  0  0  0  0
    0.8917   -5.5532    0.5293 H   0  0  0  0  0  0  0  0  0  0  0  0
    2.3237   -6.2604    0.0208 H   0  0  0  0  0  0  0  0  0  0  0  0
    0.7325   -6.5538    2.4851 H   0  0  0  0  0  0  0  0  0  0  0  0
    1.0673   -7.8515    1.4195 H   0  0  0  0  0  0  0  0  0  0  0  0
    2.9951   -8.7777    1.0468 H   0  0  0  0  0  0  0  0  0  0  0  0
    5.5318   -7.1517    1.4269 H   0  0  0  0  0  0  0  0  0  0  0  0
    4.2540   -6.7126    0.3299 H   0  0  0  0  0  0  0  0  0  0  0  0
    5.0468   -8.1888    0.1010 H   0  0  0  0  0  0  0  0  0  0  0  0
    3.6662  -10.3551    2.4450 H   0  0  0  0  0  0  0  0  0  0  0  0
    4.9903  -10.8457    1.0598 H   0  0  0  0  0  0  0  0  0  0  0  0
    5.4423  -10.1258    4.1191 H   0  0  0  0  0  0  0  0  0  0  0  0
    5.4412   -7.4462    3.3795 H   0  0  0  0  0  0  0  0  0  0  0  0
    3.5058  -10.1275    4.6725 H   0  0  0  0  0  0  0  0  0  0  0  0
    2.7684   -1.3430   -1.4601 H   0  0  0  0  0  0  0  0  0  0  0  0
  1  2  1  0
  1 38  1  0
  1 39  1  0
  1 40  1  0
  2  3  1  0
  3 10  1  0
  3  4  1  0
  3 41  1  6
  4  5  2  3
  4 42  1  0
  5  6  1  0
  5 43  1  0
  6 30  1  0
  6 37  1  0
  6  7  1  6
  7  8  1  0
  7 44  1  0
  7 45  1  0
  8  9  1  0
  8 46  1  0
  8 47  1  0
  9 10  1  0
  9 13  1  0
  9 48  1  1
 10 11  1  0
 10 12  1  0
 11 49  1  0
 11 50  1  0
 11 51  1  0
 12 52  1  0
 12 53  1  0
 12 54  1  0
 13 37  1  0
 13 14  1  1
 13 15  1  0
 14 55  1  0
 14 56  1  0
 14 57  1  0
 15 16  1  0
 15 58  1  0
 15 59  1  0
 16 17  1  0
 16 60  1  0
 16 61  1  0
 17 30  1  0
 17 18  1  0
 17 62  1  6
 18 19  1  0
 18 20  1  0
 18 63  1  1
 19 64  1  0
 19 65  1  0
 19 66  1  0
 20 21  1  0
 20 28  1  0
 20 67  1  1
 21 22  1  0
 22 27  1  0
 22 23  1  0
 22 68  1  1
 23 24  1  0
 23 69  1  0
 23 70  1  0
 24 25  1  0
 24 71  1  0
 24 89  1  0
 25 26  1  0
 25 72  1  0
 25 73  1  0
 26 27  1  0
 26 74  1  0
 26 75  1  0
 28 29  1  0
 28 76  1  0
 28 77  1  0
 30 29  1  6
 29 78  1  0
 29 79  1  0
 30 31  1  0
 31 32  1  0
 31 33  1  0
 31 80  1  6
 32 81  1  0
 32 82  1  0
 32 83  1  0
 33 34  1  0
 33 35  1  0
 33 84  1  1
 34 85  1  0
 35 36  1  0
 35 37  1  0
 35 86  1  1
 36 87  1  0
 37 88  1  1
M  CHG  1  24   1
M  END
>  <i_m_ct_stereo_status>  (85) 
1

>  <s_m_source_file>  (85) 
/var/tmp/pbs.5076255.sched01/tmplremgrqo/0ygzoxw5b.sdf

>  <i_m_source_file_index>  (85) 
40

>  <i_lp_mmshare_version>  (85) 
48012

>  <i_f3d_flags>  (85) 
0

>  <s_epik_input>  (85) 
W0NIM11PW0NASF0oL1tDSF09W0NIXVwxKUMoW0NIM10pKFtDSDNdKVtDQEBIXShbQ0gyXVtDSDJdMilbQ0BAXShbQ0gzXSkoW0NAQEhdM1tDQEhdKFtPSF0pW0NASF0oW09IXSlbQ0BASF00W0NIM10pW0NIMl1bQ0gyXVtDQEBIXShbQ0BdNDVbQ0BAXTEyMylbQ0BASF0oW0NIM10pW0NASF0oW0NIMl1bQ0gyXTUpT1tDQEBIXTZbQ0gyXVtOSF1bQ0gyXVtDSDJdTzY=

>  <s_epik_cmdline>  (85) 
J2VwaWtfcHl0aG9uJywgJy1waHQnLCAnMi4wJywgJy1waCcsICc3LjAnLCAnLXRuJywgJzgnLCAnLW1hJywgJzIwMCcsICctaW1hZScsICc8aW5maWxlLm1hZT4nLCAnLW9tYWUnLCAnPG91dGZpbGUubWFlPic=

>  <r_epik_Ionization_Penalty>  (85) 
0.0638577

>  <r_epik_Ionization_Penalty_Charging>  (85) 
0.0638567

>  <r_epik_Ionization_Penalty_Neutral>  (85) 
9.61373e-07

>  <r_epik_State_Penalty>  (85) 
0.0555871

>  <r_epik_Charging_Adjusted_Penalty>  (85) 
0.119444

>  <i_epik_Tot_Q>  (85) 
1

>  <i_epik_Tot_abs_Q>  (85) 
1

>  <s_epik_Chemistry_Notes>  (85) 
This compound contains an acetal/aminal-like group ( X-CH(R)-Y where X, Y are N, S, or O) that may be acid/base labile, releasing an aldehyde.

>  <s_lp_Force_Field>  (85) 
OPLS3e

>  <r_lp_Energy>  (85) 
232.475

>  <b_lp_Chiralities_Consistent>  (85) 
1

>  <s_lp_Variant>  (85) 
23:0-1

>  <s_i_glide_gridfile>  (85) 
pfpi4k_grid

>  <i_i_glide_lignum>  (85) 
40

>  <i_i_glide_rotatable_bonds>  (85) 
5

>  <r_i_docking_score>  (85) 
-2.55691

>  <r_i_glide_ligand_efficiency>  (85) 
-0.0691056

>  <r_i_glide_ligand_efficiency_sa>  (85) 
-0.230275

>  <r_i_glide_ligand_efficiency_ln>  (85) 
-0.554533

>  <r_i_glide_gscore>  (85) 
-2.55691

>  <r_i_glide_lipo>  (85) 
-0.164864

>  <r_i_glide_hbond>  (85) 
-0.0586197

>  <r_i_glide_metal>  (85) 
-0

>  <r_i_glide_rewards>  (85) 
-0.0264327

>  <r_i_glide_evdw>  (85) 
-21.6429

>  <r_i_glide_ecoul>  (85) 
-8.7241

>  <r_i_glide_erotb>  (85) 
0.15266

>  <r_i_glide_esite>  (85) 
-0.0688886

>  <r_i_glide_emodel>  (85) 
-34.6744

>  <r_i_glide_energy>  (85) 
-30.367

>  <r_i_glide_einternal>  (85) 
4.55267

>  <r_i_glide_intrahb_reward>  (85) 
-0

>  <i_i_glide_confnum>  (85) 
3

>  <i_i_glide_posenum>  (85) 
2

>  <r_i_glide_eff_state_penalty>  (85) 
0

>  <ligand_id>  (85) 
23

>  <original_smiles>  (85) 
COC1C=CC23CCC(C1(C)C)C1(C)CCC4C(C)C(OC5CNCCO5)CCC42C(C)C(O)C(O)C13

>  <smiles>  (85) 
[H]OC1([H])C([H])(O[H])C([H])(C([H])([H])[H])C23C([H])([H])C([H])([H])C([H])(OC4([H])OC([H])([H])C([H])([H])[N+]([H])([H])C4([H])[H])C([H])(C([H])([H])[H])C2([H])C([H])([H])C([H])([H])C2(C([H])([H])[H])C1([H])C31C([H])=C([H])C([H])(OC([H])([H])[H])C(C([H])([H])[H])(C([H])([H])[H])C2([H])C([H])([H])C1([H])[H]

$$$$
23:0:2
     RDKit          3D

 89 94  0  0  1  0  0  0  0  0999 V2000
   -0.7252   -8.6109    3.9827 C   0  0  0  0  0  0  0  0  0  0  0  0
    0.4094   -9.4644    3.8793 O   0  0  0  0  0  0  0  0  0  0  0  0
    1.6676   -8.8009    3.7716 C   0  0  2  0  0  0  0  0  0  0  0  0
    1.7834   -8.0950    2.4290 C   0  0  0  0  0  0  0  0  0  0  0  0
    2.7534   -7.4270    1.7810 C   0  0  0  0  0  0  0  0  0  0  0  0
    4.2856   -6.9901    1.8785 C   0  0  1  0  0  0  0  0  0  0  0  0
    4.7638   -8.1921    1.0408 C   0  0  0  0  0  0  0  0  0  0  0  0
    4.5658   -9.4748    1.9661 C   0  0  0  0  0  0  0  0  0  0  0  0
    4.1875   -9.2601    3.5419 C   0  0  2  0  0  0  0  0  0  0  0  0
    2.8015   -9.8157    4.0309 C   0  0  0  0  0  0  0  0  0  0  0  0
    2.8515  -10.1341    5.5472 C   0  0  0  0  0  0  0  0  0  0  0  0
    2.4771  -11.1695    3.3530 C   0  0  0  0  0  0  0  0  0  0  0  0
    4.6952   -7.8855    4.2271 C   0  0  2  0  0  0  0  0  0  0  0  0
    5.7380   -8.2894    5.3117 C   0  0  0  0  0  0  0  0  0  0  0  0
    3.7996   -6.7393    4.8444 C   0  0  0  0  0  0  0  0  0  0  0  0
    3.0303   -5.6227    4.0097 C   0  0  0  0  0  0  0  0  0  0  0  0
    3.5312   -4.7432    2.7531 C   0  0  2  0  0  0  0  0  0  0  0  0
    2.2860   -3.9237    2.2500 C   0  0  1  0  0  0  0  0  0  0  0  0
    1.5079   -3.2093    3.3778 C   0  0  0  0  0  0  0  0  0  0  0  0
    2.5869   -2.9403    1.0783 C   0  0  1  0  0  0  0  0  0  0  0  0
    3.2824   -1.8002    1.5644 O   0  0  0  0  0  0  0  0  0  0  0  0
    2.6117   -0.5636    1.4971 C   0  0  2  0  0  0  0  0  0  0  0  0
    3.4124    0.4316    2.3200 C   0  0  0  0  0  0  0  0  0  0  0  0
    2.7132    1.7352    2.4449 N   0  0  0  0  0  0  0  0  0  0  0  0
    1.3390    1.5784    2.9453 C   0  0  0  0  0  0  0  0  0  0  0  0
    0.5925    0.5753    2.0718 C   0  0  0  0  0  0  0  0  0  0  0  0
    1.3300   -0.6462    2.0729 O   0  0  0  0  0  0  0  0  0  0  0  0
    3.2944   -3.6167   -0.1146 C   0  0  0  0  0  0  0  0  0  0  0  0
    3.6230   -5.0952    0.1472 C   0  0  0  0  0  0  0  0  0  0  0  0
    4.3279   -5.4321    1.5218 C   0  0  2  0  0  0  0  0  0  0  0  0
    5.8213   -4.8546    1.3158 C   0  0  1  0  0  0  0  0  0  0  0  0
    6.0744   -3.3384    1.5847 C   0  0  0  0  0  0  0  0  0  0  0  0
    6.9278   -5.6819    1.9928 C   0  0  1  0  0  0  0  0  0  0  0  0
    8.2034   -5.0692    2.0281 O   0  0  0  0  0  0  0  0  0  0  0  0
    6.4751   -6.1612    3.3618 C   0  0  1  0  0  0  0  0  0  0  0  0
    6.1890   -5.0819    4.2180 O   0  0  0  0  0  0  0  0  0  0  0  0
    5.3278   -7.1805    3.0954 C   0  0  2  0  0  0  0  0  0  0  0  0
   -1.6252   -9.2114    4.0798 H   0  0  0  0  0  0  0  0  0  0  0  0
   -0.8723   -8.0003    3.0959 H   0  0  0  0  0  0  0  0  0  0  0  0
   -0.6636   -7.9610    4.8522 H   0  0  0  0  0  0  0  0  0  0  0  0
    1.6317   -8.0567    4.5510 H   0  0  0  0  0  0  0  0  0  0  0  0
    0.8783   -8.2070    1.8486 H   0  0  0  0  0  0  0  0  0  0  0  0
    2.3472   -7.2355    0.8139 H   0  0  0  0  0  0  0  0  0  0  0  0
    4.2173   -8.3147    0.0981 H   0  0  0  0  0  0  0  0  0  0  0  0
    5.7992   -8.1081    0.7259 H   0  0  0  0  0  0  0  0  0  0  0  0
    3.8668  -10.1337    1.4699 H   0  0  0  0  0  0  0  0  0  0  0  0
    5.5098  -10.0300    1.9299 H   0  0  0  0  0  0  0  0  0  0  0  0
    4.8435  -10.0187    3.9563 H   0  0  0  0  0  0  0  0  0  0  0  0
    3.6230  -10.8692    5.7804 H   0  0  0  0  0  0  0  0  0  0  0  0
    1.9052  -10.5536    5.8899 H   0  0  0  0  0  0  0  0  0  0  0  0
    3.0368   -9.2573    6.1587 H   0  0  0  0  0  0  0  0  0  0  0  0
    3.3350  -11.8416    3.3311 H   0  0  0  0  0  0  0  0  0  0  0  0
    2.1317  -11.0300    2.3321 H   0  0  0  0  0  0  0  0  0  0  0  0
    1.6746  -11.7004    3.8663 H   0  0  0  0  0  0  0  0  0  0  0  0
    6.2096   -7.4295    5.7905 H   0  0  0  0  0  0  0  0  0  0  0  0
    6.5450   -8.8914    4.8933 H   0  0  0  0  0  0  0  0  0  0  0  0
    5.2852   -8.8758    6.1083 H   0  0  0  0  0  0  0  0  0  0  0  0
    3.1266   -7.1476    5.5937 H   0  0  0  0  0  0  0  0  0  0  0  0
    4.4363   -6.1585    5.5095 H   0  0  0  0  0  0  0  0  0  0  0  0
    2.0247   -5.9777    3.7967 H   0  0  0  0  0  0  0  0  0  0  0  0
    2.8470   -4.8857    4.7869 H   0  0  0  0  0  0  0  0  0  0  0  0
    4.1805   -3.9908    3.1888 H   0  0  0  0  0  0  0  0  0  0  0  0
    1.5790   -4.6611    1.8654 H   0  0  0  0  0  0  0  0  0  0  0  0
    2.1504   -2.4910    3.8937 H   0  0  0  0  0  0  0  0  0  0  0  0
    1.0866   -3.8790    4.1243 H   0  0  0  0  0  0  0  0  0  0  0  0
    0.6423   -2.6751    2.9802 H   0  0  0  0  0  0  0  0  0  0  0  0
    1.6387   -2.6090    0.6674 H   0  0  0  0  0  0  0  0  0  0  0  0
    2.5251   -0.2659    0.4598 H   0  0  0  0  0  0  0  0  0  0  0  0
    3.5789    0.0143    3.3128 H   0  0  0  0  0  0  0  0  0  0  0  0
    4.3977    0.5449    1.8575 H   0  0  0  0  0  0  0  0  0  0  0  0
    3.2420    2.3580    3.0377 H   0  0  0  0  0  0  0  0  0  0  0  0
    1.3660    1.2357    3.9807 H   0  0  0  0  0  0  0  0  0  0  0  0
    0.8251    2.5418    2.9480 H   0  0  0  0  0  0  0  0  0  0  0  0
   -0.3848    0.3448    2.4958 H   0  0  0  0  0  0  0  0  0  0  0  0
    0.4344    0.9424    1.0611 H   0  0  0  0  0  0  0  0  0  0  0  0
    2.6198   -3.5943   -0.9705 H   0  0  0  0  0  0  0  0  0  0  0  0
    4.1518   -3.0577   -0.4806 H   0  0  0  0  0  0  0  0  0  0  0  0
    2.6427   -5.5375    0.0164 H   0  0  0  0  0  0  0  0  0  0  0  0
    4.2027   -5.4997   -0.6837 H   0  0  0  0  0  0  0  0  0  0  0  0
    6.0644   -4.9593    0.2561 H   0  0  0  0  0  0  0  0  0  0  0  0
    6.0225   -3.0737    2.6389 H   0  0  0  0  0  0  0  0  0  0  0  0
    5.4143   -2.6656    1.0606 H   0  0  0  0  0  0  0  0  0  0  0  0
    7.0673   -3.0412    1.2453 H   0  0  0  0  0  0  0  0  0  0  0  0
    7.1077   -6.5541    1.3731 H   0  0  0  0  0  0  0  0  0  0  0  0
    8.8094   -5.6616    2.4737 H   0  0  0  0  0  0  0  0  0  0  0  0
    7.3140   -6.6809    3.8293 H   0  0  0  0  0  0  0  0  0  0  0  0
    5.9471   -5.4368    5.0734 H   0  0  0  0  0  0  0  0  0  0  0  0
    6.0832   -7.9160    2.8243 H   0  0  0  0  0  0  0  0  0  0  0  0
    2.6550    2.1544    1.5306 H   0  0  0  0  0  0  0  0  0  0  0  0
  1  2  1  0
  1 38  1  0
  1 39  1  0
  1 40  1  0
  2  3  1  0
  3 10  1  0
  3  4  1  0
  3 41  1  1
  4  5  2  3
  4 42  1  0
  5  6  1  0
  5 43  1  0
  6 30  1  0
  6 37  1  0
  6  7  1  6
  7  8  1  0
  7 44  1  0
  7 45  1  0
  8  9  1  0
  8 46  1  0
  8 47  1  0
  9 10  1  0
  9 13  1  0
  9 48  1  1
 10 11  1  0
 10 12  1  0
 11 49  1  0
 11 50  1  0
 11 51  1  0
 12 52  1  0
 12 53  1  0
 12 54  1  0
 13 37  1  0
 13 14  1  1
 13 15  1  0
 14 55  1  0
 14 56  1  0
 14 57  1  0
 15 16  1  0
 15 58  1  0
 15 59  1  0
 16 17  1  0
 16 60  1  0
 16 61  1  0
 17 30  1  0
 17 18  1  0
 17 62  1  1
 18 19  1  0
 18 20  1  0
 18 63  1  6
 19 64  1  0
 19 65  1  0
 19 66  1  0
 20 21  1  0
 20 28  1  0
 20 67  1  6
 21 22  1  0
 22 27  1  0
 22 23  1  0
 22 68  1  6
 23 24  1  0
 23 69  1  0
 23 70  1  0
 24 25  1  0
 24 71  1  0
 24 89  1  0
 25 26  1  0
 25 72  1  0
 25 73  1  0
 26 27  1  0
 26 74  1  0
 26 75  1  0
 28 29  1  0
 28 76  1  0
 28 77  1  0
 30 29  1  6
 29 78  1  0
 29 79  1  0
 30 31  1  0
 31 32  1  0
 31 33  1  0
 31 80  1  6
 32 81  1  0
 32 82  1  0
 32 83  1  0
 33 34  1  0
 33 35  1  0
 33 84  1  6
 34 85  1  0
 35 36  1  0
 35 37  1  0
 35 86  1  1
 36 87  1  0
 37 88  1  6
M  CHG  1  24   1
M  END
>  <i_m_ct_stereo_status>  (86) 
1

>  <s_m_source_file>  (86) 
/var/tmp/pbs.5076255.sched01/tmplremgrqo/0ygzoxw5b.sdf

>  <i_m_source_file_index>  (86) 
40

>  <i_lp_mmshare_version>  (86) 
48012

>  <i_f3d_flags>  (86) 
0

>  <s_epik_input>  (86) 
W0NIM11PW0NASF0oL1tDSF09W0NIXVwxKUMoW0NIM10pKFtDSDNdKVtDQEBIXShbQ0gyXVtDSDJdMilbQ0BAXShbQ0gzXSkoW0NAQEhdM1tDQEhdKFtPSF0pW0NASF0oW09IXSlbQ0BASF00W0NIM10pW0NIMl1bQ0gyXVtDQEBIXShbQ0BdNDVbQ0BAXTEyMylbQ0BASF0oW0NIM10pW0NASF0oW0NIMl1bQ0gyXTUpT1tDQEBIXTZbQ0gyXVtOSF1bQ0gyXVtDSDJdTzY=

>  <s_epik_cmdline>  (86) 
J2VwaWtfcHl0aG9uJywgJy1waHQnLCAnMi4wJywgJy1waCcsICc3LjAnLCAnLXRuJywgJzgnLCAnLW1hJywgJzIwMCcsICctaW1hZScsICc8aW5maWxlLm1hZT4nLCAnLW9tYWUnLCAnPG91dGZpbGUubWFlPic=

>  <r_epik_Ionization_Penalty>  (86) 
0.0638577

>  <r_epik_Ionization_Penalty_Charging>  (86) 
0.0638567

>  <r_epik_Ionization_Penalty_Neutral>  (86) 
9.61373e-07

>  <r_epik_State_Penalty>  (86) 
0.0555871

>  <r_epik_Charging_Adjusted_Penalty>  (86) 
0.119444

>  <i_epik_Tot_Q>  (86) 
1

>  <i_epik_Tot_abs_Q>  (86) 
1

>  <s_epik_Chemistry_Notes>  (86) 
This compound contains an acetal/aminal-like group ( X-CH(R)-Y where X, Y are N, S, or O) that may be acid/base labile, releasing an aldehyde.

>  <s_lp_Force_Field>  (86) 
OPLS3e

>  <r_lp_Energy>  (86) 
232.475

>  <b_lp_Chiralities_Consistent>  (86) 
1

>  <s_lp_Variant>  (86) 
23:0-1

>  <s_i_glide_gridfile>  (86) 
pfpi4k_grid

>  <i_i_glide_lignum>  (86) 
40

>  <i_i_glide_rotatable_bonds>  (86) 
5

>  <r_i_docking_score>  (86) 
-2.06944

>  <r_i_glide_ligand_efficiency>  (86) 
-0.0559308

>  <r_i_glide_ligand_efficiency_sa>  (86) 
-0.186374

>  <r_i_glide_ligand_efficiency_ln>  (86) 
-0.448813

>  <r_i_glide_gscore>  (86) 
-2.06944

>  <r_i_glide_lipo>  (86) 
-0.409656

>  <r_i_glide_hbond>  (86) 
0

>  <r_i_glide_metal>  (86) 
-0

>  <r_i_glide_rewards>  (86) 
0

>  <r_i_glide_evdw>  (86) 
-23.41

>  <r_i_glide_ecoul>  (86) 
-3.81037

>  <r_i_glide_erotb>  (86) 
0.15266

>  <r_i_glide_esite>  (86) 
-0.0703911

>  <r_i_glide_emodel>  (86) 
-30.8815

>  <r_i_glide_energy>  (86) 
-27.2203

>  <r_i_glide_einternal>  (86) 
2.98511

>  <r_i_glide_intrahb_reward>  (86) 
-0

>  <i_i_glide_confnum>  (86) 
4

>  <i_i_glide_posenum>  (86) 
10

>  <r_i_glide_eff_state_penalty>  (86) 
0

>  <ligand_id>  (86) 
23

>  <original_smiles>  (86) 
COC1C=CC23CCC(C1(C)C)C1(C)CCC4C(C)C(OC5CNCCO5)CCC42C(C)C(O)C(O)C13

>  <smiles>  (86) 
[H]OC1([H])C([H])(O[H])C([H])(C([H])([H])[H])C23C([H])([H])C([H])([H])C([H])(OC4([H])OC([H])([H])C([H])([H])[N+]([H])([H])C4([H])[H])C([H])(C([H])([H])[H])C2([H])C([H])([H])C([H])([H])C2(C([H])([H])[H])C1([H])C31C([H])=C([H])C([H])(OC([H])([H])[H])C(C([H])([H])[H])(C([H])([H])[H])C2([H])C([H])([H])C1([H])[H]

$$$$
23:1:0
     RDKit          3D

 89 94  0  0  1  0  0  0  0  0999 V2000
    0.1468   -9.5844    2.9954 C   0  0  0  0  0  0  0  0  0  0  0  0
    1.3307  -10.3286    3.2464 O   0  0  0  0  0  0  0  0  0  0  0  0
    2.5010   -9.5385    3.4569 C   0  0  2  0  0  0  0  0  0  0  0  0
    3.0257   -8.9366    2.1747 C   0  0  0  0  0  0  0  0  0  0  0  0
    3.8157   -7.8599    2.3512 C   0  0  0  0  0  0  0  0  0  0  0  0
    5.3496   -7.6747    2.0291 C   0  0  1  0  0  0  0  0  0  0  0  0
    5.6781   -8.9586    1.2160 C   0  0  0  0  0  0  0  0  0  0  0  0
    5.6077  -10.2003    2.2244 C   0  0  0  0  0  0  0  0  0  0  0  0
    5.1675   -9.9002    3.7645 C   0  0  2  0  0  0  0  0  0  0  0  0
    3.6679  -10.3666    4.1373 C   0  0  0  0  0  0  0  0  0  0  0  0
    3.4807  -10.3789    5.6779 C   0  0  0  0  0  0  0  0  0  0  0  0
    3.5003  -11.8622    3.7335 C   0  0  0  0  0  0  0  0  0  0  0  0
    5.7809   -8.5026    4.3775 C   0  0  2  0  0  0  0  0  0  0  0  0
    6.8287   -8.8807    5.4541 C   0  0  0  0  0  0  0  0  0  0  0  0
    4.8560   -7.3579    4.9509 C   0  0  0  0  0  0  0  0  0  0  0  0
    4.9043   -5.8531    4.4065 C   0  0  0  0  0  0  0  0  0  0  0  0
    4.9490   -5.2881    2.8735 C   0  0  2  0  0  0  0  0  0  0  0  0
    3.6526   -4.4055    2.6621 C   0  0  1  0  0  0  0  0  0  0  0  0
    3.6753   -3.0886    3.4806 C   0  0  0  0  0  0  0  0  0  0  0  0
    3.2253   -4.1309    1.2103 C   0  0  1  0  0  0  0  0  0  0  0  0
    4.1123   -3.1810    0.5893 O   0  0  0  0  0  0  0  0  0  0  0  0
    3.6564   -2.4239   -0.5089 C   0  0  2  0  0  0  0  0  0  0  0  0
    3.0368   -3.3766   -1.5441 C   0  0  0  0  0  0  0  0  0  0  0  0
    2.6743   -2.7192   -2.7925 N   0  0  0  0  0  0  0  0  0  0  0  0
    3.8224   -1.9885   -3.3634 C   0  0  0  0  0  0  0  0  0  0  0  0
    4.3876   -1.0358   -2.2895 C   0  0  0  0  0  0  0  0  0  0  0  0
    4.7540   -1.7639   -1.1157 O   0  0  0  0  0  0  0  0  0  0  0  0
    3.1599   -5.4711    0.4740 C   0  0  0  0  0  0  0  0  0  0  0  0
    4.6041   -5.9800    0.3012 C   0  0  0  0  0  0  0  0  0  0  0  0
    5.4719   -6.1732    1.5926 C   0  0  2  0  0  0  0  0  0  0  0  0
    6.9590   -5.8003    1.1309 C   0  0  1  0  0  0  0  0  0  0  0  0
    7.2374   -4.2856    0.9257 C   0  0  0  0  0  0  0  0  0  0  0  0
    8.1034   -6.5211    1.8789 C   0  0  1  0  0  0  0  0  0  0  0  0
    9.3693   -5.8587    1.8409 O   0  0  0  0  0  0  0  0  0  0  0  0
    7.7331   -6.9647    3.2868 C   0  0  1  0  0  0  0  0  0  0  0  0
    7.7430   -5.8850    4.1796 O   0  0  0  0  0  0  0  0  0  0  0  0
    6.4470   -7.8542    3.1894 C   0  0  2  0  0  0  0  0  0  0  0  0
   -0.6943  -10.2643    2.8832 H   0  0  0  0  0  0  0  0  0  0  0  0
    0.2207   -8.9978    2.0792 H   0  0  0  0  0  0  0  0  0  0  0  0
   -0.0904   -8.9196    3.8261 H   0  0  0  0  0  0  0  0  0  0  0  0
    2.2050   -8.7341    4.1313 H   0  0  0  0  0  0  0  0  0  0  0  0
    3.2611   -9.7155    1.4668 H   0  0  0  0  0  0  0  0  0  0  0  0
    3.3897   -7.1805    3.0544 H   0  0  0  0  0  0  0  0  0  0  0  0
    5.0009   -9.0810    0.3707 H   0  0  0  0  0  0  0  0  0  0  0  0
    6.6691   -8.9138    0.7717 H   0  0  0  0  0  0  0  0  0  0  0  0
    5.0218  -10.9859    1.7844 H   0  0  0  0  0  0  0  0  0  0  0  0
    6.6133  -10.6488    2.2469 H   0  0  0  0  0  0  0  0  0  0  0  0
    5.7362  -10.6647    4.2668 H   0  0  0  0  0  0  0  0  0  0  0  0
    4.2051  -11.0335    6.1648 H   0  0  0  0  0  0  0  0  0  0  0  0
    2.4927  -10.7486    5.9540 H   0  0  0  0  0  0  0  0  0  0  0  0
    3.5805   -9.4054    6.1466 H   0  0  0  0  0  0  0  0  0  0  0  0
    4.3540  -12.4706    4.0331 H   0  0  0  0  0  0  0  0  0  0  0  0
    3.3524  -11.9988    2.6631 H   0  0  0  0  0  0  0  0  0  0  0  0
    2.6266  -12.3054    4.2135 H   0  0  0  0  0  0  0  0  0  0  0  0
    7.3183   -7.9999    5.8700 H   0  0  0  0  0  0  0  0  0  0  0  0
    7.6118   -9.5263    5.0584 H   0  0  0  0  0  0  0  0  0  0  0  0
    6.3632   -9.4097    6.2853 H   0  0  0  0  0  0  0  0  0  0  0  0
    3.8267   -7.6743    4.9697 H   0  0  0  0  0  0  0  0  0  0  0  0
    5.0519   -7.2883    6.0211 H   0  0  0  0  0  0  0  0  0  0  0  0
    3.9940   -5.4550    4.8481 H   0  0  0  0  0  0  0  0  0  0  0  0
    5.6316   -5.3024    4.9948 H   0  0  0  0  0  0  0  0  0  0  0  0
    5.7045   -4.5157    2.9548 H   0  0  0  0  0  0  0  0  0  0  0  0
    2.8138   -4.9721    3.0606 H   0  0  0  0  0  0  0  0  0  0  0  0
    4.4854   -2.4346    3.1595 H   0  0  0  0  0  0  0  0  0  0  0  0
    3.8069   -3.2621    4.5514 H   0  0  0  0  0  0  0  0  0  0  0  0
    2.7435   -2.5305    3.3698 H   0  0  0  0  0  0  0  0  0  0  0  0
    2.2338   -3.6795    1.2382 H   0  0  0  0  0  0  0  0  0  0  0  0
    2.9489   -1.6668   -0.1665 H   0  0  0  0  0  0  0  0  0  0  0  0
    3.7661   -4.1545   -1.7819 H   0  0  0  0  0  0  0  0  0  0  0  0
    2.1478   -3.8290   -1.1448 H   0  0  0  0  0  0  0  0  0  0  0  0
    2.3653   -3.4406   -3.4281 H   0  0  0  0  0  0  0  0  0  0  0  0
    4.5921   -2.7047   -3.6673 H   0  0  0  0  0  0  0  0  0  0  0  0
    3.4932   -1.4434   -4.2489 H   0  0  0  0  0  0  0  0  0  0  0  0
    5.2739   -0.5266   -2.6694 H   0  0  0  0  0  0  0  0  0  0  0  0
    3.6599   -0.2660   -2.0347 H   0  0  0  0  0  0  0  0  0  0  0  0
    2.5442   -6.1862    1.0604 H   0  0  0  0  0  0  0  0  0  0  0  0
    2.6931   -5.4209   -0.4625 H   0  0  0  0  0  0  0  0  0  0  0  0
    4.5961   -6.8842   -0.2869 H   0  0  0  0  0  0  0  0  0  0  0  0
    5.1143   -5.2723   -0.3683 H   0  0  0  0  0  0  0  0  0  0  0  0
    7.0598   -6.1994    0.1183 H   0  0  0  0  0  0  0  0  0  0  0  0
    7.3986   -3.7764    1.8690 H   0  0  0  0  0  0  0  0  0  0  0  0
    6.4412   -3.7630    0.4092 H   0  0  0  0  0  0  0  0  0  0  0  0
    8.1345   -4.1301    0.3296 H   0  0  0  0  0  0  0  0  0  0  0  0
    8.3018   -7.4290    1.3166 H   0  0  0  0  0  0  0  0  0  0  0  0
   10.0137   -6.5711    1.7301 H   0  0  0  0  0  0  0  0  0  0  0  0
    8.5675   -7.5690    3.6626 H   0  0  0  0  0  0  0  0  0  0  0  0
    8.5809   -5.4440    4.0769 H   0  0  0  0  0  0  0  0  0  0  0  0
    7.1348   -8.6408    2.8955 H   0  0  0  0  0  0  0  0  0  0  0  0
    1.9086   -2.0879   -2.5893 H   0  0  0  0  0  0  0  0  0  0  0  0
  1  2  1  0
  1 38  1  0
  1 39  1  0
  1 40  1  0
  2  3  1  0
  3 10  1  0
  3  4  1  0
  3 41  1  1
  4  5  2  3
  4 42  1  0
  5  6  1  0
  5 43  1  0
  6 30  1  0
  6 37  1  0
  6  7  1  6
  7  8  1  0
  7 44  1  0
  7 45  1  0
  8  9  1  0
  8 46  1  0
  8 47  1  0
  9 10  1  0
  9 13  1  0
  9 48  1  1
 10 11  1  0
 10 12  1  0
 11 49  1  0
 11 50  1  0
 11 51  1  0
 12 52  1  0
 12 53  1  0
 12 54  1  0
 13 37  1  0
 13 14  1  1
 13 15  1  0
 14 55  1  0
 14 56  1  0
 14 57  1  0
 15 16  1  0
 15 58  1  0
 15 59  1  0
 16 17  1  0
 16 60  1  0
 16 61  1  0
 17 30  1  0
 17 18  1  0
 17 62  1  1
 18 19  1  0
 18 20  1  0
 18 63  1  1
 19 64  1  0
 19 65  1  0
 19 66  1  0
 20 21  1  0
 20 28  1  0
 20 67  1  1
 21 22  1  0
 22 27  1  0
 22 23  1  0
 22 68  1  1
 23 24  1  0
 23 69  1  0
 23 70  1  0
 24 25  1  0
 24 71  1  0
 24 89  1  0
 25 26  1  0
 25 72  1  0
 25 73  1  0
 26 27  1  0
 26 74  1  0
 26 75  1  0
 28 29  1  0
 28 76  1  0
 28 77  1  0
 30 29  1  6
 29 78  1  0
 29 79  1  0
 30 31  1  0
 31 32  1  0
 31 33  1  0
 31 80  1  6
 32 81  1  0
 32 82  1  0
 32 83  1  0
 33 34  1  0
 33 35  1  0
 33 84  1  6
 34 85  1  0
 35 36  1  0
 35 37  1  0
 35 86  1  1
 36 87  1  0
 37 88  1  6
M  CHG  1  24   1
M  END
>  <i_m_ct_stereo_status>  (87) 
1

>  <s_m_source_file>  (87) 
/var/tmp/pbs.5076255.sched01/tmplremgrqo/0ygzoxw5b.sdf

>  <i_m_source_file_index>  (87) 
41

>  <i_lp_mmshare_version>  (87) 
48012

>  <i_f3d_flags>  (87) 
0

>  <s_epik_input>  (87) 
W0NIM11PW0NASF0oL1tDSF09W0NIXVwxKUMoW0NIM10pKFtDSDNdKVtDQEBIXShbQ0gyXVtDSDJdMilbQ0BAXShbQ0gzXSkoW0NAQEhdM1tDQEhdKFtPSF0pW0NASF0oW09IXSlbQ0BASF00W0NIM10pW0NIMl1bQ0gyXVtDQEBIXShbQ0BdNDVbQ0BAXTEyMylbQ0BASF0oW0NIM10pW0NASF0oW0NIMl1bQ0gyXTUpT1tDQEBIXTZbQ0gyXVtOSF1bQ0gyXVtDSDJdTzY=

>  <s_epik_cmdline>  (87) 
J2VwaWtfcHl0aG9uJywgJy1waHQnLCAnMi4wJywgJy1waCcsICc3LjAnLCAnLXRuJywgJzgnLCAnLW1hJywgJzIwMCcsICctaW1hZScsICc8aW5maWxlLm1hZT4nLCAnLW9tYWUnLCAnPG91dGZpbGUubWFlPic=

>  <r_epik_Ionization_Penalty>  (87) 
0.0638577

>  <r_epik_Ionization_Penalty_Charging>  (87) 
0.0638567

>  <r_epik_Ionization_Penalty_Neutral>  (87) 
9.61373e-07

>  <r_epik_State_Penalty>  (87) 
0.0555871

>  <r_epik_Charging_Adjusted_Penalty>  (87) 
0.119444

>  <i_epik_Tot_Q>  (87) 
1

>  <i_epik_Tot_abs_Q>  (87) 
1

>  <s_epik_Chemistry_Notes>  (87) 
This compound contains an acetal/aminal-like group ( X-CH(R)-Y where X, Y are N, S, or O) that may be acid/base labile, releasing an aldehyde.

>  <s_lp_Force_Field>  (87) 
OPLS3e

>  <r_lp_Energy>  (87) 
236.81

>  <b_lp_Chiralities_Consistent>  (87) 
1

>  <s_lp_Variant>  (87) 
23:0-2

>  <s_i_glide_gridfile>  (87) 
pfpi4k_grid

>  <i_i_glide_lignum>  (87) 
41

>  <i_i_glide_rotatable_bonds>  (87) 
5

>  <r_i_docking_score>  (87) 
-3.56021

>  <r_i_glide_ligand_efficiency>  (87) 
-0.0962218

>  <r_i_glide_ligand_efficiency_sa>  (87) 
-0.320633

>  <r_i_glide_ligand_efficiency_ln>  (87) 
-0.772126

>  <r_i_glide_gscore>  (87) 
-3.56021

>  <r_i_glide_lipo>  (87) 
-0.735816

>  <r_i_glide_hbond>  (87) 
-0.0320031

>  <r_i_glide_metal>  (87) 
-0

>  <r_i_glide_rewards>  (87) 
0

>  <r_i_glide_evdw>  (87) 
-25.5809

>  <r_i_glide_ecoul>  (87) 
-10.4483

>  <r_i_glide_erotb>  (87) 
0.106862

>  <r_i_glide_esite>  (87) 
-0.0529607

>  <r_i_glide_emodel>  (87) 
-39.9764

>  <r_i_glide_energy>  (87) 
-36.0292

>  <r_i_glide_einternal>  (87) 
8.36555

>  <r_i_glide_intrahb_reward>  (87) 
-0

>  <i_i_glide_confnum>  (87) 
3

>  <i_i_glide_posenum>  (87) 
34

>  <r_i_glide_eff_state_penalty>  (87) 
0

>  <ligand_id>  (87) 
23

>  <original_smiles>  (87) 
COC1C=CC23CCC(C1(C)C)C1(C)CCC4C(C)C(OC5CNCCO5)CCC42C(C)C(O)C(O)C13

>  <smiles>  (87) 
[H]OC1([H])C([H])(O[H])C([H])(C([H])([H])[H])C23C([H])([H])C([H])([H])C([H])(OC4([H])OC([H])([H])C([H])([H])[N+]([H])([H])C4([H])[H])C([H])(C([H])([H])[H])C2([H])C([H])([H])C([H])([H])C2(C([H])([H])[H])C1([H])C31C([H])=C([H])C([H])(OC([H])([H])[H])C(C([H])([H])[H])(C([H])([H])[H])C2([H])C([H])([H])C1([H])[H]

$$$$
23:1:1
     RDKit          3D

 89 94  0  0  1  0  0  0  0  0999 V2000
   -1.3340    1.1680    2.4280 C   0  0  0  0  0  0  0  0  0  0  0  0
   -1.0593    0.4142    3.6259 O   0  0  0  0  0  0  0  0  0  0  0  0
    0.1772   -0.3050    3.6515 C   0  0  2  0  0  0  0  0  0  0  0  0
    0.1952   -1.2674    4.8171 C   0  0  0  0  0  0  0  0  0  0  0  0
    1.0281   -2.3274    4.7078 C   0  0  0  0  0  0  0  0  0  0  0  0
    2.3250   -2.6674    5.5602 C   0  0  1  0  0  0  0  0  0  0  0  0
    2.2346   -1.6664    6.7477 C   0  0  0  0  0  0  0  0  0  0  0  0
    2.4842   -0.1941    6.1721 C   0  0  0  0  0  0  0  0  0  0  0  0
    2.7038   -0.0443    4.5653 C   0  0  2  0  0  0  0  0  0  0  0  0
    1.4742    0.6102    3.7627 C   0  0  0  0  0  0  0  0  0  0  0  0
    1.9554    1.0380    2.3344 C   0  0  0  0  0  0  0  0  0  0  0  0
    1.0831    1.9373    4.4940 C   0  0  0  0  0  0  0  0  0  0  0  0
    3.6007   -1.2387    3.8965 C   0  0  2  0  0  0  0  0  0  0  0  0
    4.9596   -0.6293    3.4660 C   0  0  0  0  0  0  0  0  0  0  0  0
    3.0711   -2.1384    2.7175 C   0  0  0  0  0  0  0  0  0  0  0  0
    3.0035   -3.7332    2.8101 C   0  0  0  0  0  0  0  0  0  0  0  0
    2.4762   -4.7001    4.0182 C   0  0  2  0  0  0  0  0  0  0  0  0
    1.2814   -5.5386    3.4375 C   0  0  1  0  0  0  0  0  0  0  0  0
    1.7338   -6.5261    2.3431 C   0  0  0  0  0  0  0  0  0  0  0  0
    0.3497   -6.2459    4.4508 C   0  0  1  0  0  0  0  0  0  0  0  0
    0.9434   -7.3823    5.0936 O   0  0  0  0  0  0  0  0  0  0  0  0
    0.4363   -8.6521    4.7555 C   0  0  2  0  0  0  0  0  0  0  0  0
    1.0817   -9.7047    5.6662 C   0  0  0  0  0  0  0  0  0  0  0  0
    0.6137  -11.0493    5.2797 N   0  0  0  0  0  0  0  0  0  0  0  0
    0.8642  -11.3552    3.8663 C   0  0  0  0  0  0  0  0  0  0  0  0
    0.2420  -10.2439    2.9947 C   0  0  0  0  0  0  0  0  0  0  0  0
    0.7662   -8.9755    3.4172 O   0  0  0  0  0  0  0  0  0  0  0  0
   -0.0787   -5.2311    5.4938 C   0  0  0  0  0  0  0  0  0  0  0  0
    1.1140   -4.7929    6.3347 C   0  0  0  0  0  0  0  0  0  0  0  0
    2.3768   -4.2386    5.5853 C   0  0  2  0  0  0  0  0  0  0  0  0
    3.5873   -4.7745    6.4733 C   0  0  1  0  0  0  0  0  0  0  0  0
    3.8921   -6.2916    6.3412 C   0  0  0  0  0  0  0  0  0  0  0  0
    4.8723   -3.9246    6.4863 C   0  0  1  0  0  0  0  0  0  0  0  0
    6.0526   -4.6347    6.8280 O   0  0  0  0  0  0  0  0  0  0  0  0
    5.0463   -3.1273    5.2034 C   0  0  1  0  0  0  0  0  0  0  0  0
    5.4438   -4.0031    4.1735 O   0  0  0  0  0  0  0  0  0  0  0  0
    3.7736   -2.2298    5.0200 C   0  0  2  0  0  0  0  0  0  0  0  0
   -2.3328    1.6467    2.5158 H   0  0  0  0  0  0  0  0  0  0  0  0
   -1.3562    0.5141    1.5494 H   0  0  0  0  0  0  0  0  0  0  0  0
   -0.5923    1.9341    2.1905 H   0  0  0  0  0  0  0  0  0  0  0  0
    0.2198   -0.9079    2.7499 H   0  0  0  0  0  0  0  0  0  0  0  0
    0.0907   -0.7408    5.7508 H   0  0  0  0  0  0  0  0  0  0  0  0
    0.9806   -2.7591    3.7297 H   0  0  0  0  0  0  0  0  0  0  0  0
    1.2746   -1.7382    7.2618 H   0  0  0  0  0  0  0  0  0  0  0  0
    2.9674   -1.8906    7.5171 H   0  0  0  0  0  0  0  0  0  0  0  0
    1.7033    0.4490    6.5513 H   0  0  0  0  0  0  0  0  0  0  0  0
    3.3875    0.2069    6.6723 H   0  0  0  0  0  0  0  0  0  0  0  0
    3.3812    0.7992    4.5590 H   0  0  0  0  0  0  0  0  0  0  0  0
    2.8166    1.7334    2.4060 H   0  0  0  0  0  0  0  0  0  0  0  0
    1.1478    1.5256    1.7650 H   0  0  0  0  0  0  0  0  0  0  0  0
    2.3363    0.1947    1.7377 H   0  0  0  0  0  0  0  0  0  0  0  0
    1.9570    2.5293    4.7637 H   0  0  0  0  0  0  0  0  0  0  0  0
    0.4992    1.7467    5.4002 H   0  0  0  0  0  0  0  0  0  0  0  0
    0.4662    2.6047    3.8943 H   0  0  0  0  0  0  0  0  0  0  0  0
    5.6351   -1.3841    3.0587 H   0  0  0  0  0  0  0  0  0  0  0  0
    5.4802   -0.1435    4.2954 H   0  0  0  0  0  0  0  0  0  0  0  0
    4.8206    0.1265    2.6937 H   0  0  0  0  0  0  0  0  0  0  0  0
    2.1099   -1.7872    2.3734 H   0  0  0  0  0  0  0  0  0  0  0  0
    3.6767   -1.9143    1.8393 H   0  0  0  0  0  0  0  0  0  0  0  0
    2.3632   -3.9393    1.9582 H   0  0  0  0  0  0  0  0  0  0  0  0
    3.9284   -4.1291    2.4054 H   0  0  0  0  0  0  0  0  0  0  0  0
    3.2425   -5.4588    4.0479 H   0  0  0  0  0  0  0  0  0  0  0  0
    0.6285   -4.8305    2.9405 H   0  0  0  0  0  0  0  0  0  0  0  0
    2.4088   -7.2725    2.7680 H   0  0  0  0  0  0  0  0  0  0  0  0
    2.2625   -6.0681    1.5134 H   0  0  0  0  0  0  0  0  0  0  0  0
    0.8740   -7.0412    1.9157 H   0  0  0  0  0  0  0  0  0  0  0  0
   -0.5453   -6.5512    3.9206 H   0  0  0  0  0  0  0  0  0  0  0  0
   -0.6514   -8.6394    4.8602 H   0  0  0  0  0  0  0  0  0  0  0  0
    2.1686   -9.6381    5.5703 H   0  0  0  0  0  0  0  0  0  0  0  0
    0.8099   -9.4849    6.6848 H   0  0  0  0  0  0  0  0  0  0  0  0
    1.0412  -11.7243    5.9098 H   0  0  0  0  0  0  0  0  0  0  0  0
    1.9390  -11.4089    3.6683 H   0  0  0  0  0  0  0  0  0  0  0  0
    0.4407  -12.3272    3.5978 H   0  0  0  0  0  0  0  0  0  0  0  0
    0.5067  -10.3797    1.9548 H   0  0  0  0  0  0  0  0  0  0  0  0
   -0.8564  -10.2391    3.0533 H   0  0  0  0  0  0  0  0  0  0  0  0
   -0.5680   -4.3725    5.0170 H   0  0  0  0  0  0  0  0  0  0  0  0
   -0.8307   -5.6647    6.1472 H   0  0  0  0  0  0  0  0  0  0  0  0
    0.7613   -4.0547    7.0408 H   0  0  0  0  0  0  0  0  0  0  0  0
    1.3692   -5.6516    6.9681 H   0  0  0  0  0  0  0  0  0  0  0  0
    3.2546   -4.6782    7.5147 H   0  0  0  0  0  0  0  0  0  0  0  0
    4.4547   -6.5385    5.4477 H   0  0  0  0  0  0  0  0  0  0  0  0
    2.9959   -6.9091    6.3461 H   0  0  0  0  0  0  0  0  0  0  0  0
    4.4856   -6.6410    7.1911 H   0  0  0  0  0  0  0  0  0  0  0  0
    4.7803   -3.1992    7.2875 H   0  0  0  0  0  0  0  0  0  0  0  0
    6.2298   -5.2686    6.1424 H   0  0  0  0  0  0  0  0  0  0  0  0
    5.9229   -2.4793    5.3454 H   0  0  0  0  0  0  0  0  0  0  0  0
    4.7190   -4.5919    3.9831 H   0  0  0  0  0  0  0  0  0  0  0  0
    4.2435   -1.5858    5.7580 H   0  0  0  0  0  0  0  0  0  0  0  0
   -0.3921  -11.0789    5.4103 H   0  0  0  0  0  0  0  0  0  0  0  0
  1  2  1  0
  1 38  1  0
  1 39  1  0
  1 40  1  0
  2  3  1  0
  3 10  1  0
  3  4  1  0
  3 41  1  6
  4  5  2  3
  4 42  1  0
  5  6  1  0
  5 43  1  0
  6 30  1  0
  6 37  1  0
  6  7  1  1
  7  8  1  0
  7 44  1  0
  7 45  1  0
  8  9  1  0
  8 46  1  0
  8 47  1  0
  9 10  1  0
  9 13  1  0
  9 48  1  1
 10 11  1  0
 10 12  1  0
 11 49  1  0
 11 50  1  0
 11 51  1  0
 12 52  1  0
 12 53  1  0
 12 54  1  0
 13 37  1  0
 13 14  1  6
 13 15  1  0
 14 55  1  0
 14 56  1  0
 14 57  1  0
 15 16  1  0
 15 58  1  0
 15 59  1  0
 16 17  1  0
 16 60  1  0
 16 61  1  0
 17 30  1  0
 17 18  1  0
 17 62  1  1
 18 19  1  0
 18 20  1  0
 18 63  1  6
 19 64  1  0
 19 65  1  0
 19 66  1  0
 20 21  1  0
 20 28  1  0
 20 67  1  6
 21 22  1  0
 22 27  1  0
 22 23  1  0
 22 68  1  6
 23 24  1  0
 23 69  1  0
 23 70  1  0
 24 25  1  0
 24 71  1  0
 24 89  1  0
 25 26  1  0
 25 72  1  0
 25 73  1  0
 26 27  1  0
 26 74  1  0
 26 75  1  0
 28 29  1  0
 28 76  1  0
 28 77  1  0
 30 29  1  1
 29 78  1  0
 29 79  1  0
 30 31  1  0
 31 32  1  0
 31 33  1  0
 31 80  1  1
 32 81  1  0
 32 82  1  0
 32 83  1  0
 33 34  1  0
 33 35  1  0
 33 84  1  1
 34 85  1  0
 35 36  1  0
 35 37  1  0
 35 86  1  1
 36 87  1  0
 37 88  1  1
M  CHG  1  24   1
M  END
>  <i_m_ct_stereo_status>  (88) 
1

>  <s_m_source_file>  (88) 
/var/tmp/pbs.5076255.sched01/tmplremgrqo/0ygzoxw5b.sdf

>  <i_m_source_file_index>  (88) 
41

>  <i_lp_mmshare_version>  (88) 
48012

>  <i_f3d_flags>  (88) 
0

>  <s_epik_input>  (88) 
W0NIM11PW0NASF0oL1tDSF09W0NIXVwxKUMoW0NIM10pKFtDSDNdKVtDQEBIXShbQ0gyXVtDSDJdMilbQ0BAXShbQ0gzXSkoW0NAQEhdM1tDQEhdKFtPSF0pW0NASF0oW09IXSlbQ0BASF00W0NIM10pW0NIMl1bQ0gyXVtDQEBIXShbQ0BdNDVbQ0BAXTEyMylbQ0BASF0oW0NIM10pW0NASF0oW0NIMl1bQ0gyXTUpT1tDQEBIXTZbQ0gyXVtOSF1bQ0gyXVtDSDJdTzY=

>  <s_epik_cmdline>  (88) 
J2VwaWtfcHl0aG9uJywgJy1waHQnLCAnMi4wJywgJy1waCcsICc3LjAnLCAnLXRuJywgJzgnLCAnLW1hJywgJzIwMCcsICctaW1hZScsICc8aW5maWxlLm1hZT4nLCAnLW9tYWUnLCAnPG91dGZpbGUubWFlPic=

>  <r_epik_Ionization_Penalty>  (88) 
0.0638577

>  <r_epik_Ionization_Penalty_Charging>  (88) 
0.0638567

>  <r_epik_Ionization_Penalty_Neutral>  (88) 
9.61373e-07

>  <r_epik_State_Penalty>  (88) 
0.0555871

>  <r_epik_Charging_Adjusted_Penalty>  (88) 
0.119444

>  <i_epik_Tot_Q>  (88) 
1

>  <i_epik_Tot_abs_Q>  (88) 
1

>  <s_epik_Chemistry_Notes>  (88) 
This compound contains an acetal/aminal-like group ( X-CH(R)-Y where X, Y are N, S, or O) that may be acid/base labile, releasing an aldehyde.

>  <s_lp_Force_Field>  (88) 
OPLS3e

>  <r_lp_Energy>  (88) 
236.81

>  <b_lp_Chiralities_Consistent>  (88) 
1

>  <s_lp_Variant>  (88) 
23:0-2

>  <s_i_glide_gridfile>  (88) 
pfpi4k_grid

>  <i_i_glide_lignum>  (88) 
41

>  <i_i_glide_rotatable_bonds>  (88) 
5

>  <r_i_docking_score>  (88) 
-2.91858

>  <r_i_glide_ligand_efficiency>  (88) 
-0.0788805

>  <r_i_glide_ligand_efficiency_sa>  (88) 
-0.262847

>  <r_i_glide_ligand_efficiency_ln>  (88) 
-0.632971

>  <r_i_glide_gscore>  (88) 
-2.91858

>  <r_i_glide_lipo>  (88) 
-0.291534

>  <r_i_glide_hbond>  (88) 
-0.39773

>  <r_i_glide_metal>  (88) 
-0

>  <r_i_glide_rewards>  (88) 
0

>  <r_i_glide_evdw>  (88) 
-21.7963

>  <r_i_glide_ecoul>  (88) 
-7.71984

>  <r_i_glide_erotb>  (88) 
0.15266

>  <r_i_glide_esite>  (88) 
-0.134184

>  <r_i_glide_emodel>  (88) 
-34.0828

>  <r_i_glide_energy>  (88) 
-29.5161

>  <r_i_glide_einternal>  (88) 
5.20679

>  <r_i_glide_intrahb_reward>  (88) 
-0

>  <i_i_glide_confnum>  (88) 
4

>  <i_i_glide_posenum>  (88) 
22

>  <r_i_glide_eff_state_penalty>  (88) 
0

>  <ligand_id>  (88) 
23

>  <original_smiles>  (88) 
COC1C=CC23CCC(C1(C)C)C1(C)CCC4C(C)C(OC5CNCCO5)CCC42C(C)C(O)C(O)C13

>  <smiles>  (88) 
[H]OC1([H])C([H])(O[H])C([H])(C([H])([H])[H])C23C([H])([H])C([H])([H])C([H])(OC4([H])OC([H])([H])C([H])([H])[N+]([H])([H])C4([H])[H])C([H])(C([H])([H])[H])C2([H])C([H])([H])C([H])([H])C2(C([H])([H])[H])C1([H])C31C([H])=C([H])C([H])(OC([H])([H])[H])C(C([H])([H])[H])(C([H])([H])[H])C2([H])C([H])([H])C1([H])[H]

$$$$
23:1:2
     RDKit          3D

 89 94  0  0  1  0  0  0  0  0999 V2000
   -1.6640   -8.2767    4.0302 C   0  0  0  0  0  0  0  0  0  0  0  0
   -0.6371   -8.4955    3.0690 O   0  0  0  0  0  0  0  0  0  0  0  0
    0.7027   -8.4421    3.5685 C   0  0  2  0  0  0  0  0  0  0  0  0
    1.6367   -7.9624    2.4810 C   0  0  0  0  0  0  0  0  0  0  0  0
    2.7892   -7.4061    2.9356 C   0  0  0  0  0  0  0  0  0  0  0  0
    4.2695   -7.9062    2.7547 C   0  0  1  0  0  0  0  0  0  0  0  0
    4.1296   -9.0421    1.7057 C   0  0  0  0  0  0  0  0  0  0  0  0
    3.3549  -10.2543    2.4134 C   0  0  0  0  0  0  0  0  0  0  0  0
    2.8531  -10.0399    3.9458 C   0  0  2  0  0  0  0  0  0  0  0  0
    1.2714   -9.8241    4.1227 C   0  0  0  0  0  0  0  0  0  0  0  0
    0.9038  -10.0308    5.6200 C   0  0  0  0  0  0  0  0  0  0  0  0
    0.5389  -10.9686    3.3747 C   0  0  0  0  0  0  0  0  0  0  0  0
    3.9195   -9.2247    4.8838 C   0  0  2  0  0  0  0  0  0  0  0  0
    4.4994  -10.2173    5.9237 C   0  0  0  0  0  0  0  0  0  0  0  0
    3.5203   -7.8955    5.6461 C   0  0  0  0  0  0  0  0  0  0  0  0
    4.3114   -6.5180    5.4434 C   0  0  0  0  0  0  0  0  0  0  0  0
    4.8460   -5.7943    4.0781 C   0  0  2  0  0  0  0  0  0  0  0  0
    4.1280   -4.3960    3.9868 C   0  0  1  0  0  0  0  0  0  0  0  0
    4.6032   -3.3993    5.0719 C   0  0  0  0  0  0  0  0  0  0  0  0
    4.1051   -3.7062    2.6174 C   0  0  1  0  0  0  0  0  0  0  0  0
    5.4075   -3.1642    2.3224 O   0  0  0  0  0  0  0  0  0  0  0  0
    5.5747   -2.3831    1.1829 C   0  0  2  0  0  0  0  0  0  0  0  0
    4.8207   -1.0305    1.3274 C   0  0  0  0  0  0  0  0  0  0  0  0
    4.8806   -0.2625    0.0872 N   0  0  0  0  0  0  0  0  0  0  0  0
    4.4283   -1.0350   -1.0876 C   0  0  0  0  0  0  0  0  0  0  0  0
    5.2428   -2.3385   -1.1832 C   0  0  0  0  0  0  0  0  0  0  0  0
    5.1841   -3.0285    0.0190 O   0  0  0  0  0  0  0  0  0  0  0  0
    3.5733   -4.7199    1.5980 C   0  0  0  0  0  0  0  0  0  0  0  0
    4.6450   -5.7997    1.3964 C   0  0  0  0  0  0  0  0  0  0  0  0
    5.1089   -6.5953    2.6690 C   0  0  2  0  0  0  0  0  0  0  0  0
    6.6584   -6.8860    2.3917 C   0  0  1  0  0  0  0  0  0  0  0  0
    7.6149   -5.6751    2.5633 C   0  0  0  0  0  0  0  0  0  0  0  0
    7.2346   -8.1727    3.0315 C   0  0  1  0  0  0  0  0  0  0  0  0
    8.6436   -8.1504    3.2586 O   0  0  0  0  0  0  0  0  0  0  0  0
    6.4933   -8.5938    4.2851 C   0  0  1  0  0  0  0  0  0  0  0  0
    6.8465   -7.7715    5.3823 O   0  0  0  0  0  0  0  0  0  0  0  0
    4.9777   -8.7581    3.9169 C   0  0  2  0  0  0  0  0  0  0  0  0
   -2.6285   -8.3751    3.5314 H   0  0  0  0  0  0  0  0  0  0  0  0
   -1.5991   -7.2733    4.4495 H   0  0  0  0  0  0  0  0  0  0  0  0
   -1.6555   -8.9893    4.8350 H   0  0  0  0  0  0  0  0  0  0  0  0
    0.7140   -7.6930    4.3530 H   0  0  0  0  0  0  0  0  0  0  0  0
    1.6144   -8.6341    1.6459 H   0  0  0  0  0  0  0  0  0  0  0  0
    2.5965   -6.7415    3.7444 H   0  0  0  0  0  0  0  0  0  0  0  0
    3.6094   -8.7111    0.8074 H   0  0  0  0  0  0  0  0  0  0  0  0
    5.0984   -9.3866    1.3415 H   0  0  0  0  0  0  0  0  0  0  0  0
    2.5677  -10.5876    1.7484 H   0  0  0  0  0  0  0  0  0  0  0  0
    4.0314  -11.1131    2.4209 H   0  0  0  0  0  0  0  0  0  0  0  0
    2.9439  -11.0640    4.3017 H   0  0  0  0  0  0  0  0  0  0  0  0
    1.2486  -11.0102    5.9575 H   0  0  0  0  0  0  0  0  0  0  0  0
   -0.1568  -10.0165    5.8165 H   0  0  0  0  0  0  0  0  0  0  0  0
    1.3490   -9.2990    6.2864 H   0  0  0  0  0  0  0  0  0  0  0  0
    0.9623  -11.9530    3.5871 H   0  0  0  0  0  0  0  0  0  0  0  0
    0.5163  -10.8379    2.2898 H   0  0  0  0  0  0  0  0  0  0  0  0
   -0.4964  -10.9989    3.6811 H   0  0  0  0  0  0  0  0  0  0  0  0
    5.2534   -9.7554    6.5588 H   0  0  0  0  0  0  0  0  0  0  0  0
    4.9627  -11.0820    5.4428 H   0  0  0  0  0  0  0  0  0  0  0  0
    3.7152  -10.6003    6.5810 H   0  0  0  0  0  0  0  0  0  0  0  0
    2.4686   -7.6915    5.5262 H   0  0  0  0  0  0  0  0  0  0  0  0
    3.5532   -8.1069    6.7152 H   0  0  0  0  0  0  0  0  0  0  0  0
    3.6072   -5.8228    5.8976 H   0  0  0  0  0  0  0  0  0  0  0  0
    5.0958   -6.4641    6.1946 H   0  0  0  0  0  0  0  0  0  0  0  0
    5.8453   -5.4961    4.3732 H   0  0  0  0  0  0  0  0  0  0  0  0
    3.0726   -4.5738    4.1928 H   0  0  0  0  0  0  0  0  0  0  0  0
    5.6591   -3.1533    4.9546 H   0  0  0  0  0  0  0  0  0  0  0  0
    4.4694   -3.7867    6.0808 H   0  0  0  0  0  0  0  0  0  0  0  0
    4.0433   -2.4656    5.0187 H   0  0  0  0  0  0  0  0  0  0  0  0
    3.3797   -2.9049    2.7125 H   0  0  0  0  0  0  0  0  0  0  0  0
    6.6645   -2.1731    1.1004 H   0  0  0  0  0  0  0  0  0  0  0  0
    3.7674   -1.1805    1.5432 H   0  0  0  0  0  0  0  0  0  0  0  0
    5.2527   -0.4595    2.1488 H   0  0  0  0  0  0  0  0  0  0  0  0
    4.3214    0.5823    0.1697 H   0  0  0  0  0  0  0  0  0  0  0  0
    3.3705   -1.2545   -0.9758 H   0  0  0  0  0  0  0  0  0  0  0  0
    4.5311   -0.4364   -1.9855 H   0  0  0  0  0  0  0  0  0  0  0  0
    4.8270   -2.9735   -1.9638 H   0  0  0  0  0  0  0  0  0  0  0  0
    6.2917   -2.1326   -1.4776 H   0  0  0  0  0  0  0  0  0  0  0  0
    2.6246   -5.1318    1.9396 H   0  0  0  0  0  0  0  0  0  0  0  0
    3.3243   -4.2552    0.6481 H   0  0  0  0  0  0  0  0  0  0  0  0
    4.2994   -6.4826    0.6255 H   0  0  0  0  0  0  0  0  0  0  0  0
    5.5021   -5.3259    0.9200 H   0  0  0  0  0  0  0  0  0  0  0  0
    6.7309   -7.1105    1.3266 H   0  0  0  0  0  0  0  0  0  0  0  0
    7.8442   -5.4725    3.6089 H   0  0  0  0  0  0  0  0  0  0  0  0
    7.2307   -4.7620    2.1169 H   0  0  0  0  0  0  0  0  0  0  0  0
    8.5716   -5.8607    2.0704 H   0  0  0  0  0  0  0  0  0  0  0  0
    7.0917   -8.9746    2.3092 H   0  0  0  0  0  0  0  0  0  0  0  0
    9.1074   -8.0294    2.4495 H   0  0  0  0  0  0  0  0  0  0  0  0
    6.8958   -9.5652    4.5933 H   0  0  0  0  0  0  0  0  0  0  0  0
    6.4639   -8.1256    6.1492 H   0  0  0  0  0  0  0  0  0  0  0  0
    5.2859   -9.7162    3.5109 H   0  0  0  0  0  0  0  0  0  0  0  0
    5.8313    0.0430   -0.0665 H   0  0  0  0  0  0  0  0  0  0  0  0
  1  2  1  0
  1 38  1  0
  1 39  1  0
  1 40  1  0
  2  3  1  0
  3 10  1  0
  3  4  1  0
  3 41  1  1
  4  5  2  3
  4 42  1  0
  5  6  1  0
  5 43  1  0
  6 30  1  0
  6 37  1  0
  6  7  1  6
  7  8  1  0
  7 44  1  0
  7 45  1  0
  8  9  1  0
  8 46  1  0
  8 47  1  0
  9 10  1  0
  9 13  1  0
  9 48  1  1
 10 11  1  0
 10 12  1  0
 11 49  1  0
 11 50  1  0
 11 51  1  0
 12 52  1  0
 12 53  1  0
 12 54  1  0
 13 37  1  0
 13 14  1  1
 13 15  1  0
 14 55  1  0
 14 56  1  0
 14 57  1  0
 15 16  1  0
 15 58  1  0
 15 59  1  0
 16 17  1  0
 16 60  1  0
 16 61  1  0
 17 30  1  0
 17 18  1  0
 17 62  1  1
 18 19  1  0
 18 20  1  0
 18 63  1  1
 19 64  1  0
 19 65  1  0
 19 66  1  0
 20 21  1  0
 20 28  1  0
 20 67  1  1
 21 22  1  0
 22 27  1  0
 22 23  1  0
 22 68  1  6
 23 24  1  0
 23 69  1  0
 23 70  1  0
 24 25  1  0
 24 71  1  0
 24 89  1  0
 25 26  1  0
 25 72  1  0
 25 73  1  0
 26 27  1  0
 26 74  1  0
 26 75  1  0
 28 29  1  0
 28 76  1  0
 28 77  1  0
 30 29  1  6
 29 78  1  0
 29 79  1  0
 30 31  1  0
 31 32  1  0
 31 33  1  0
 31 80  1  6
 32 81  1  0
 32 82  1  0
 32 83  1  0
 33 34  1  0
 33 35  1  0
 33 84  1  6
 34 85  1  0
 35 36  1  0
 35 37  1  0
 35 86  1  1
 36 87  1  0
 37 88  1  6
M  CHG  1  24   1
M  END
>  <i_m_ct_stereo_status>  (89) 
1

>  <s_m_source_file>  (89) 
/var/tmp/pbs.5076255.sched01/tmplremgrqo/0ygzoxw5b.sdf

>  <i_m_source_file_index>  (89) 
41

>  <i_lp_mmshare_version>  (89) 
48012

>  <i_f3d_flags>  (89) 
0

>  <s_epik_input>  (89) 
W0NIM11PW0NASF0oL1tDSF09W0NIXVwxKUMoW0NIM10pKFtDSDNdKVtDQEBIXShbQ0gyXVtDSDJdMilbQ0BAXShbQ0gzXSkoW0NAQEhdM1tDQEhdKFtPSF0pW0NASF0oW09IXSlbQ0BASF00W0NIM10pW0NIMl1bQ0gyXVtDQEBIXShbQ0BdNDVbQ0BAXTEyMylbQ0BASF0oW0NIM10pW0NASF0oW0NIMl1bQ0gyXTUpT1tDQEBIXTZbQ0gyXVtOSF1bQ0gyXVtDSDJdTzY=

>  <s_epik_cmdline>  (89) 
J2VwaWtfcHl0aG9uJywgJy1waHQnLCAnMi4wJywgJy1waCcsICc3LjAnLCAnLXRuJywgJzgnLCAnLW1hJywgJzIwMCcsICctaW1hZScsICc8aW5maWxlLm1hZT4nLCAnLW9tYWUnLCAnPG91dGZpbGUubWFlPic=

>  <r_epik_Ionization_Penalty>  (89) 
0.0638577

>  <r_epik_Ionization_Penalty_Charging>  (89) 
0.0638567

>  <r_epik_Ionization_Penalty_Neutral>  (89) 
9.61373e-07

>  <r_epik_State_Penalty>  (89) 
0.0555871

>  <r_epik_Charging_Adjusted_Penalty>  (89) 
0.119444

>  <i_epik_Tot_Q>  (89) 
1

>  <i_epik_Tot_abs_Q>  (89) 
1

>  <s_epik_Chemistry_Notes>  (89) 
This compound contains an acetal/aminal-like group ( X-CH(R)-Y where X, Y are N, S, or O) that may be acid/base labile, releasing an aldehyde.

>  <s_lp_Force_Field>  (89) 
OPLS3e

>  <r_lp_Energy>  (89) 
236.81

>  <b_lp_Chiralities_Consistent>  (89) 
1

>  <s_lp_Variant>  (89) 
23:0-2

>  <s_i_glide_gridfile>  (89) 
pfpi4k_grid

>  <i_i_glide_lignum>  (89) 
41

>  <i_i_glide_rotatable_bonds>  (89) 
5

>  <r_i_docking_score>  (89) 
-2.08314

>  <r_i_glide_ligand_efficiency>  (89) 
-0.056301

>  <r_i_glide_ligand_efficiency_sa>  (89) 
-0.187607

>  <r_i_glide_ligand_efficiency_ln>  (89) 
-0.451784

>  <r_i_glide_gscore>  (89) 
-2.08314

>  <r_i_glide_lipo>  (89) 
-0.273389

>  <r_i_glide_hbond>  (89) 
0

>  <r_i_glide_metal>  (89) 
-0

>  <r_i_glide_rewards>  (89) 
-0.0967164

>  <r_i_glide_evdw>  (89) 
-23.9454

>  <r_i_glide_ecoul>  (89) 
-4.45616

>  <r_i_glide_erotb>  (89) 
0.15266

>  <r_i_glide_esite>  (89) 
0

>  <r_i_glide_emodel>  (89) 
-30.4887

>  <r_i_glide_energy>  (89) 
-28.4015

>  <r_i_glide_einternal>  (89) 
6.69118

>  <r_i_glide_intrahb_reward>  (89) 
-0

>  <i_i_glide_confnum>  (89) 
3

>  <i_i_glide_posenum>  (89) 
19

>  <r_i_glide_eff_state_penalty>  (89) 
0

>  <ligand_id>  (89) 
23

>  <original_smiles>  (89) 
COC1C=CC23CCC(C1(C)C)C1(C)CCC4C(C)C(OC5CNCCO5)CCC42C(C)C(O)C(O)C13

>  <smiles>  (89) 
[H]OC1([H])C([H])(O[H])C([H])(C([H])([H])[H])C23C([H])([H])C([H])([H])C([H])(OC4([H])OC([H])([H])C([H])([H])[N+]([H])([H])C4([H])[H])C([H])(C([H])([H])[H])C2([H])C([H])([H])C([H])([H])C2(C([H])([H])[H])C1([H])C31C([H])=C([H])C([H])(OC([H])([H])[H])C(C([H])([H])[H])(C([H])([H])[H])C2([H])C([H])([H])C1([H])[H]

$$$$
23:2:0
     RDKit          3D

 88 93  0  0  1  0  0  0  0  0999 V2000
   -0.1486   -5.0728    7.9514 C   0  0  0  0  0  0  0  0  0  0  0  0
   -0.0817   -6.4933    7.9779 O   0  0  0  0  0  0  0  0  0  0  0  0
    0.8804   -7.0695    7.0900 C   0  0  2  0  0  0  0  0  0  0  0  0
    0.4241   -6.9565    5.6461 C   0  0  0  0  0  0  0  0  0  0  0  0
    0.8824   -7.4279    4.4581 C   0  0  0  0  0  0  0  0  0  0  0  0
    2.0355   -8.3210    3.8071 C   0  0  1  0  0  0  0  0  0  0  0  0
    1.1433   -9.5789    3.7531 C   0  0  0  0  0  0  0  0  0  0  0  0
    0.9763  -10.0471    5.2725 C   0  0  0  0  0  0  0  0  0  0  0  0
    1.8981   -9.3417    6.4242 C   0  0  2  0  0  0  0  0  0  0  0  0
    1.1537   -8.5209    7.5368 C   0  0  0  0  0  0  0  0  0  0  0  0
    1.9969   -8.4893    8.8372 C   0  0  0  0  0  0  0  0  0  0  0  0
   -0.1725   -9.2130    7.9360 C   0  0  0  0  0  0  0  0  0  0  0  0
    3.3341   -8.7671    5.9531 C   0  0  2  0  0  0  0  0  0  0  0  0
    4.4149   -9.6258    6.6774 C   0  0  0  0  0  0  0  0  0  0  0  0
    3.8292   -7.2594    5.9886 C   0  0  0  0  0  0  0  0  0  0  0  0
    3.4254   -6.1264    4.9386 C   0  0  0  0  0  0  0  0  0  0  0  0
    3.3474   -6.2010    3.3280 C   0  0  2  0  0  0  0  0  0  0  0  0
    2.7677   -4.8226    2.8193 C   0  0  1  0  0  0  0  0  0  0  0  0
    3.4884   -3.5767    3.3803 C   0  0  0  0  0  0  0  0  0  0  0  0
    2.6195   -4.6598    1.2815 C   0  0  1  0  0  0  0  0  0  0  0  0
    3.8763   -4.3931    0.6650 O   0  0  0  0  0  0  0  0  0  0  0  0
    3.8228   -3.7503   -0.5792 C   0  0  2  0  0  0  0  0  0  0  0  0
    5.2106   -3.9287   -1.2388 C   0  0  0  0  0  0  0  0  0  0  0  0
    5.2005   -3.2222   -2.5306 N   0  0  0  0  0  0  0  0  0  0  0  0
    4.8144   -1.8211   -2.3904 C   0  0  0  0  0  0  0  0  0  0  0  0
    3.4629   -1.7186   -1.6768 C   0  0  0  0  0  0  0  0  0  0  0  0
    3.5617   -2.3877   -0.4238 O   0  0  0  0  0  0  0  0  0  0  0  0
    1.9113   -5.8563    0.6087 C   0  0  0  0  0  0  0  0  0  0  0  0
    1.5057   -6.9546    1.6044 C   0  0  0  0  0  0  0  0  0  0  0  0
    2.6329   -7.4596    2.5974 C   0  0  2  0  0  0  0  0  0  0  0  0
    3.6378   -8.2898    1.6492 C   0  0  1  0  0  0  0  0  0  0  0  0
    4.7302   -7.5051    0.8690 C   0  0  0  0  0  0  0  0  0  0  0  0
    4.2898   -9.5280    2.2968 C   0  0  1  0  0  0  0  0  0  0  0  0
    5.3715  -10.1280    1.5976 O   0  0  0  0  0  0  0  0  0  0  0  0
    4.6570   -9.2404    3.7341 C   0  0  1  0  0  0  0  0  0  0  0  0
    5.6234   -8.2122    3.8161 O   0  0  0  0  0  0  0  0  0  0  0  0
    3.3155   -9.0246    4.4995 C   0  0  2  0  0  0  0  0  0  0  0  0
   -0.8978   -4.7352    8.6690 H   0  0  0  0  0  0  0  0  0  0  0  0
   -0.4354   -4.6929    6.9696 H   0  0  0  0  0  0  0  0  0  0  0  0
    0.8082   -4.6266    8.2291 H   0  0  0  0  0  0  0  0  0  0  0  0
    1.7587   -6.4557    7.2254 H   0  0  0  0  0  0  0  0  0  0  0  0
   -0.5135   -6.4239    5.5720 H   0  0  0  0  0  0  0  0  0  0  0  0
    0.1056   -7.2094    3.7574 H   0  0  0  0  0  0  0  0  0  0  0  0
    0.1605   -9.3977    3.3074 H   0  0  0  0  0  0  0  0  0  0  0  0
    1.5571  -10.3790    3.1381 H   0  0  0  0  0  0  0  0  0  0  0  0
   -0.0819  -10.0149    5.5106 H   0  0  0  0  0  0  0  0  0  0  0  0
    1.2033  -11.1146    5.2968 H   0  0  0  0  0  0  0  0  0  0  0  0
    2.1430  -10.2439    6.9890 H   0  0  0  0  0  0  0  0  0  0  0  0
    2.2024   -9.4949    9.2051 H   0  0  0  0  0  0  0  0  0  0  0  0
    1.4772   -7.9571    9.6349 H   0  0  0  0  0  0  0  0  0  0  0  0
    2.9518   -7.9875    8.7077 H   0  0  0  0  0  0  0  0  0  0  0  0
   -0.0179  -10.2808    8.0681 H   0  0  0  0  0  0  0  0  0  0  0  0
   -0.9625   -9.0744    7.2002 H   0  0  0  0  0  0  0  0  0  0  0  0
   -0.5645   -8.8276    8.8776 H   0  0  0  0  0  0  0  0  0  0  0  0
    5.4328   -9.3834    6.3712 H   0  0  0  0  0  0  0  0  0  0  0  0
    4.2783  -10.6909    6.4846 H   0  0  0  0  0  0  0  0  0  0  0  0
    4.3769   -9.4913    7.7571 H   0  0  0  0  0  0  0  0  0  0  0  0
    3.7351   -6.8657    6.9954 H   0  0  0  0  0  0  0  0  0  0  0  0
    4.9154   -7.2834    5.9340 H   0  0  0  0  0  0  0  0  0  0  0  0
    2.5393   -5.6126    5.3005 H   0  0  0  0  0  0  0  0  0  0  0  0
    4.2023   -5.3864    5.1269 H   0  0  0  0  0  0  0  0  0  0  0  0
    4.3838   -6.1790    3.0122 H   0  0  0  0  0  0  0  0  0  0  0  0
    1.7535   -4.7625    3.2166 H   0  0  0  0  0  0  0  0  0  0  0  0
    4.5614   -3.6222    3.1846 H   0  0  0  0  0  0  0  0  0  0  0  0
    3.3378   -3.4581    4.4542 H   0  0  0  0  0  0  0  0  0  0  0  0
    3.1082   -2.6641    2.9177 H   0  0  0  0  0  0  0  0  0  0  0  0
    2.0021   -3.7748    1.1353 H   0  0  0  0  0  0  0  0  0  0  0  0
    3.0506   -4.1980   -1.2089 H   0  0  0  0  0  0  0  0  0  0  0  0
    5.9772   -3.5375   -0.5732 H   0  0  0  0  0  0  0  0  0  0  0  0
    5.3971   -4.9927   -1.3814 H   0  0  0  0  0  0  0  0  0  0  0  0
    6.1145   -3.2933   -2.9659 H   0  0  0  0  0  0  0  0  0  0  0  0
    5.5678   -1.2761   -1.8217 H   0  0  0  0  0  0  0  0  0  0  0  0
    4.7567   -1.3466   -3.3708 H   0  0  0  0  0  0  0  0  0  0  0  0
    3.2146   -0.6729   -1.5014 H   0  0  0  0  0  0  0  0  0  0  0  0
    2.6621   -2.1389   -2.2882 H   0  0  0  0  0  0  0  0  0  0  0  0
    1.0162   -5.4968    0.1079 H   0  0  0  0  0  0  0  0  0  0  0  0
    2.4869   -6.2540   -0.2199 H   0  0  0  0  0  0  0  0  0  0  0  0
    0.6672   -6.4761    2.0869 H   0  0  0  0  0  0  0  0  0  0  0  0
    1.0658   -7.7960    1.0644 H   0  0  0  0  0  0  0  0  0  0  0  0
    3.0252   -8.7377    0.8710 H   0  0  0  0  0  0  0  0  0  0  0  0
    5.5600   -7.1804    1.4969 H   0  0  0  0  0  0  0  0  0  0  0  0
    4.3913   -6.6364    0.3333 H   0  0  0  0  0  0  0  0  0  0  0  0
    5.1418   -8.1467    0.0957 H   0  0  0  0  0  0  0  0  0  0  0  0
    3.5502  -10.3266    2.2906 H   0  0  0  0  0  0  0  0  0  0  0  0
    5.0032  -10.8320    1.0600 H   0  0  0  0  0  0  0  0  0  0  0  0
    5.1574  -10.1291    4.1260 H   0  0  0  0  0  0  0  0  0  0  0  0
    5.9101   -8.1503    4.7108 H   0  0  0  0  0  0  0  0  0  0  0  0
    3.1851  -10.1082    4.5038 H   0  0  0  0  0  0  0  0  0  0  0  0
  1  2  1  0
  1 38  1  0
  1 39  1  0
  1 40  1  0
  2  3  1  0
  3 10  1  0
  3  4  1  0
  3 41  1  6
  4  5  2  3
  4 42  1  0
  5  6  1  0
  5 43  1  0
  6 30  1  0
  6 37  1  0
  6  7  1  6
  7  8  1  0
  7 44  1  0
  7 45  1  0
  8  9  1  0
  8 46  1  0
  8 47  1  0
  9 10  1  0
  9 13  1  0
  9 48  1  1
 10 11  1  0
 10 12  1  0
 11 49  1  0
 11 50  1  0
 11 51  1  0
 12 52  1  0
 12 53  1  0
 12 54  1  0
 13 37  1  0
 13 14  1  1
 13 15  1  0
 14 55  1  0
 14 56  1  0
 14 57  1  0
 15 16  1  0
 15 58  1  0
 15 59  1  0
 16 17  1  0
 16 60  1  0
 16 61  1  0
 17 30  1  0
 17 18  1  0
 17 62  1  6
 18 19  1  0
 18 20  1  0
 18 63  1  1
 19 64  1  0
 19 65  1  0
 19 66  1  0
 20 21  1  0
 20 28  1  0
 20 67  1  1
 21 22  1  0
 22 27  1  0
 22 23  1  0
 22 68  1  6
 23 24  1  0
 23 69  1  0
 23 70  1  0
 24 25  1  0
 24 71  1  0
 25 26  1  0
 25 72  1  0
 25 73  1  0
 26 27  1  0
 26 74  1  0
 26 75  1  0
 28 29  1  0
 28 76  1  0
 28 77  1  0
 30 29  1  6
 29 78  1  0
 29 79  1  0
 30 31  1  0
 31 32  1  0
 31 33  1  0
 31 80  1  6
 32 81  1  0
 32 82  1  0
 32 83  1  0
 33 34  1  0
 33 35  1  0
 33 84  1  1
 34 85  1  0
 35 36  1  0
 35 37  1  0
 35 86  1  1
 36 87  1  0
 37 88  1  1
M  END
>  <i_m_ct_stereo_status>  (90) 
1

>  <s_m_source_file>  (90) 
/var/tmp/pbs.5076255.sched01/tmplremgrqo/0ygzoxw5b.sdf

>  <i_m_source_file_index>  (90) 
42

>  <i_lp_mmshare_version>  (90) 
48012

>  <i_f3d_flags>  (90) 
0

>  <s_epik_input>  (90) 
W0NIM11PW0NASF0oL1tDSF09W0NIXVwxKUMoW0NIM10pKFtDSDNdKVtDQEBIXShbQ0gyXVtDSDJdMilbQ0BAXShbQ0gzXSkoW0NAQEhdM1tDQEhdKFtPSF0pW0NASF0oW09IXSlbQ0BASF00W0NIM10pW0NIMl1bQ0gyXVtDQEBIXShbQ0BdNDVbQ0BAXTEyMylbQ0BASF0oW0NIM10pW0NASF0oW0NIMl1bQ0gyXTUpT1tDQEBIXTZbQ0gyXVtOSF1bQ0gyXVtDSDJdTzY=

>  <s_epik_cmdline>  (90) 
J2VwaWtfcHl0aG9uJywgJy1waHQnLCAnMi4wJywgJy1waCcsICc3LjAnLCAnLXRuJywgJzgnLCAnLW1hJywgJzIwMCcsICctaW1hZScsICc8aW5maWxlLm1hZT4nLCAnLW9tYWUnLCAnPG91dGZpbGUubWFlPic=

>  <r_epik_Ionization_Penalty>  (90) 
1.35151

>  <r_epik_Ionization_Penalty_Charging>  (90) 
0

>  <r_epik_Ionization_Penalty_Neutral>  (90) 
1.35151

>  <r_epik_State_Penalty>  (90) 
1.42962

>  <r_epik_Charging_Adjusted_Penalty>  (90) 
1.42962

>  <i_epik_Tot_Q>  (90) 
0

>  <i_epik_Tot_abs_Q>  (90) 
0

>  <s_epik_Chemistry_Notes>  (90) 
This compound contains an acetal/aminal-like group ( X-CH(R)-Y where X, Y are N, S, or O) that may be acid/base labile, releasing an aldehyde.

>  <s_lp_Force_Field>  (90) 
OPLS3e

>  <r_lp_Energy>  (90) 
227.102

>  <b_lp_Chiralities_Consistent>  (90) 
1

>  <s_lp_Variant>  (90) 
23:0-3

>  <s_i_glide_gridfile>  (90) 
pfpi4k_grid

>  <i_i_glide_lignum>  (90) 
42

>  <i_i_glide_rotatable_bonds>  (90) 
5

>  <r_i_docking_score>  (90) 
-2.0474

>  <r_i_glide_ligand_efficiency>  (90) 
-0.0553351

>  <r_i_glide_ligand_efficiency_sa>  (90) 
-0.184389

>  <r_i_glide_ligand_efficiency_ln>  (90) 
-0.444033

>  <r_i_glide_gscore>  (90) 
-2.0474

>  <r_i_glide_lipo>  (90) 
-0.086475

>  <r_i_glide_hbond>  (90) 
0

>  <r_i_glide_metal>  (90) 
-0

>  <r_i_glide_rewards>  (90) 
0

>  <r_i_glide_evdw>  (90) 
-26.1146

>  <r_i_glide_ecoul>  (90) 
-5.36529

>  <r_i_glide_erotb>  (90) 
0.153207

>  <r_i_glide_esite>  (90) 
-0.00360565

>  <r_i_glide_emodel>  (90) 
-34.6567

>  <r_i_glide_energy>  (90) 
-31.4799

>  <r_i_glide_einternal>  (90) 
1.64729

>  <r_i_glide_intrahb_reward>  (90) 
-0

>  <i_i_glide_confnum>  (90) 
6

>  <i_i_glide_posenum>  (90) 
40

>  <r_i_glide_eff_state_penalty>  (90) 
0

>  <ligand_id>  (90) 
23

>  <original_smiles>  (90) 
COC1C=CC23CCC(C1(C)C)C1(C)CCC4C(C)C(OC5CNCCO5)CCC42C(C)C(O)C(O)C13

>  <smiles>  (90) 
[H]OC1([H])C([H])(O[H])C([H])(C([H])([H])[H])C23C([H])([H])C([H])([H])C([H])(OC4([H])OC([H])([H])C([H])([H])N([H])C4([H])[H])C([H])(C([H])([H])[H])C2([H])C([H])([H])C([H])([H])C2(C([H])([H])[H])C1([H])C31C([H])=C([H])C([H])(OC([H])([H])[H])C(C([H])([H])[H])(C([H])([H])[H])C2([H])C([H])([H])C1([H])[H]

$$$$
23:2:1
     RDKit          3D

 88 93  0  0  1  0  0  0  0  0999 V2000
   -0.1369   -5.0774    7.9460 C   0  0  0  0  0  0  0  0  0  0  0  0
   -0.0718   -6.4979    7.9733 O   0  0  0  0  0  0  0  0  0  0  0  0
    0.8905   -7.0760    7.0870 C   0  0  2  0  0  0  0  0  0  0  0  0
    0.4359   -6.9609    5.6419 C   0  0  0  0  0  0  0  0  0  0  0  0
    0.8938   -7.4310    4.4540 C   0  0  0  0  0  0  0  0  0  0  0  0
    2.0455   -8.3247    3.8017 C   0  0  1  0  0  0  0  0  0  0  0  0
    1.1478   -9.5794    3.7464 C   0  0  0  0  0  0  0  0  0  0  0  0
    0.9780  -10.0518    5.2639 C   0  0  0  0  0  0  0  0  0  0  0  0
    1.8975   -9.3470    6.4161 C   0  0  2  0  0  0  0  0  0  0  0  0
    1.1563   -8.5282    7.5318 C   0  0  0  0  0  0  0  0  0  0  0  0
    1.9988   -8.5030    8.8333 C   0  0  0  0  0  0  0  0  0  0  0  0
   -0.1737   -9.2153    7.9279 C   0  0  0  0  0  0  0  0  0  0  0  0
    3.3372   -8.7804    5.9492 C   0  0  2  0  0  0  0  0  0  0  0  0
    4.4149   -9.6443    6.6735 C   0  0  0  0  0  0  0  0  0  0  0  0
    3.8401   -7.2767    5.9860 C   0  0  0  0  0  0  0  0  0  0  0  0
    3.4423   -6.1390    4.9380 C   0  0  0  0  0  0  0  0  0  0  0  0
    3.3636   -6.2069    3.3261 C   0  0  2  0  0  0  0  0  0  0  0  0
    2.7834   -4.8263    2.8213 C   0  0  1  0  0  0  0  0  0  0  0  0
    3.5122   -3.5863    3.3861 C   0  0  0  0  0  0  0  0  0  0  0  0
    2.6372   -4.6599    1.2802 C   0  0  1  0  0  0  0  0  0  0  0  0
    3.8983   -4.4010    0.6702 O   0  0  0  0  0  0  0  0  0  0  0  0
    3.8534   -3.7604   -0.5754 C   0  0  2  0  0  0  0  0  0  0  0  0
    5.2330   -3.9678   -1.2432 C   0  0  0  0  0  0  0  0  0  0  0  0
    5.2293   -3.2641   -2.5354 N   0  0  0  0  0  0  0  0  0  0  0  0
    4.8727   -1.8540   -2.3981 C   0  0  0  0  0  0  0  0  0  0  0  0
    3.5296   -1.7229   -1.6757 C   0  0  0  0  0  0  0  0  0  0  0  0
    3.6217   -2.3919   -0.4225 O   0  0  0  0  0  0  0  0  0  0  0  0
    1.9252   -5.8554    0.6073 C   0  0  0  0  0  0  0  0  0  0  0  0
    1.5218   -6.9550    1.6001 C   0  0  0  0  0  0  0  0  0  0  0  0
    2.6469   -7.4630    2.5946 C   0  0  2  0  0  0  0  0  0  0  0  0
    3.6521   -8.2954    1.6487 C   0  0  1  0  0  0  0  0  0  0  0  0
    4.7473   -7.5120    0.8716 C   0  0  0  0  0  0  0  0  0  0  0  0
    4.3006   -9.5366    2.2949 C   0  0  1  0  0  0  0  0  0  0  0  0
    5.3807  -10.1325    1.5898 O   0  0  0  0  0  0  0  0  0  0  0  0
    4.6673   -9.2560    3.7353 C   0  0  1  0  0  0  0  0  0  0  0  0
    5.6409   -8.2361    3.8267 O   0  0  0  0  0  0  0  0  0  0  0  0
    3.3223   -9.0336    4.4950 C   0  0  2  0  0  0  0  0  0  0  0  0
   -0.8856   -4.7386    8.6630 H   0  0  0  0  0  0  0  0  0  0  0  0
   -0.4248   -4.6961    6.9651 H   0  0  0  0  0  0  0  0  0  0  0  0
    0.8194   -4.6299    8.2231 H   0  0  0  0  0  0  0  0  0  0  0  0
    1.7716   -6.4656    7.2233 H   0  0  0  0  0  0  0  0  0  0  0  0
   -0.4971   -6.4227    5.5662 H   0  0  0  0  0  0  0  0  0  0  0  0
    0.1191   -7.2062    3.7523 H   0  0  0  0  0  0  0  0  0  0  0  0
    0.1669   -9.3954    3.2981 H   0  0  0  0  0  0  0  0  0  0  0  0
    1.5588  -10.3813    3.1332 H   0  0  0  0  0  0  0  0  0  0  0  0
   -0.0800  -10.0188    5.5028 H   0  0  0  0  0  0  0  0  0  0  0  0
    1.2010  -11.1204    5.2865 H   0  0  0  0  0  0  0  0  0  0  0  0
    2.1410  -10.2488    6.9805 H   0  0  0  0  0  0  0  0  0  0  0  0
    2.2009   -9.5092    9.2006 H   0  0  0  0  0  0  0  0  0  0  0  0
    1.4802   -7.9700    9.6311 H   0  0  0  0  0  0  0  0  0  0  0  0
    2.9555   -8.0040    8.7058 H   0  0  0  0  0  0  0  0  0  0  0  0
   -0.0286  -10.2850    8.0522 H   0  0  0  0  0  0  0  0  0  0  0  0
   -0.9614   -9.0680    7.1921 H   0  0  0  0  0  0  0  0  0  0  0  0
   -0.5625   -8.8326    8.8720 H   0  0  0  0  0  0  0  0  0  0  0  0
    5.4333   -9.4026    6.3657 H   0  0  0  0  0  0  0  0  0  0  0  0
    4.2780  -10.7084    6.4796 H   0  0  0  0  0  0  0  0  0  0  0  0
    4.3793   -9.5120    7.7531 H   0  0  0  0  0  0  0  0  0  0  0  0
    3.7497   -6.8833    6.9933 H   0  0  0  0  0  0  0  0  0  0  0  0
    4.9267   -7.3087    5.9285 H   0  0  0  0  0  0  0  0  0  0  0  0
    2.5594   -5.6224    5.3017 H   0  0  0  0  0  0  0  0  0  0  0  0
    4.2194   -5.4015    5.1313 H   0  0  0  0  0  0  0  0  0  0  0  0
    4.3976   -6.1759    3.0044 H   0  0  0  0  0  0  0  0  0  0  0  0
    1.7708   -4.7631    3.2225 H   0  0  0  0  0  0  0  0  0  0  0  0
    4.5859   -3.6340    3.1924 H   0  0  0  0  0  0  0  0  0  0  0  0
    3.3632   -3.4669    4.4609 H   0  0  0  0  0  0  0  0  0  0  0  0
    3.1386   -2.6697    2.9263 H   0  0  0  0  0  0  0  0  0  0  0  0
    2.0250   -3.7672    1.1384 H   0  0  0  0  0  0  0  0  0  0  0  0
    3.0666   -4.1911   -1.1998 H   0  0  0  0  0  0  0  0  0  0  0  0
    6.0135   -3.5904   -0.5860 H   0  0  0  0  0  0  0  0  0  0  0  0
    5.3941   -5.0371   -1.3873 H   0  0  0  0  0  0  0  0  0  0  0  0
    6.1360   -3.3540   -2.9771 H   0  0  0  0  0  0  0  0  0  0  0  0
    5.6434   -1.3262   -1.8374 H   0  0  0  0  0  0  0  0  0  0  0  0
    4.8189   -1.3822   -3.3803 H   0  0  0  0  0  0  0  0  0  0  0  0
    3.3052   -0.6712   -1.5016 H   0  0  0  0  0  0  0  0  0  0  0  0
    2.7151   -2.1266   -2.2804 H   0  0  0  0  0  0  0  0  0  0  0  0
    1.0261   -5.4917    0.1148 H   0  0  0  0  0  0  0  0  0  0  0  0
    2.4974   -6.2572   -0.2203 H   0  0  0  0  0  0  0  0  0  0  0  0
    0.6835   -6.4763    2.0824 H   0  0  0  0  0  0  0  0  0  0  0  0
    1.0801   -7.7921    1.0580 H   0  0  0  0  0  0  0  0  0  0  0  0
    3.0407   -8.7387    0.8662 H   0  0  0  0  0  0  0  0  0  0  0  0
    5.5807   -7.1887    1.4945 H   0  0  0  0  0  0  0  0  0  0  0  0
    4.4083   -6.6447    0.3338 H   0  0  0  0  0  0  0  0  0  0  0  0
    5.1582   -8.1526    0.0972 H   0  0  0  0  0  0  0  0  0  0  0  0
    3.5585  -10.3331    2.2843 H   0  0  0  0  0  0  0  0  0  0  0  0
    5.0128  -10.8414    1.0576 H   0  0  0  0  0  0  0  0  0  0  0  0
    5.1609  -10.1484    4.1268 H   0  0  0  0  0  0  0  0  0  0  0  0
    5.2788   -7.4575    3.4350 H   0  0  0  0  0  0  0  0  0  0  0  0
    3.1855  -10.1153    4.4973 H   0  0  0  0  0  0  0  0  0  0  0  0
  1  2  1  0
  1 38  1  0
  1 39  1  0
  1 40  1  0
  2  3  1  0
  3 10  1  0
  3  4  1  0
  3 41  1  6
  4  5  2  3
  4 42  1  0
  5  6  1  0
  5 43  1  0
  6 30  1  0
  6 37  1  0
  6  7  1  6
  7  8  1  0
  7 44  1  0
  7 45  1  0
  8  9  1  0
  8 46  1  0
  8 47  1  0
  9 10  1  0
  9 13  1  0
  9 48  1  1
 10 11  1  0
 10 12  1  0
 11 49  1  0
 11 50  1  0
 11 51  1  0
 12 52  1  0
 12 53  1  0
 12 54  1  0
 13 37  1  0
 13 14  1  1
 13 15  1  0
 14 55  1  0
 14 56  1  0
 14 57  1  0
 15 16  1  0
 15 58  1  0
 15 59  1  0
 16 17  1  0
 16 60  1  0
 16 61  1  0
 17 30  1  0
 17 18  1  0
 17 62  1  6
 18 19  1  0
 18 20  1  0
 18 63  1  1
 19 64  1  0
 19 65  1  0
 19 66  1  0
 20 21  1  0
 20 28  1  0
 20 67  1  1
 21 22  1  0
 22 27  1  0
 22 23  1  0
 22 68  1  6
 23 24  1  0
 23 69  1  0
 23 70  1  0
 24 25  1  0
 24 71  1  0
 25 26  1  0
 25 72  1  0
 25 73  1  0
 26 27  1  0
 26 74  1  0
 26 75  1  0
 28 29  1  0
 28 76  1  0
 28 77  1  0
 30 29  1  6
 29 78  1  0
 29 79  1  0
 30 31  1  0
 31 32  1  0
 31 33  1  0
 31 80  1  6
 32 81  1  0
 32 82  1  0
 32 83  1  0
 33 34  1  0
 33 35  1  0
 33 84  1  1
 34 85  1  0
 35 36  1  0
 35 37  1  0
 35 86  1  1
 36 87  1  0
 37 88  1  1
M  END
>  <i_m_ct_stereo_status>  (91) 
1

>  <s_m_source_file>  (91) 
/var/tmp/pbs.5076255.sched01/tmplremgrqo/0ygzoxw5b.sdf

>  <i_m_source_file_index>  (91) 
42

>  <i_lp_mmshare_version>  (91) 
48012

>  <i_f3d_flags>  (91) 
0

>  <s_epik_input>  (91) 
W0NIM11PW0NASF0oL1tDSF09W0NIXVwxKUMoW0NIM10pKFtDSDNdKVtDQEBIXShbQ0gyXVtDSDJdMilbQ0BAXShbQ0gzXSkoW0NAQEhdM1tDQEhdKFtPSF0pW0NASF0oW09IXSlbQ0BASF00W0NIM10pW0NIMl1bQ0gyXVtDQEBIXShbQ0BdNDVbQ0BAXTEyMylbQ0BASF0oW0NIM10pW0NASF0oW0NIMl1bQ0gyXTUpT1tDQEBIXTZbQ0gyXVtOSF1bQ0gyXVtDSDJdTzY=

>  <s_epik_cmdline>  (91) 
J2VwaWtfcHl0aG9uJywgJy1waHQnLCAnMi4wJywgJy1waCcsICc3LjAnLCAnLXRuJywgJzgnLCAnLW1hJywgJzIwMCcsICctaW1hZScsICc8aW5maWxlLm1hZT4nLCAnLW9tYWUnLCAnPG91dGZpbGUubWFlPic=

>  <r_epik_Ionization_Penalty>  (91) 
1.35151

>  <r_epik_Ionization_Penalty_Charging>  (91) 
0

>  <r_epik_Ionization_Penalty_Neutral>  (91) 
1.35151

>  <r_epik_State_Penalty>  (91) 
1.42962

>  <r_epik_Charging_Adjusted_Penalty>  (91) 
1.42962

>  <i_epik_Tot_Q>  (91) 
0

>  <i_epik_Tot_abs_Q>  (91) 
0

>  <s_epik_Chemistry_Notes>  (91) 
This compound contains an acetal/aminal-like group ( X-CH(R)-Y where X, Y are N, S, or O) that may be acid/base labile, releasing an aldehyde.

>  <s_lp_Force_Field>  (91) 
OPLS3e

>  <r_lp_Energy>  (91) 
227.102

>  <b_lp_Chiralities_Consistent>  (91) 
1

>  <s_lp_Variant>  (91) 
23:0-3

>  <s_i_glide_gridfile>  (91) 
pfpi4k_grid

>  <i_i_glide_lignum>  (91) 
42

>  <i_i_glide_rotatable_bonds>  (91) 
5

>  <r_i_docking_score>  (91) 
-2.04619

>  <r_i_glide_ligand_efficiency>  (91) 
-0.0553024

>  <r_i_glide_ligand_efficiency_sa>  (91) 
-0.18428

>  <r_i_glide_ligand_efficiency_ln>  (91) 
-0.443771

>  <r_i_glide_gscore>  (91) 
-2.04619

>  <r_i_glide_lipo>  (91) 
-0.079807

>  <r_i_glide_hbond>  (91) 
0

>  <r_i_glide_metal>  (91) 
-0

>  <r_i_glide_rewards>  (91) 
0

>  <r_i_glide_evdw>  (91) 
-26.0229

>  <r_i_glide_ecoul>  (91) 
-5.42931

>  <r_i_glide_erotb>  (91) 
0.153207

>  <r_i_glide_esite>  (91) 
-0.00404797

>  <r_i_glide_emodel>  (91) 
-34.7378

>  <r_i_glide_energy>  (91) 
-31.4522

>  <r_i_glide_einternal>  (91) 
1.37496

>  <r_i_glide_intrahb_reward>  (91) 
-0

>  <i_i_glide_confnum>  (91) 
6

>  <i_i_glide_posenum>  (91) 
30

>  <r_i_glide_eff_state_penalty>  (91) 
0

>  <ligand_id>  (91) 
23

>  <original_smiles>  (91) 
COC1C=CC23CCC(C1(C)C)C1(C)CCC4C(C)C(OC5CNCCO5)CCC42C(C)C(O)C(O)C13

>  <smiles>  (91) 
[H]OC1([H])C([H])(O[H])C([H])(C([H])([H])[H])C23C([H])([H])C([H])([H])C([H])(OC4([H])OC([H])([H])C([H])([H])N([H])C4([H])[H])C([H])(C([H])([H])[H])C2([H])C([H])([H])C([H])([H])C2(C([H])([H])[H])C1([H])C31C([H])=C([H])C([H])(OC([H])([H])[H])C(C([H])([H])[H])(C([H])([H])[H])C2([H])C([H])([H])C1([H])[H]

$$$$
23:2:2
     RDKit          3D

 88 93  0  0  1  0  0  0  0  0999 V2000
   -0.0991   -5.0943    7.9665 C   0  0  0  0  0  0  0  0  0  0  0  0
   -0.0367   -6.5154    7.9952 O   0  0  0  0  0  0  0  0  0  0  0  0
    0.9239   -7.0902    7.1028 C   0  0  2  0  0  0  0  0  0  0  0  0
    0.4636   -6.9719    5.6670 C   0  0  0  0  0  0  0  0  0  0  0  0
    0.9159   -7.4436    4.4684 C   0  0  0  0  0  0  0  0  0  0  0  0
    2.0621   -8.3357    3.8136 C   0  0  1  0  0  0  0  0  0  0  0  0
    1.1631   -9.5870    3.7542 C   0  0  0  0  0  0  0  0  0  0  0  0
    0.9959  -10.0637    5.2695 C   0  0  0  0  0  0  0  0  0  0  0  0
    1.9191   -9.3593    6.4205 C   0  0  2  0  0  0  0  0  0  0  0  0
    1.1852   -8.5421    7.5417 C   0  0  0  0  0  0  0  0  0  0  0  0
    2.0309   -8.5296    8.8405 C   0  0  0  0  0  0  0  0  0  0  0  0
   -0.1454   -9.2262    7.9366 C   0  0  0  0  0  0  0  0  0  0  0  0
    3.3598   -8.8005    5.9511 C   0  0  2  0  0  0  0  0  0  0  0  0
    4.4339   -9.6723    6.6693 C   0  0  0  0  0  0  0  0  0  0  0  0
    3.8712   -7.3034    5.9904 C   0  0  0  0  0  0  0  0  0  0  0  0
    3.4706   -6.1641    4.9513 C   0  0  0  0  0  0  0  0  0  0  0  0
    3.3921   -6.2269    3.3413 C   0  0  2  0  0  0  0  0  0  0  0  0
    2.8205   -4.8430    2.8374 C   0  0  1  0  0  0  0  0  0  0  0  0
    3.5510   -3.6072    3.4036 C   0  0  0  0  0  0  0  0  0  0  0  0
    2.6682   -4.6686    1.3018 C   0  0  1  0  0  0  0  0  0  0  0  0
    3.9254   -4.4057    0.6864 O   0  0  0  0  0  0  0  0  0  0  0  0
    3.8804   -3.7393   -0.5467 C   0  0  2  0  0  0  0  0  0  0  0  0
    5.2863   -3.8359   -1.1600 C   0  0  0  0  0  0  0  0  0  0  0  0
    5.2781   -3.0929   -2.4329 N   0  0  0  0  0  0  0  0  0  0  0  0
    4.8214   -1.7218   -2.2836 C   0  0  0  0  0  0  0  0  0  0  0  0
    3.4437   -1.7011   -1.6078 C   0  0  0  0  0  0  0  0  0  0  0  0
    3.5509   -2.3922   -0.3636 O   0  0  0  0  0  0  0  0  0  0  0  0
    1.9502   -5.8556    0.6276 C   0  0  0  0  0  0  0  0  0  0  0  0
    1.5418   -6.9564    1.6203 C   0  0  0  0  0  0  0  0  0  0  0  0
    2.6642   -7.4739    2.6080 C   0  0  2  0  0  0  0  0  0  0  0  0
    3.6603   -8.3078    1.6582 C   0  0  1  0  0  0  0  0  0  0  0  0
    4.7534   -7.5291    0.8762 C   0  0  0  0  0  0  0  0  0  0  0  0
    4.3069   -9.5546    2.2986 C   0  0  1  0  0  0  0  0  0  0  0  0
    5.3956  -10.1457    1.6096 O   0  0  0  0  0  0  0  0  0  0  0  0
    4.6698   -9.2794    3.7383 C   0  0  1  0  0  0  0  0  0  0  0  0
    5.6597   -8.2733    3.8039 O   0  0  0  0  0  0  0  0  0  0  0  0
    3.3377   -9.0494    4.4994 C   0  0  2  0  0  0  0  0  0  0  0  0
   -0.8409   -4.7538    8.6881 H   0  0  0  0  0  0  0  0  0  0  0  0
   -0.3944   -4.7138    6.9880 H   0  0  0  0  0  0  0  0  0  0  0  0
    0.8610   -4.6475    8.2341 H   0  0  0  0  0  0  0  0  0  0  0  0
    1.8088   -6.4829    7.2428 H   0  0  0  0  0  0  0  0  0  0  0  0
   -0.4664   -6.4368    5.5883 H   0  0  0  0  0  0  0  0  0  0  0  0
    0.1403   -7.2143    3.7723 H   0  0  0  0  0  0  0  0  0  0  0  0
    0.1809   -9.3938    3.3169 H   0  0  0  0  0  0  0  0  0  0  0  0
    1.5676  -10.3863    3.1354 H   0  0  0  0  0  0  0  0  0  0  0  0
   -0.0535  -10.0081    5.5052 H   0  0  0  0  0  0  0  0  0  0  0  0
    1.2136  -11.1398    5.2960 H   0  0  0  0  0  0  0  0  0  0  0  0
    2.1635  -10.2531    6.9753 H   0  0  0  0  0  0  0  0  0  0  0  0
    2.2275   -9.5399    9.2022 H   0  0  0  0  0  0  0  0  0  0  0  0
    1.5174   -7.9980    9.6411 H   0  0  0  0  0  0  0  0  0  0  0  0
    2.9895   -8.0361    8.7118 H   0  0  0  0  0  0  0  0  0  0  0  0
   -0.0007  -10.2967    8.0523 H   0  0  0  0  0  0  0  0  0  0  0  0
   -0.9344   -9.0708    7.2042 H   0  0  0  0  0  0  0  0  0  0  0  0
   -0.5267   -8.8505    8.8853 H   0  0  0  0  0  0  0  0  0  0  0  0
    5.4526   -9.4344    6.3587 H   0  0  0  0  0  0  0  0  0  0  0  0
    4.2905  -10.7344    6.4737 H   0  0  0  0  0  0  0  0  0  0  0  0
    4.4022   -9.5431    7.7493 H   0  0  0  0  0  0  0  0  0  0  0  0
    3.7907   -6.9153    6.9997 H   0  0  0  0  0  0  0  0  0  0  0  0
    4.9590   -7.3457    5.9177 H   0  0  0  0  0  0  0  0  0  0  0  0
    2.5907   -5.6423    5.3167 H   0  0  0  0  0  0  0  0  0  0  0  0
    4.2516   -5.4337    5.1406 H   0  0  0  0  0  0  0  0  0  0  0  0
    4.4313   -6.2121    3.0252 H   0  0  0  0  0  0  0  0  0  0  0  0
    1.8071   -4.7765    3.2422 H   0  0  0  0  0  0  0  0  0  0  0  0
    4.6234   -3.6588    3.2069 H   0  0  0  0  0  0  0  0  0  0  0  0
    3.4049   -3.4912    4.4785 H   0  0  0  0  0  0  0  0  0  0  0  0
    3.1789   -2.6886    2.9472 H   0  0  0  0  0  0  0  0  0  0  0  0
    2.0517   -3.7791    1.1712 H   0  0  0  0  0  0  0  0  0  0  0  0
    3.1410   -4.2008   -1.2049 H   0  0  0  0  0  0  0  0  0  0  0  0
    6.0194   -3.4212   -0.4635 H   0  0  0  0  0  0  0  0  0  0  0  0
    5.5082   -4.8861   -1.3197 H   0  0  0  0  0  0  0  0  0  0  0  0
    6.2107   -3.1120   -2.8516 H   0  0  0  0  0  0  0  0  0  0  0  0
    5.5249   -1.1500   -1.6774 H   0  0  0  0  0  0  0  0  0  0  0  0
    4.7631   -1.2253   -3.2531 H   0  0  0  0  0  0  0  0  0  0  0  0
    3.1373   -0.6805   -1.4114 H   0  0  0  0  0  0  0  0  0  0  0  0
    2.6844   -2.1569   -2.2477 H   0  0  0  0  0  0  0  0  0  0  0  0
    1.0473   -5.4933    0.1415 H   0  0  0  0  0  0  0  0  0  0  0  0
    2.5183   -6.2509   -0.2097 H   0  0  0  0  0  0  0  0  0  0  0  0
    0.7069   -6.4733    2.1064 H   0  0  0  0  0  0  0  0  0  0  0  0
    1.0953   -7.7897    1.0756 H   0  0  0  0  0  0  0  0  0  0  0  0
    3.0437   -8.7472    0.8747 H   0  0  0  0  0  0  0  0  0  0  0  0
    5.5883   -7.2102    1.4978 H   0  0  0  0  0  0  0  0  0  0  0  0
    4.4211   -6.6575    0.3416 H   0  0  0  0  0  0  0  0  0  0  0  0
    5.1565   -8.1756    0.1006 H   0  0  0  0  0  0  0  0  0  0  0  0
    3.5621  -10.3460    2.2853 H   0  0  0  0  0  0  0  0  0  0  0  0
    5.0247  -10.8372    1.0594 H   0  0  0  0  0  0  0  0  0  0  0  0
    5.1622  -10.1791    4.1267 H   0  0  0  0  0  0  0  0  0  0  0  0
    6.3714   -8.5565    3.2594 H   0  0  0  0  0  0  0  0  0  0  0  0
    3.1948  -10.1295    4.4995 H   0  0  0  0  0  0  0  0  0  0  0  0
  1  2  1  0
  1 38  1  0
  1 39  1  0
  1 40  1  0
  2  3  1  0
  3 10  1  0
  3  4  1  0
  3 41  1  6
  4  5  2  3
  4 42  1  0
  5  6  1  0
  5 43  1  0
  6 30  1  0
  6 37  1  0
  6  7  1  6
  7  8  1  0
  7 44  1  0
  7 45  1  0
  8  9  1  0
  8 46  1  0
  8 47  1  0
  9 10  1  0
  9 13  1  0
  9 48  1  1
 10 11  1  0
 10 12  1  0
 11 49  1  0
 11 50  1  0
 11 51  1  0
 12 52  1  0
 12 53  1  0
 12 54  1  0
 13 37  1  0
 13 14  1  1
 13 15  1  0
 14 55  1  0
 14 56  1  0
 14 57  1  0
 15 16  1  0
 15 58  1  0
 15 59  1  0
 16 17  1  0
 16 60  1  0
 16 61  1  0
 17 30  1  0
 17 18  1  0
 17 62  1  6
 18 19  1  0
 18 20  1  0
 18 63  1  1
 19 64  1  0
 19 65  1  0
 19 66  1  0
 20 21  1  0
 20 28  1  0
 20 67  1  1
 21 22  1  0
 22 27  1  0
 22 23  1  0
 22 68  1  6
 23 24  1  0
 23 69  1  0
 23 70  1  0
 24 25  1  0
 24 71  1  0
 25 26  1  0
 25 72  1  0
 25 73  1  0
 26 27  1  0
 26 74  1  0
 26 75  1  0
 28 29  1  0
 28 76  1  0
 28 77  1  0
 30 29  1  6
 29 78  1  0
 29 79  1  0
 30 31  1  0
 31 32  1  0
 31 33  1  0
 31 80  1  6
 32 81  1  0
 32 82  1  0
 32 83  1  0
 33 34  1  0
 33 35  1  0
 33 84  1  1
 34 85  1  0
 35 36  1  0
 35 37  1  0
 35 86  1  1
 36 87  1  0
 37 88  1  1
M  END
>  <i_m_ct_stereo_status>  (92) 
1

>  <s_m_source_file>  (92) 
/var/tmp/pbs.5076255.sched01/tmplremgrqo/0ygzoxw5b.sdf

>  <i_m_source_file_index>  (92) 
42

>  <i_lp_mmshare_version>  (92) 
48012

>  <i_f3d_flags>  (92) 
0

>  <s_epik_input>  (92) 
W0NIM11PW0NASF0oL1tDSF09W0NIXVwxKUMoW0NIM10pKFtDSDNdKVtDQEBIXShbQ0gyXVtDSDJdMilbQ0BAXShbQ0gzXSkoW0NAQEhdM1tDQEhdKFtPSF0pW0NASF0oW09IXSlbQ0BASF00W0NIM10pW0NIMl1bQ0gyXVtDQEBIXShbQ0BdNDVbQ0BAXTEyMylbQ0BASF0oW0NIM10pW0NASF0oW0NIMl1bQ0gyXTUpT1tDQEBIXTZbQ0gyXVtOSF1bQ0gyXVtDSDJdTzY=

>  <s_epik_cmdline>  (92) 
J2VwaWtfcHl0aG9uJywgJy1waHQnLCAnMi4wJywgJy1waCcsICc3LjAnLCAnLXRuJywgJzgnLCAnLW1hJywgJzIwMCcsICctaW1hZScsICc8aW5maWxlLm1hZT4nLCAnLW9tYWUnLCAnPG91dGZpbGUubWFlPic=

>  <r_epik_Ionization_Penalty>  (92) 
1.35151

>  <r_epik_Ionization_Penalty_Charging>  (92) 
0

>  <r_epik_Ionization_Penalty_Neutral>  (92) 
1.35151

>  <r_epik_State_Penalty>  (92) 
1.42962

>  <r_epik_Charging_Adjusted_Penalty>  (92) 
1.42962

>  <i_epik_Tot_Q>  (92) 
0

>  <i_epik_Tot_abs_Q>  (92) 
0

>  <s_epik_Chemistry_Notes>  (92) 
This compound contains an acetal/aminal-like group ( X-CH(R)-Y where X, Y are N, S, or O) that may be acid/base labile, releasing an aldehyde.

>  <s_lp_Force_Field>  (92) 
OPLS3e

>  <r_lp_Energy>  (92) 
227.102

>  <b_lp_Chiralities_Consistent>  (92) 
1

>  <s_lp_Variant>  (92) 
23:0-3

>  <s_i_glide_gridfile>  (92) 
pfpi4k_grid

>  <i_i_glide_lignum>  (92) 
42

>  <i_i_glide_rotatable_bonds>  (92) 
5

>  <r_i_docking_score>  (92) 
-2.04296

>  <r_i_glide_ligand_efficiency>  (92) 
-0.055215

>  <r_i_glide_ligand_efficiency_sa>  (92) 
-0.183989

>  <r_i_glide_ligand_efficiency_ln>  (92) 
-0.443069

>  <r_i_glide_gscore>  (92) 
-2.04296

>  <r_i_glide_lipo>  (92) 
-0.100869

>  <r_i_glide_hbond>  (92) 
0

>  <r_i_glide_metal>  (92) 
-0

>  <r_i_glide_rewards>  (92) 
0

>  <r_i_glide_evdw>  (92) 
-25.8992

>  <r_i_glide_ecoul>  (92) 
-5.31736

>  <r_i_glide_erotb>  (92) 
0.153207

>  <r_i_glide_esite>  (92) 
-0.0027295

>  <r_i_glide_emodel>  (92) 
-34.398

>  <r_i_glide_energy>  (92) 
-31.2166

>  <r_i_glide_einternal>  (92) 
1.51137

>  <r_i_glide_intrahb_reward>  (92) 
-0

>  <i_i_glide_confnum>  (92) 
5

>  <i_i_glide_posenum>  (92) 
1

>  <r_i_glide_eff_state_penalty>  (92) 
0

>  <ligand_id>  (92) 
23

>  <original_smiles>  (92) 
COC1C=CC23CCC(C1(C)C)C1(C)CCC4C(C)C(OC5CNCCO5)CCC42C(C)C(O)C(O)C13

>  <smiles>  (92) 
[H]OC1([H])C([H])(O[H])C([H])(C([H])([H])[H])C23C([H])([H])C([H])([H])C([H])(OC4([H])OC([H])([H])C([H])([H])N([H])C4([H])[H])C([H])(C([H])([H])[H])C2([H])C([H])([H])C([H])([H])C2(C([H])([H])[H])C1([H])C31C([H])=C([H])C([H])(OC([H])([H])[H])C(C([H])([H])[H])(C([H])([H])[H])C2([H])C([H])([H])C1([H])[H]

$$$$
23:3:0
     RDKit          3D

 88 93  0  0  1  0  0  0  0  0999 V2000
   -1.4249   -8.4727    3.5380 C   0  0  0  0  0  0  0  0  0  0  0  0
   -0.3148   -8.8114    2.7151 O   0  0  0  0  0  0  0  0  0  0  0  0
    0.9877   -8.5534    3.2493 C   0  0  2  0  0  0  0  0  0  0  0  0
    1.9895   -8.3603    2.1254 C   0  0  0  0  0  0  0  0  0  0  0  0
    3.0835   -7.6468    2.4455 C   0  0  0  0  0  0  0  0  0  0  0  0
    4.5949   -8.1034    2.5024 C   0  0  1  0  0  0  0  0  0  0  0  0
    4.5560   -9.5046    1.8308 C   0  0  0  0  0  0  0  0  0  0  0  0
    3.7705  -10.4962    2.8159 C   0  0  0  0  0  0  0  0  0  0  0  0
    3.1631   -9.8695    4.1927 C   0  0  2  0  0  0  0  0  0  0  0  0
    1.5583   -9.6838    4.2170 C   0  0  0  0  0  0  0  0  0  0  0  0
    1.1143   -9.4638    5.6958 C   0  0  0  0  0  0  0  0  0  0  0  0
    0.9042  -11.0301    3.7997 C   0  0  0  0  0  0  0  0  0  0  0  0
    4.1398   -8.7570    4.9035 C   0  0  2  0  0  0  0  0  0  0  0  0
    4.6768   -9.3740    6.2188 C   0  0  0  0  0  0  0  0  0  0  0  0
    3.6551   -7.2836    5.2144 C   0  0  0  0  0  0  0  0  0  0  0  0
    4.4238   -5.9901    4.6605 C   0  0  0  0  0  0  0  0  0  0  0  0
    5.0275   -5.6717    3.1755 C   0  0  2  0  0  0  0  0  0  0  0  0
    4.2792   -4.3949    2.6302 C   0  0  1  0  0  0  0  0  0  0  0  0
    4.6498   -3.1059    3.3984 C   0  0  0  0  0  0  0  0  0  0  0  0
    4.3270   -4.1340    1.1159 C   0  0  1  0  0  0  0  0  0  0  0  0
    5.6231   -3.6375    0.7391 O   0  0  0  0  0  0  0  0  0  0  0  0
    5.7714   -3.0306   -0.5231 C   0  0  2  0  0  0  0  0  0  0  0  0
    5.0900   -1.6257   -0.5287 C   0  0  0  0  0  0  0  0  0  0  0  0
    5.1943   -1.0624   -1.8797 N   0  0  0  0  0  0  0  0  0  0  0  0
    4.6506   -1.9655   -2.8857 C   0  0  0  0  0  0  0  0  0  0  0  0
    5.3809   -3.3129   -2.8355 C   0  0  0  0  0  0  0  0  0  0  0  0
    5.2700   -3.8424   -1.5327 O   0  0  0  0  0  0  0  0  0  0  0  0
    3.9177   -5.4283    0.4144 C   0  0  0  0  0  0  0  0  0  0  0  0
    5.0152   -6.4671    0.6096 C   0  0  0  0  0  0  0  0  0  0  0  0
    5.4109   -6.8368    2.0834 C   0  0  2  0  0  0  0  0  0  0  0  0
    6.9795   -7.1222    1.9940 C   0  0  1  0  0  0  0  0  0  0  0  0
    7.8867   -5.8700    1.8562 C   0  0  0  0  0  0  0  0  0  0  0  0
    7.5582   -8.1360    3.0122 C   0  0  1  0  0  0  0  0  0  0  0  0
    8.9406   -7.9722    3.3056 O   0  0  0  0  0  0  0  0  0  0  0  0
    6.7328   -8.2094    4.2924 C   0  0  1  0  0  0  0  0  0  0  0  0
    7.0186   -7.0914    5.1042 O   0  0  0  0  0  0  0  0  0  0  0  0
    5.2490   -8.5444    3.9017 C   0  0  2  0  0  0  0  0  0  0  0  0
   -2.3504   -8.7019    3.0000 H   0  0  0  0  0  0  0  0  0  0  0  0
   -1.4301   -7.4037    3.7585 H   0  0  0  0  0  0  0  0  0  0  0  0
   -1.4468   -9.0289    4.4681 H   0  0  0  0  0  0  0  0  0  0  0  0
    0.9245   -7.6010    3.7756 H   0  0  0  0  0  0  0  0  0  0  0  0
    2.0397   -9.2493    1.5190 H   0  0  0  0  0  0  0  0  0  0  0  0
    2.8282   -6.7801    3.0126 H   0  0  0  0  0  0  0  0  0  0  0  0
    4.0881   -9.4749    0.8446 H   0  0  0  0  0  0  0  0  0  0  0  0
    5.5579   -9.8917    1.6347 H   0  0  0  0  0  0  0  0  0  0  0  0
    3.0264  -11.0341    2.2357 H   0  0  0  0  0  0  0  0  0  0  0  0
    4.4644  -11.2924    3.0934 H   0  0  0  0  0  0  0  0  0  0  0  0
    3.2610  -10.7388    4.8406 H   0  0  0  0  0  0  0  0  0  0  0  0
    1.4843  -10.2722    6.3347 H   0  0  0  0  0  0  0  0  0  0  0  0
    0.0392   -9.4347    5.8326 H   0  0  0  0  0  0  0  0  0  0  0  0
    1.5100   -8.5524    6.1320 H   0  0  0  0  0  0  0  0  0  0  0  0
    1.3523  -11.8869    4.3041 H   0  0  0  0  0  0  0  0  0  0  0  0
    0.9518  -11.2159    2.7295 H   0  0  0  0  0  0  0  0  0  0  0  0
   -0.1545  -11.0473    4.0513 H   0  0  0  0  0  0  0  0  0  0  0  0
    5.3747   -8.7049    6.7261 H   0  0  0  0  0  0  0  0  0  0  0  0
    5.1987  -10.3175    6.0455 H   0  0  0  0  0  0  0  0  0  0  0  0
    3.8626   -9.5793    6.9152 H   0  0  0  0  0  0  0  0  0  0  0  0
    2.6082   -7.1711    4.9841 H   0  0  0  0  0  0  0  0  0  0  0  0
    3.6277   -7.1698    6.2992 H   0  0  0  0  0  0  0  0  0  0  0  0
    3.6733   -5.2254    4.8526 H   0  0  0  0  0  0  0  0  0  0  0  0
    5.1599   -5.6979    5.4043 H   0  0  0  0  0  0  0  0  0  0  0  0
    5.9949   -5.2546    3.4270 H   0  0  0  0  0  0  0  0  0  0  0  0
    3.2181   -4.5557    2.8196 H   0  0  0  0  0  0  0  0  0  0  0  0
    5.7004   -2.8482    3.2634 H   0  0  0  0  0  0  0  0  0  0  0  0
    4.4710   -3.1931    4.4694 H   0  0  0  0  0  0  0  0  0  0  0  0
    4.0574   -2.2607    3.0470 H   0  0  0  0  0  0  0  0  0  0  0  0
    3.5647   -3.3847    0.9108 H   0  0  0  0  0  0  0  0  0  0  0  0
    6.8460   -2.9068   -0.6845 H   0  0  0  0  0  0  0  0  0  0  0  0
    4.0439   -1.6933   -0.2423 H   0  0  0  0  0  0  0  0  0  0  0  0
    5.5819   -0.9801    0.1996 H   0  0  0  0  0  0  0  0  0  0  0  0
    4.6712   -0.1852   -1.9046 H   0  0  0  0  0  0  0  0  0  0  0  0
    3.5839   -2.1147   -2.7183 H   0  0  0  0  0  0  0  0  0  0  0  0
    4.7389   -1.5274   -3.8818 H   0  0  0  0  0  0  0  0  0  0  0  0
    4.9001   -4.0225   -3.5091 H   0  0  0  0  0  0  0  0  0  0  0  0
    6.4220   -3.2192   -3.1530 H   0  0  0  0  0  0  0  0  0  0  0  0
    2.9544   -5.7714    0.7940 H   0  0  0  0  0  0  0  0  0  0  0  0
    3.7427   -5.2934   -0.6492 H   0  0  0  0  0  0  0  0  0  0  0  0
    4.7324   -7.3609    0.0618 H   0  0  0  0  0  0  0  0  0  0  0  0
    5.8811   -6.0962    0.0613 H   0  0  0  0  0  0  0  0  0  0  0  0
    7.1290   -7.6444    1.0485 H   0  0  0  0  0  0  0  0  0  0  0  0
    8.0449   -5.3745    2.8131 H   0  0  0  0  0  0  0  0  0  0  0  0
    7.4985   -5.1364    1.1548 H   0  0  0  0  0  0  0  0  0  0  0  0
    8.8713   -6.1492    1.4826 H   0  0  0  0  0  0  0  0  0  0  0  0
    7.4815   -9.1210    2.5509 H   0  0  0  0  0  0  0  0  0  0  0  0
    9.4590   -7.9719    2.5061 H   0  0  0  0  0  0  0  0  0  0  0  0
    7.1334   -9.0312    4.8943 H   0  0  0  0  0  0  0  0  0  0  0  0
    7.9417   -7.0878    5.2587 H   0  0  0  0  0  0  0  0  0  0  0  0
    5.6072   -9.5651    3.8128 H   0  0  0  0  0  0  0  0  0  0  0  0
  1  2  1  0
  1 38  1  0
  1 39  1  0
  1 40  1  0
  2  3  1  0
  3 10  1  0
  3  4  1  0
  3 41  1  1
  4  5  2  3
  4 42  1  0
  5  6  1  0
  5 43  1  0
  6 30  1  0
  6 37  1  0
  6  7  1  6
  7  8  1  0
  7 44  1  0
  7 45  1  0
  8  9  1  0
  8 46  1  0
  8 47  1  0
  9 10  1  0
  9 13  1  0
  9 48  1  1
 10 11  1  0
 10 12  1  0
 11 49  1  0
 11 50  1  0
 11 51  1  0
 12 52  1  0
 12 53  1  0
 12 54  1  0
 13 37  1  0
 13 14  1  1
 13 15  1  0
 14 55  1  0
 14 56  1  0
 14 57  1  0
 15 16  1  0
 15 58  1  0
 15 59  1  0
 16 17  1  0
 16 60  1  0
 16 61  1  0
 17 30  1  0
 17 18  1  0
 17 62  1  1
 18 19  1  0
 18 20  1  0
 18 63  1  1
 19 64  1  0
 19 65  1  0
 19 66  1  0
 20 21  1  0
 20 28  1  0
 20 67  1  1
 21 22  1  0
 22 27  1  0
 22 23  1  0
 22 68  1  6
 23 24  1  0
 23 69  1  0
 23 70  1  0
 24 25  1  0
 24 71  1  0
 25 26  1  0
 25 72  1  0
 25 73  1  0
 26 27  1  0
 26 74  1  0
 26 75  1  0
 28 29  1  0
 28 76  1  0
 28 77  1  0
 30 29  1  6
 29 78  1  0
 29 79  1  0
 30 31  1  0
 31 32  1  0
 31 33  1  0
 31 80  1  6
 32 81  1  0
 32 82  1  0
 32 83  1  0
 33 34  1  0
 33 35  1  0
 33 84  1  6
 34 85  1  0
 35 36  1  0
 35 37  1  0
 35 86  1  1
 36 87  1  0
 37 88  1  6
M  END
>  <i_m_ct_stereo_status>  (93) 
1

>  <s_m_source_file>  (93) 
/var/tmp/pbs.5076255.sched01/tmplremgrqo/0ygzoxw5b.sdf

>  <i_m_source_file_index>  (93) 
43

>  <i_lp_mmshare_version>  (93) 
48012

>  <i_f3d_flags>  (93) 
0

>  <s_epik_input>  (93) 
W0NIM11PW0NASF0oL1tDSF09W0NIXVwxKUMoW0NIM10pKFtDSDNdKVtDQEBIXShbQ0gyXVtDSDJdMilbQ0BAXShbQ0gzXSkoW0NAQEhdM1tDQEhdKFtPSF0pW0NASF0oW09IXSlbQ0BASF00W0NIM10pW0NIMl1bQ0gyXVtDQEBIXShbQ0BdNDVbQ0BAXTEyMylbQ0BASF0oW0NIM10pW0NASF0oW0NIMl1bQ0gyXTUpT1tDQEBIXTZbQ0gyXVtOSF1bQ0gyXVtDSDJdTzY=

>  <s_epik_cmdline>  (93) 
J2VwaWtfcHl0aG9uJywgJy1waHQnLCAnMi4wJywgJy1waCcsICc3LjAnLCAnLXRuJywgJzgnLCAnLW1hJywgJzIwMCcsICctaW1hZScsICc8aW5maWxlLm1hZT4nLCAnLW9tYWUnLCAnPG91dGZpbGUubWFlPic=

>  <r_epik_Ionization_Penalty>  (93) 
1.35151

>  <r_epik_Ionization_Penalty_Charging>  (93) 
0

>  <r_epik_Ionization_Penalty_Neutral>  (93) 
1.35151

>  <r_epik_State_Penalty>  (93) 
1.42962

>  <r_epik_Charging_Adjusted_Penalty>  (93) 
1.42962

>  <i_epik_Tot_Q>  (93) 
0

>  <i_epik_Tot_abs_Q>  (93) 
0

>  <s_epik_Chemistry_Notes>  (93) 
This compound contains an acetal/aminal-like group ( X-CH(R)-Y where X, Y are N, S, or O) that may be acid/base labile, releasing an aldehyde.

>  <s_lp_Force_Field>  (93) 
OPLS3e

>  <r_lp_Energy>  (93) 
239.09

>  <b_lp_Chiralities_Consistent>  (93) 
1

>  <s_lp_Variant>  (93) 
23:0-4

>  <s_i_glide_gridfile>  (93) 
pfpi4k_grid

>  <i_i_glide_lignum>  (93) 
43

>  <i_i_glide_rotatable_bonds>  (93) 
5

>  <r_i_docking_score>  (93) 
-2.56896

>  <r_i_glide_ligand_efficiency>  (93) 
-0.0694315

>  <r_i_glide_ligand_efficiency_sa>  (93) 
-0.231361

>  <r_i_glide_ligand_efficiency_ln>  (93) 
-0.557148

>  <r_i_glide_gscore>  (93) 
-2.56896

>  <r_i_glide_lipo>  (93) 
-0.673347

>  <r_i_glide_hbond>  (93) 
0

>  <r_i_glide_metal>  (93) 
-0

>  <r_i_glide_rewards>  (93) 
-0.044574

>  <r_i_glide_evdw>  (93) 
-30.3932

>  <r_i_glide_ecoul>  (93) 
-3.23059

>  <r_i_glide_erotb>  (93) 
0.153207

>  <r_i_glide_esite>  (93) 
0

>  <r_i_glide_emodel>  (93) 
-36.4107

>  <r_i_glide_energy>  (93) 
-33.6238

>  <r_i_glide_einternal>  (93) 
5.4385

>  <r_i_glide_intrahb_reward>  (93) 
-0

>  <i_i_glide_confnum>  (93) 
1

>  <i_i_glide_posenum>  (93) 
33

>  <r_i_glide_eff_state_penalty>  (93) 
0

>  <ligand_id>  (93) 
23

>  <original_smiles>  (93) 
COC1C=CC23CCC(C1(C)C)C1(C)CCC4C(C)C(OC5CNCCO5)CCC42C(C)C(O)C(O)C13

>  <smiles>  (93) 
[H]OC1([H])C([H])(O[H])C([H])(C([H])([H])[H])C23C([H])([H])C([H])([H])C([H])(OC4([H])OC([H])([H])C([H])([H])N([H])C4([H])[H])C([H])(C([H])([H])[H])C2([H])C([H])([H])C([H])([H])C2(C([H])([H])[H])C1([H])C31C([H])=C([H])C([H])(OC([H])([H])[H])C(C([H])([H])[H])(C([H])([H])[H])C2([H])C([H])([H])C1([H])[H]

$$$$
23:3:1
     RDKit          3D

 88 93  0  0  1  0  0  0  0  0999 V2000
   -1.6269   -8.2594    3.6545 C   0  0  0  0  0  0  0  0  0  0  0  0
   -0.5900   -8.3602    2.6805 O   0  0  0  0  0  0  0  0  0  0  0  0
    0.7245   -7.9892    3.1111 C   0  0  2  0  0  0  0  0  0  0  0  0
    1.6223   -7.7459    1.9129 C   0  0  0  0  0  0  0  0  0  0  0  0
    2.6811   -6.9415    2.1402 C   0  0  0  0  0  0  0  0  0  0  0  0
    4.2225   -7.2774    2.0949 C   0  0  1  0  0  0  0  0  0  0  0  0
    4.2519   -8.6952    1.4516 C   0  0  0  0  0  0  0  0  0  0  0  0
    3.6115   -9.7199    2.5091 C   0  0  0  0  0  0  0  0  0  0  0  0
    3.0600   -9.1078    3.9208 C   0  0  2  0  0  0  0  0  0  0  0  0
    1.4513   -9.0457    4.0560 C   0  0  0  0  0  0  0  0  0  0  0  0
    1.0802   -8.8114    5.5526 C   0  0  0  0  0  0  0  0  0  0  0  0
    0.8868  -10.4583    3.7163 C   0  0  0  0  0  0  0  0  0  0  0  0
    3.9924   -7.8968    4.5362 C   0  0  2  0  0  0  0  0  0  0  0  0
    4.6724   -8.4378    5.8210 C   0  0  0  0  0  0  0  0  0  0  0  0
    3.4119   -6.4595    4.8465 C   0  0  0  0  0  0  0  0  0  0  0  0
    4.0308   -5.1209    4.2130 C   0  0  0  0  0  0  0  0  0  0  0  0
    4.4967   -4.7972    2.6816 C   0  0  2  0  0  0  0  0  0  0  0  0
    3.6124   -3.5926    2.1668 C   0  0  1  0  0  0  0  0  0  0  0  0
    3.9360   -2.2602    2.8780 C   0  0  0  0  0  0  0  0  0  0  0  0
    3.5410   -3.3692    0.6472 C   0  0  1  0  0  0  0  0  0  0  0  0
    4.7690   -2.8050    0.1626 O   0  0  0  0  0  0  0  0  0  0  0  0
    4.8302   -2.3626   -1.1687 C   0  0  2  0  0  0  0  0  0  0  0  0
    4.0368   -1.0389   -1.3525 C   0  0  0  0  0  0  0  0  0  0  0  0
    4.0492   -0.6635   -2.7657 N   0  0  0  0  0  0  0  0  0  0  0  0
    3.5442   -1.7305   -3.6176 C   0  0  0  0  0  0  0  0  0  0  0  0
    4.3776   -3.0019   -3.4027 C   0  0  0  0  0  0  0  0  0  0  0  0
    4.3588   -3.3597   -2.0363 O   0  0  0  0  0  0  0  0  0  0  0  0
    3.1760   -4.7088    0.0077 C   0  0  0  0  0  0  0  0  0  0  0  0
    4.3640   -5.6659    0.1373 C   0  0  0  0  0  0  0  0  0  0  0  0
    4.8989   -5.9546    1.5875 C   0  0  2  0  0  0  0  0  0  0  0  0
    6.4788   -6.1216    1.4049 C   0  0  1  0  0  0  0  0  0  0  0  0
    7.2705   -4.8028    1.1612 C   0  0  0  0  0  0  0  0  0  0  0  0
    7.2104   -7.0673    2.3977 C   0  0  1  0  0  0  0  0  0  0  0  0
    8.6003   -6.8108    2.5870 O   0  0  0  0  0  0  0  0  0  0  0  0
    6.4827   -7.1627    3.7321 C   0  0  1  0  0  0  0  0  0  0  0  0
    6.7300   -6.0037    4.4928 O   0  0  0  0  0  0  0  0  0  0  0  0
    5.0078   -7.6310    3.4534 C   0  0  2  0  0  0  0  0  0  0  0  0
   -2.5783   -8.5401    3.1893 H   0  0  0  0  0  0  0  0  0  0  0  0
   -1.7308   -7.2304    4.0056 H   0  0  0  0  0  0  0  0  0  0  0  0
   -1.4573   -8.8978    4.5104 H   0  0  0  0  0  0  0  0  0  0  0  0
    0.6144   -7.0373    3.6265 H   0  0  0  0  0  0  0  0  0  0  0  0
    1.7028   -8.6390    1.3183 H   0  0  0  0  0  0  0  0  0  0  0  0
    2.3975   -6.0808    2.7011 H   0  0  0  0  0  0  0  0  0  0  0  0
    3.7203   -8.7273    0.4989 H   0  0  0  0  0  0  0  0  0  0  0  0
    5.2637   -9.0051    1.1960 H   0  0  0  0  0  0  0  0  0  0  0  0
    2.8855  -10.3424    1.9995 H   0  0  0  0  0  0  0  0  0  0  0  0
    4.3937  -10.4452    2.7529 H   0  0  0  0  0  0  0  0  0  0  0  0
    3.2771   -9.9485    4.5770 H   0  0  0  0  0  0  0  0  0  0  0  0
    1.5308   -9.5797    6.1873 H   0  0  0  0  0  0  0  0  0  0  0  0
    0.0139   -8.8206    5.7333 H   0  0  0  0  0  0  0  0  0  0  0  0
    1.4575   -7.8706    5.9470 H   0  0  0  0  0  0  0  0  0  0  0  0
    1.4468  -11.2594    4.1992 H   0  0  0  0  0  0  0  0  0  0  0  0
    0.8738  -10.6598    2.6465 H   0  0  0  0  0  0  0  0  0  0  0  0
   -0.1434  -10.5797    4.0449 H   0  0  0  0  0  0  0  0  0  0  0  0
    5.3467   -7.7017    6.2606 H   0  0  0  0  0  0  0  0  0  0  0  0
    5.2543   -9.3385    5.6295 H   0  0  0  0  0  0  0  0  0  0  0  0
    3.9303   -8.6866    6.5806 H   0  0  0  0  0  0  0  0  0  0  0  0
    2.3446   -6.4348    4.6902 H   0  0  0  0  0  0  0  0  0  0  0  0
    3.4511   -6.3174    5.9271 H   0  0  0  0  0  0  0  0  0  0  0  0
    3.2401   -4.4137    4.4466 H   0  0  0  0  0  0  0  0  0  0  0  0
    4.7923   -4.7532    4.8954 H   0  0  0  0  0  0  0  0  0  0  0  0
    5.4437   -4.2960    2.8540 H   0  0  0  0  0  0  0  0  0  0  0  0
    2.5835   -3.8290    2.4340 H   0  0  0  0  0  0  0  0  0  0  0  0
    4.9500   -1.9275    2.6625 H   0  0  0  0  0  0  0  0  0  0  0  0
    3.8417   -2.3334    3.9608 H   0  0  0  0  0  0  0  0  0  0  0  0
    3.2562   -1.4712    2.5561 H   0  0  0  0  0  0  0  0  0  0  0  0
    2.7261   -2.6687    0.4624 H   0  0  0  0  0  0  0  0  0  0  0  0
    5.8900   -2.1727   -1.3921 H   0  0  0  0  0  0  0  0  0  0  0  0
    3.0194   -1.1646   -1.0013 H   0  0  0  0  0  0  0  0  0  0  0  0
    4.4889   -0.2656   -0.7338 H   0  0  0  0  0  0  0  0  0  0  0  0
    3.4594    0.1558   -2.8893 H   0  0  0  0  0  0  0  0  0  0  0  0
    2.5025   -1.9358   -3.3846 H   0  0  0  0  0  0  0  0  0  0  0  0
    3.5687   -1.4350   -4.6607 H   0  0  0  0  0  0  0  0  0  0  0  0
    3.9377   -3.8375   -3.9559 H   0  0  0  0  0  0  0  0  0  0  0  0
    5.4049   -2.8815   -3.7743 H   0  0  0  0  0  0  0  0  0  0  0  0
    2.2725   -5.1159    0.4755 H   0  0  0  0  0  0  0  0  0  0  0  0
    2.8990   -4.5832   -1.0341 H   0  0  0  0  0  0  0  0  0  0  0  0
    4.1417   -6.5934   -0.3746 H   0  0  0  0  0  0  0  0  0  0  0  0
    5.1547   -5.2400   -0.4782 H   0  0  0  0  0  0  0  0  0  0  0  0
    6.6030   -6.6607    0.4724 H   0  0  0  0  0  0  0  0  0  0  0  0
    7.4490   -4.2553    2.0774 H   0  0  0  0  0  0  0  0  0  0  0  0
    6.7727   -4.1315    0.4658 H   0  0  0  0  0  0  0  0  0  0  0  0
    8.2465   -5.0177    0.7242 H   0  0  0  0  0  0  0  0  0  0  0  0
    7.1733   -8.0677    1.9627 H   0  0  0  0  0  0  0  0  0  0  0  0
    9.1243   -7.3002    1.9565 H   0  0  0  0  0  0  0  0  0  0  0  0
    6.9953   -7.9319    4.3226 H   0  0  0  0  0  0  0  0  0  0  0  0
    7.6689   -5.9094    4.5708 H   0  0  0  0  0  0  0  0  0  0  0  0
    5.4400   -8.6227    3.3586 H   0  0  0  0  0  0  0  0  0  0  0  0
  1  2  1  0
  1 38  1  0
  1 39  1  0
  1 40  1  0
  2  3  1  0
  3 10  1  0
  3  4  1  0
  3 41  1  1
  4  5  2  3
  4 42  1  0
  5  6  1  0
  5 43  1  0
  6 30  1  0
  6 37  1  0
  6  7  1  6
  7  8  1  0
  7 44  1  0
  7 45  1  0
  8  9  1  0
  8 46  1  0
  8 47  1  0
  9 10  1  0
  9 13  1  0
  9 48  1  1
 10 11  1  0
 10 12  1  0
 11 49  1  0
 11 50  1  0
 11 51  1  0
 12 52  1  0
 12 53  1  0
 12 54  1  0
 13 37  1  0
 13 14  1  1
 13 15  1  0
 14 55  1  0
 14 56  1  0
 14 57  1  0
 15 16  1  0
 15 58  1  0
 15 59  1  0
 16 17  1  0
 16 60  1  0
 16 61  1  0
 17 30  1  0
 17 18  1  0
 17 62  1  1
 18 19  1  0
 18 20  1  0
 18 63  1  1
 19 64  1  0
 19 65  1  0
 19 66  1  0
 20 21  1  0
 20 28  1  0
 20 67  1  1
 21 22  1  0
 22 27  1  0
 22 23  1  0
 22 68  1  6
 23 24  1  0
 23 69  1  0
 23 70  1  0
 24 25  1  0
 24 71  1  0
 25 26  1  0
 25 72  1  0
 25 73  1  0
 26 27  1  0
 26 74  1  0
 26 75  1  0
 28 29  1  0
 28 76  1  0
 28 77  1  0
 30 29  1  6
 29 78  1  0
 29 79  1  0
 30 31  1  0
 31 32  1  0
 31 33  1  0
 31 80  1  6
 32 81  1  0
 32 82  1  0
 32 83  1  0
 33 34  1  0
 33 35  1  0
 33 84  1  6
 34 85  1  0
 35 36  1  0
 35 37  1  0
 35 86  1  1
 36 87  1  0
 37 88  1  6
M  END
>  <i_m_ct_stereo_status>  (94) 
1

>  <s_m_source_file>  (94) 
/var/tmp/pbs.5076255.sched01/tmplremgrqo/0ygzoxw5b.sdf

>  <i_m_source_file_index>  (94) 
43

>  <i_lp_mmshare_version>  (94) 
48012

>  <i_f3d_flags>  (94) 
0

>  <s_epik_input>  (94) 
W0NIM11PW0NASF0oL1tDSF09W0NIXVwxKUMoW0NIM10pKFtDSDNdKVtDQEBIXShbQ0gyXVtDSDJdMilbQ0BAXShbQ0gzXSkoW0NAQEhdM1tDQEhdKFtPSF0pW0NASF0oW09IXSlbQ0BASF00W0NIM10pW0NIMl1bQ0gyXVtDQEBIXShbQ0BdNDVbQ0BAXTEyMylbQ0BASF0oW0NIM10pW0NASF0oW0NIMl1bQ0gyXTUpT1tDQEBIXTZbQ0gyXVtOSF1bQ0gyXVtDSDJdTzY=

>  <s_epik_cmdline>  (94) 
J2VwaWtfcHl0aG9uJywgJy1waHQnLCAnMi4wJywgJy1waCcsICc3LjAnLCAnLXRuJywgJzgnLCAnLW1hJywgJzIwMCcsICctaW1hZScsICc8aW5maWxlLm1hZT4nLCAnLW9tYWUnLCAnPG91dGZpbGUubWFlPic=

>  <r_epik_Ionization_Penalty>  (94) 
1.35151

>  <r_epik_Ionization_Penalty_Charging>  (94) 
0

>  <r_epik_Ionization_Penalty_Neutral>  (94) 
1.35151

>  <r_epik_State_Penalty>  (94) 
1.42962

>  <r_epik_Charging_Adjusted_Penalty>  (94) 
1.42962

>  <i_epik_Tot_Q>  (94) 
0

>  <i_epik_Tot_abs_Q>  (94) 
0

>  <s_epik_Chemistry_Notes>  (94) 
This compound contains an acetal/aminal-like group ( X-CH(R)-Y where X, Y are N, S, or O) that may be acid/base labile, releasing an aldehyde.

>  <s_lp_Force_Field>  (94) 
OPLS3e

>  <r_lp_Energy>  (94) 
239.09

>  <b_lp_Chiralities_Consistent>  (94) 
1

>  <s_lp_Variant>  (94) 
23:0-4

>  <s_i_glide_gridfile>  (94) 
pfpi4k_grid

>  <i_i_glide_lignum>  (94) 
43

>  <i_i_glide_rotatable_bonds>  (94) 
5

>  <r_i_docking_score>  (94) 
-2.55957

>  <r_i_glide_ligand_efficiency>  (94) 
-0.0691776

>  <r_i_glide_ligand_efficiency_sa>  (94) 
-0.230515

>  <r_i_glide_ligand_efficiency_ln>  (94) 
-0.555111

>  <r_i_glide_gscore>  (94) 
-2.55957

>  <r_i_glide_lipo>  (94) 
-0.740443

>  <r_i_glide_hbond>  (94) 
0

>  <r_i_glide_metal>  (94) 
-0

>  <r_i_glide_rewards>  (94) 
0

>  <r_i_glide_evdw>  (94) 
-32.346

>  <r_i_glide_ecoul>  (94) 
-2.2412

>  <r_i_glide_erotb>  (94) 
0.153207

>  <r_i_glide_esite>  (94) 
-0.018854

>  <r_i_glide_emodel>  (94) 
-35.6532

>  <r_i_glide_energy>  (94) 
-34.5872

>  <r_i_glide_einternal>  (94) 
6.47435

>  <r_i_glide_intrahb_reward>  (94) 
-0

>  <i_i_glide_confnum>  (94) 
1

>  <i_i_glide_posenum>  (94) 
1

>  <r_i_glide_eff_state_penalty>  (94) 
0

>  <ligand_id>  (94) 
23

>  <original_smiles>  (94) 
COC1C=CC23CCC(C1(C)C)C1(C)CCC4C(C)C(OC5CNCCO5)CCC42C(C)C(O)C(O)C13

>  <smiles>  (94) 
[H]OC1([H])C([H])(O[H])C([H])(C([H])([H])[H])C23C([H])([H])C([H])([H])C([H])(OC4([H])OC([H])([H])C([H])([H])N([H])C4([H])[H])C([H])(C([H])([H])[H])C2([H])C([H])([H])C([H])([H])C2(C([H])([H])[H])C1([H])C31C([H])=C([H])C([H])(OC([H])([H])[H])C(C([H])([H])[H])(C([H])([H])[H])C2([H])C([H])([H])C1([H])[H]

$$$$
23:3:2
     RDKit          3D

 88 93  0  0  1  0  0  0  0  0999 V2000
   -1.6983   -8.1865    3.3995 C   0  0  0  0  0  0  0  0  0  0  0  0
   -0.6187   -8.2762    2.4741 O   0  0  0  0  0  0  0  0  0  0  0  0
    0.6947   -8.1274    3.0184 C   0  0  2  0  0  0  0  0  0  0  0  0
    1.6952   -7.8612    1.9122 C   0  0  0  0  0  0  0  0  0  0  0  0
    2.8233   -7.2323    2.3001 C   0  0  0  0  0  0  0  0  0  0  0  0
    4.3103   -7.7593    2.3030 C   0  0  1  0  0  0  0  0  0  0  0  0
    4.2145   -9.0830    1.4874 C   0  0  0  0  0  0  0  0  0  0  0  0
    3.3797  -10.1339    2.3706 C   0  0  0  0  0  0  0  0  0  0  0  0
    2.8093   -9.6260    3.8156 C   0  0  2  0  0  0  0  0  0  0  0  0
    1.2181   -9.3716    3.8626 C   0  0  0  0  0  0  0  0  0  0  0  0
    0.7605   -9.2697    5.3499 C   0  0  0  0  0  0  0  0  0  0  0  0
    0.5172  -10.6469    3.3112 C   0  0  0  0  0  0  0  0  0  0  0  0
    3.8328   -8.6252    4.6305 C   0  0  2  0  0  0  0  0  0  0  0  0
    4.3467   -9.3972    5.8731 C   0  0  0  0  0  0  0  0  0  0  0  0
    3.4082   -7.1711    5.0844 C   0  0  0  0  0  0  0  0  0  0  0  0
    4.2285   -5.8579    4.6624 C   0  0  0  0  0  0  0  0  0  0  0  0
    4.8412   -5.4206    3.2121 C   0  0  2  0  0  0  0  0  0  0  0  0
    4.1465   -4.0633    2.8041 C   0  0  1  0  0  0  0  0  0  0  0  0
    4.5755   -2.8743    3.6940 C   0  0  0  0  0  0  0  0  0  0  0  0
    4.2183   -3.6559    1.3236 C   0  0  1  0  0  0  0  0  0  0  0  0
    5.5346   -3.1968    0.9897 O   0  0  0  0  0  0  0  0  0  0  0  0
    5.7708   -2.7007   -0.3012 C   0  0  2  0  0  0  0  0  0  0  0  0
    5.0090   -1.3650   -0.5376 C   0  0  0  0  0  0  0  0  0  0  0  0
    5.2034   -0.9545   -1.9218 N   0  0  0  0  0  0  0  0  0  0  0  0
    4.8064   -1.9820   -2.8739 C   0  0  0  0  0  0  0  0  0  0  0  0
    5.6051   -3.2608   -2.6051 C   0  0  0  0  0  0  0  0  0  0  0  0
    5.4027   -3.6615   -1.2626 O   0  0  0  0  0  0  0  0  0  0  0  0
    3.7438   -4.8452    0.4889 C   0  0  0  0  0  0  0  0  0  0  0  0
    4.7790   -5.9690    0.5723 C   0  0  0  0  0  0  0  0  0  0  0  0
    5.1724   -6.4840    2.0029 C   0  0  2  0  0  0  0  0  0  0  0  0
    6.7277   -6.8257    1.8792 C   0  0  1  0  0  0  0  0  0  0  0  0
    7.6925   -5.6036    1.8621 C   0  0  0  0  0  0  0  0  0  0  0  0
    7.2565   -7.9620    2.7897 C   0  0  1  0  0  0  0  0  0  0  0  0
    8.6409   -7.8858    3.0911 O   0  0  0  0  0  0  0  0  0  0  0  0
    6.4397   -8.1236    4.0664 C   0  0  1  0  0  0  0  0  0  0  0  0
    6.7529   -7.1124    4.9970 O   0  0  0  0  0  0  0  0  0  0  0  0
    4.9453   -8.3679    3.6487 C   0  0  2  0  0  0  0  0  0  0  0  0
   -2.6280   -8.2827    2.8316 H   0  0  0  0  0  0  0  0  0  0  0  0
   -1.7167   -7.2095    3.8875 H   0  0  0  0  0  0  0  0  0  0  0  0
   -1.6727   -8.9494    4.1579 H   0  0  0  0  0  0  0  0  0  0  0  0
    0.6589   -7.2374    3.6422 H   0  0  0  0  0  0  0  0  0  0  0  0
    1.7132   -8.6836    1.2190 H   0  0  0  0  0  0  0  0  0  0  0  0
    2.6045   -6.4146    2.9480 H   0  0  0  0  0  0  0  0  0  0  0  0
    3.7558   -8.9303    0.5095 H   0  0  0  0  0  0  0  0  0  0  0  0
    5.1982   -9.4878    1.2550 H   0  0  0  0  0  0  0  0  0  0  0  0
    2.6230  -10.6082    1.7525 H   0  0  0  0  0  0  0  0  0  0  0  0
    4.0534  -10.9740    2.5648 H   0  0  0  0  0  0  0  0  0  0  0  0
    2.8757  -10.5594    4.3711 H   0  0  0  0  0  0  0  0  0  0  0  0
    1.0660  -10.1588    5.9100 H   0  0  0  0  0  0  0  0  0  0  0  0
   -0.3049   -9.1614    5.4594 H   0  0  0  0  0  0  0  0  0  0  0  0
    1.2223   -8.4413    5.8836 H   0  0  0  0  0  0  0  0  0  0  0  0
    0.9317  -11.5685    3.7225 H   0  0  0  0  0  0  0  0  0  0  0  0
    0.5546  -10.7158    2.2255 H   0  0  0  0  0  0  0  0  0  0  0  0
   -0.5398  -10.6543    3.5607 H   0  0  0  0  0  0  0  0  0  0  0  0
    5.0708   -8.8120    6.4409 H   0  0  0  0  0  0  0  0  0  0  0  0
    4.8280  -10.3365    5.6025 H   0  0  0  0  0  0  0  0  0  0  0  0
    3.5258   -9.6380    6.5506 H   0  0  0  0  0  0  0  0  0  0  0  0
    2.3662   -6.9919    4.8700 H   0  0  0  0  0  0  0  0  0  0  0  0
    3.3836   -7.1644    6.1745 H   0  0  0  0  0  0  0  0  0  0  0  0
    3.5084   -5.0900    4.9312 H   0  0  0  0  0  0  0  0  0  0  0  0
    4.9674   -5.6646    5.4369 H   0  0  0  0  0  0  0  0  0  0  0  0
    5.8264   -5.0601    3.4915 H   0  0  0  0  0  0  0  0  0  0  0  0
    3.0798   -4.1957    2.9788 H   0  0  0  0  0  0  0  0  0  0  0  0
    5.6345   -2.6491    3.5797 H   0  0  0  0  0  0  0  0  0  0  0  0
    4.3949   -3.0595    4.7521 H   0  0  0  0  0  0  0  0  0  0  0  0
    4.0208   -1.9727    3.4354 H   0  0  0  0  0  0  0  0  0  0  0  0
    3.5076   -2.8407    1.1940 H   0  0  0  0  0  0  0  0  0  0  0  0
    6.8549   -2.5210   -0.3786 H   0  0  0  0  0  0  0  0  0  0  0  0
    3.9512   -1.4915   -0.3305 H   0  0  0  0  0  0  0  0  0  0  0  0
    5.3877   -0.6129    0.1545 H   0  0  0  0  0  0  0  0  0  0  0  0
    4.6411   -0.1201   -2.0847 H   0  0  0  0  0  0  0  0  0  0  0  0
    3.7443   -2.1863   -2.7846 H   0  0  0  0  0  0  0  0  0  0  0  0
    4.9711   -1.6465   -3.8876 H   0  0  0  0  0  0  0  0  0  0  0  0
    5.2381   -4.0730   -3.2395 H   0  0  0  0  0  0  0  0  0  0  0  0
    6.6695   -3.1313   -2.8493 H   0  0  0  0  0  0  0  0  0  0  0  0
    2.7582   -5.1775    0.8372 H   0  0  0  0  0  0  0  0  0  0  0  0
    3.5858   -4.5575   -0.5501 H   0  0  0  0  0  0  0  0  0  0  0  0
    4.4780   -6.7874   -0.0694 H   0  0  0  0  0  0  0  0  0  0  0  0
    5.6693   -5.5942    0.0748 H   0  0  0  0  0  0  0  0  0  0  0  0
    6.8587   -7.2566    0.8858 H   0  0  0  0  0  0  0  0  0  0  0  0
    7.8772   -5.2128    2.8616 H   0  0  0  0  0  0  0  0  0  0  0  0
    7.3391   -4.7891    1.2400 H   0  0  0  0  0  0  0  0  0  0  0  0
    8.6649   -5.8841    1.4591 H   0  0  0  0  0  0  0  0  0  0  0  0
    7.1481   -8.8944    2.2316 H   0  0  0  0  0  0  0  0  0  0  0  0
    9.1530   -7.8546    2.2878 H   0  0  0  0  0  0  0  0  0  0  0  0
    6.8190   -9.0150    4.5791 H   0  0  0  0  0  0  0  0  0  0  0  0
    6.4952   -6.2826    4.6250 H   0  0  0  0  0  0  0  0  0  0  0  0
    5.2637   -9.3889    3.4550 H   0  0  0  0  0  0  0  0  0  0  0  0
  1  2  1  0
  1 38  1  0
  1 39  1  0
  1 40  1  0
  2  3  1  0
  3 10  1  0
  3  4  1  0
  3 41  1  1
  4  5  2  3
  4 42  1  0
  5  6  1  0
  5 43  1  0
  6 30  1  0
  6 37  1  0
  6  7  1  6
  7  8  1  0
  7 44  1  0
  7 45  1  0
  8  9  1  0
  8 46  1  0
  8 47  1  0
  9 10  1  0
  9 13  1  0
  9 48  1  1
 10 11  1  0
 10 12  1  0
 11 49  1  0
 11 50  1  0
 11 51  1  0
 12 52  1  0
 12 53  1  0
 12 54  1  0
 13 37  1  0
 13 14  1  1
 13 15  1  0
 14 55  1  0
 14 56  1  0
 14 57  1  0
 15 16  1  0
 15 58  1  0
 15 59  1  0
 16 17  1  0
 16 60  1  0
 16 61  1  0
 17 30  1  0
 17 18  1  0
 17 62  1  1
 18 19  1  0
 18 20  1  0
 18 63  1  1
 19 64  1  0
 19 65  1  0
 19 66  1  0
 20 21  1  0
 20 28  1  0
 20 67  1  1
 21 22  1  0
 22 27  1  0
 22 23  1  0
 22 68  1  1
 23 24  1  0
 23 69  1  0
 23 70  1  0
 24 25  1  0
 24 71  1  0
 25 26  1  0
 25 72  1  0
 25 73  1  0
 26 27  1  0
 26 74  1  0
 26 75  1  0
 28 29  1  0
 28 76  1  0
 28 77  1  0
 30 29  1  6
 29 78  1  0
 29 79  1  0
 30 31  1  0
 31 32  1  0
 31 33  1  0
 31 80  1  6
 32 81  1  0
 32 82  1  0
 32 83  1  0
 33 34  1  0
 33 35  1  0
 33 84  1  6
 34 85  1  0
 35 36  1  0
 35 37  1  0
 35 86  1  1
 36 87  1  0
 37 88  1  6
M  END
>  <i_m_ct_stereo_status>  (95) 
1

>  <s_m_source_file>  (95) 
/var/tmp/pbs.5076255.sched01/tmplremgrqo/0ygzoxw5b.sdf

>  <i_m_source_file_index>  (95) 
43

>  <i_lp_mmshare_version>  (95) 
48012

>  <i_f3d_flags>  (95) 
0

>  <s_epik_input>  (95) 
W0NIM11PW0NASF0oL1tDSF09W0NIXVwxKUMoW0NIM10pKFtDSDNdKVtDQEBIXShbQ0gyXVtDSDJdMilbQ0BAXShbQ0gzXSkoW0NAQEhdM1tDQEhdKFtPSF0pW0NASF0oW09IXSlbQ0BASF00W0NIM10pW0NIMl1bQ0gyXVtDQEBIXShbQ0BdNDVbQ0BAXTEyMylbQ0BASF0oW0NIM10pW0NASF0oW0NIMl1bQ0gyXTUpT1tDQEBIXTZbQ0gyXVtOSF1bQ0gyXVtDSDJdTzY=

>  <s_epik_cmdline>  (95) 
J2VwaWtfcHl0aG9uJywgJy1waHQnLCAnMi4wJywgJy1waCcsICc3LjAnLCAnLXRuJywgJzgnLCAnLW1hJywgJzIwMCcsICctaW1hZScsICc8aW5maWxlLm1hZT4nLCAnLW9tYWUnLCAnPG91dGZpbGUubWFlPic=

>  <r_epik_Ionization_Penalty>  (95) 
1.35151

>  <r_epik_Ionization_Penalty_Charging>  (95) 
0

>  <r_epik_Ionization_Penalty_Neutral>  (95) 
1.35151

>  <r_epik_State_Penalty>  (95) 
1.42962

>  <r_epik_Charging_Adjusted_Penalty>  (95) 
1.42962

>  <i_epik_Tot_Q>  (95) 
0

>  <i_epik_Tot_abs_Q>  (95) 
0

>  <s_epik_Chemistry_Notes>  (95) 
This compound contains an acetal/aminal-like group ( X-CH(R)-Y where X, Y are N, S, or O) that may be acid/base labile, releasing an aldehyde.

>  <s_lp_Force_Field>  (95) 
OPLS3e

>  <r_lp_Energy>  (95) 
239.09

>  <b_lp_Chiralities_Consistent>  (95) 
1

>  <s_lp_Variant>  (95) 
23:0-4

>  <s_i_glide_gridfile>  (95) 
pfpi4k_grid

>  <i_i_glide_lignum>  (95) 
43

>  <i_i_glide_rotatable_bonds>  (95) 
5

>  <r_i_docking_score>  (95) 
-2.51192

>  <r_i_glide_ligand_efficiency>  (95) 
-0.0678898

>  <r_i_glide_ligand_efficiency_sa>  (95) 
-0.226224

>  <r_i_glide_ligand_efficiency_ln>  (95) 
-0.544777

>  <r_i_glide_gscore>  (95) 
-2.51192

>  <r_i_glide_lipo>  (95) 
-0.637685

>  <r_i_glide_hbond>  (95) 
0

>  <r_i_glide_metal>  (95) 
-0

>  <r_i_glide_rewards>  (95) 
-0.00615151

>  <r_i_glide_evdw>  (95) 
-30.248

>  <r_i_glide_ecoul>  (95) 
-3.39264

>  <r_i_glide_erotb>  (95) 
0.153207

>  <r_i_glide_esite>  (95) 
0

>  <r_i_glide_emodel>  (95) 
-35.1657

>  <r_i_glide_energy>  (95) 
-33.6406

>  <r_i_glide_einternal>  (95) 
6.20627

>  <r_i_glide_intrahb_reward>  (95) 
-0

>  <i_i_glide_confnum>  (95) 
1

>  <i_i_glide_posenum>  (95) 
36

>  <r_i_glide_eff_state_penalty>  (95) 
0

>  <ligand_id>  (95) 
23

>  <original_smiles>  (95) 
COC1C=CC23CCC(C1(C)C)C1(C)CCC4C(C)C(OC5CNCCO5)CCC42C(C)C(O)C(O)C13

>  <smiles>  (95) 
[H]OC1([H])C([H])(O[H])C([H])(C([H])([H])[H])C23C([H])([H])C([H])([H])C([H])(OC4([H])OC([H])([H])C([H])([H])N([H])C4([H])[H])C([H])(C([H])([H])[H])C2([H])C([H])([H])C([H])([H])C2(C([H])([H])[H])C1([H])C31C([H])=C([H])C([H])(OC([H])([H])[H])C(C([H])([H])[H])(C([H])([H])[H])C2([H])C([H])([H])C1([H])[H]

$$$$
24:0:0
     RDKit          3D

 53 58  0  0  1  0  0  0  0  0999 V2000
    1.6853   -6.4229    1.2113 C   0  0  0  0  0  0  0  0  0  0  0  0
    2.8473   -5.6257    0.5756 C   0  0  0  0  0  0  0  0  0  0  0  0
    3.9232   -5.0494    1.5476 C   0  0  2  0  0  0  0  0  0  0  0  0
    3.2815   -4.1051    2.6641 C   0  0  0  0  0  0  0  0  0  0  0  0
    4.1400   -2.9217    3.3225 C   0  0  0  0  0  0  0  0  0  0  0  0
    4.5670   -1.7113    2.5572 N   0  0  0  0  0  0  0  0  0  0  0  0
    5.1646   -0.6736    3.3860 C   0  0  0  0  0  0  0  0  0  0  0  0
    5.0620   -1.7562    1.1843 C   0  0  1  0  0  0  0  0  0  0  0  0
    6.4617   -1.9084    1.0610 O   0  0  0  0  0  0  0  0  0  0  0  0
    6.9713   -2.1733   -0.2407 C   0  0  1  0  0  0  0  0  0  0  0  0
    8.3049   -1.8586   -0.2914 O   0  0  0  0  0  0  0  0  0  0  0  0
    9.0032   -2.9684    0.1535 C   0  0  0  0  0  0  0  0  0  0  0  0
    8.2844   -4.1313   -0.1066 O   0  0  0  0  0  0  0  0  0  0  0  0
    7.0549   -3.6867   -0.6436 C   0  0  1  0  0  0  0  0  0  0  0  0
    5.8124   -4.6395   -0.3973 C   0  0  2  0  0  0  0  0  0  0  0  0
    5.0197   -4.7437   -1.5659 O   0  0  0  0  0  0  0  0  0  0  0  0
    4.4624   -3.5805   -1.9993 C   0  0  0  0  0  0  0  0  0  0  0  0
    4.1760   -3.4372   -3.3661 C   0  0  0  0  0  0  0  0  0  0  0  0
    3.5499   -2.2596   -3.8170 C   0  0  0  0  0  0  0  0  0  0  0  0
    3.2244   -1.2501   -2.8945 C   0  0  0  0  0  0  0  0  0  0  0  0
    3.5081   -1.4184   -1.5295 C   0  0  0  0  0  0  0  0  0  0  0  0
    4.1465   -2.5819   -1.0704 C   0  0  0  0  0  0  0  0  0  0  0  0
    4.3632   -2.8408    0.4282 C   0  0  1  0  0  0  0  0  0  0  0  0
    5.0284   -4.2151    0.8493 C   0  0  1  0  0  0  0  0  0  0  0  0
    6.1416   -4.4473    1.9187 C   0  0  0  0  0  0  0  0  0  0  0  0
    6.0177   -5.5709    2.6234 C   0  0  0  0  0  0  0  0  0  0  0  0
    4.7457   -6.1390    2.2548 C   0  0  0  0  0  0  0  0  0  0  0  0
    4.3667   -7.2875    2.4600 O   0  0  0  0  0  0  0  0  0  0  0  0
    0.9844   -6.7603    0.4479 H   0  0  0  0  0  0  0  0  0  0  0  0
    1.1337   -5.8261    1.9328 H   0  0  0  0  0  0  0  0  0  0  0  0
    2.0207   -7.3210    1.7223 H   0  0  0  0  0  0  0  0  0  0  0  0
    3.3474   -6.2639   -0.1513 H   0  0  0  0  0  0  0  0  0  0  0  0
    2.4133   -4.8199   -0.0169 H   0  0  0  0  0  0  0  0  0  0  0  0
    2.3278   -3.7040    2.3170 H   0  0  0  0  0  0  0  0  0  0  0  0
    2.9782   -4.7462    3.4967 H   0  0  0  0  0  0  0  0  0  0  0  0
    3.4781   -2.5077    4.0850 H   0  0  0  0  0  0  0  0  0  0  0  0
    4.9843   -3.3206    3.8902 H   0  0  0  0  0  0  0  0  0  0  0  0
    5.4373    0.1968    2.7909 H   0  0  0  0  0  0  0  0  0  0  0  0
    6.0702   -1.0330    3.8676 H   0  0  0  0  0  0  0  0  0  0  0  0
    4.4689   -0.3483    4.1589 H   0  0  0  0  0  0  0  0  0  0  0  0
    4.8338   -0.7953    0.7356 H   0  0  0  0  0  0  0  0  0  0  0  0
    6.4745   -1.5537   -0.9844 H   0  0  0  0  0  0  0  0  0  0  0  0
    9.9744   -3.0212   -0.3228 H   0  0  0  0  0  0  0  0  0  0  0  0
    9.1616   -2.9108    1.2333 H   0  0  0  0  0  0  0  0  0  0  0  0
    7.2616   -3.6773   -1.7141 H   0  0  0  0  0  0  0  0  0  0  0  0
    6.2061   -5.6458   -0.2590 H   0  0  0  0  0  0  0  0  0  0  0  0
    4.3984   -4.2422   -4.0476 H   0  0  0  0  0  0  0  0  0  0  0  0
    3.2898   -2.1402   -4.8554 H   0  0  0  0  0  0  0  0  0  0  0  0
    2.7049   -0.3569   -3.2278 H   0  0  0  0  0  0  0  0  0  0  0  0
    3.1807   -0.6694   -0.8192 H   0  0  0  0  0  0  0  0  0  0  0  0
    3.3099   -2.7547    0.7004 H   0  0  0  0  0  0  0  0  0  0  0  0
    7.0091   -3.8286    2.0534 H   0  0  0  0  0  0  0  0  0  0  0  0
    6.6925   -5.9800    3.3660 H   0  0  0  0  0  0  0  0  0  0  0  0
  1  2  1  0
  1 29  1  0
  1 30  1  0
  1 31  1  0
  3  2  1  6
  2 32  1  0
  2 33  1  0
  3 24  1  0
  3 27  1  0
  3  4  1  0
  4  5  1  0
  4 34  1  0
  4 35  1  0
  5  6  1  0
  5 36  1  0
  5 37  1  0
  6  7  1  0
  6  8  1  0
  7 38  1  0
  7 39  1  0
  7 40  1  0
  8 23  1  0
  8  9  1  0
  8 41  1  6
  9 10  1  0
 10 14  1  0
 10 11  1  0
 10 42  1  6
 11 12  1  0
 12 13  1  0
 12 43  1  0
 12 44  1  0
 13 14  1  0
 14 15  1  0
 14 45  1  6
 15 24  1  0
 15 16  1  0
 15 46  1  1
 16 17  1  0
 17 22  2  0
 17 18  1  0
 18 19  2  0
 18 47  1  0
 19 20  1  0
 19 48  1  0
 20 21  2  0
 20 49  1  0
 21 22  1  0
 21 50  1  0
 22 23  1  0
 23 24  1  0
 23 51  1  1
 24 25  1  1
 25 26  2  0
 25 52  1  0
 26 27  1  0
 26 53  1  0
 27 28  2  0
M  END
>  <i_m_ct_stereo_status>  (96) 
1

>  <s_m_source_file>  (96) 
/var/tmp/pbs.5076255.sched01/tmpon41x2vr/43t03z2zi4.sdf

>  <i_m_source_file_index>  (96) 
1

>  <i_lp_mmshare_version>  (96) 
48012

>  <i_f3d_flags>  (96) 
0

>  <s_epik_input>  (96) 
W0NIXTE9W0NIXUMoPU8pW0NAQF0oW0NAQF0xMjMpKFtDSDJdW0NIM10pW0NIMl1bQ0gyXU4oW0NIM10pW0NAQEhdNFtDQEhdM2M1YyhbY0hdW2NIXVtjSF1bY0hdNSlPW0NASF0yW0NASF02W0NAQEhdKE80KU9bQ0gyXU82

>  <s_epik_cmdline>  (96) 
J2VwaWtfcHl0aG9uJywgJy1waHQnLCAnMi4wJywgJy1waCcsICc3LjAnLCAnLXRuJywgJzgnLCAnLW1hJywgJzIwMCcsICctaW1hZScsICc8aW5maWxlLm1hZT4nLCAnLW9tYWUnLCAnPG91dGZpbGUubWFlPic=

>  <r_lp_tautomer_probability>  (96) 
1

>  <r_epik_Ionization_Penalty>  (96) 
0.048513

>  <r_epik_Ionization_Penalty_Charging>  (96) 
0

>  <r_epik_Ionization_Penalty_Neutral>  (96) 
0.048513

>  <r_epik_State_Penalty>  (96) 
0.041381

>  <r_epik_Charging_Adjusted_Penalty>  (96) 
0.041381

>  <i_epik_Tot_Q>  (96) 
0

>  <i_epik_Tot_abs_Q>  (96) 
0

>  <s_epik_Chemistry_Notes>  (96) 
This compound contains an acetal/aminal-like group ( X-CH(R)-Y where X, Y are N, S, or O) that may be acid/base labile, releasing an aldehyde.

>  <s_lp_Force_Field>  (96) 
OPLS3e

>  <r_lp_Energy>  (96) 
91.2204

>  <b_lp_Chiralities_Consistent>  (96) 
1

>  <s_lp_Variant>  (96) 
24:0-1

>  <s_i_glide_gridfile>  (96) 
pfpi4k_grid

>  <i_i_glide_lignum>  (96) 
1

>  <i_i_glide_rotatable_bonds>  (96) 
1

>  <r_i_docking_score>  (96) 
-2.62564

>  <r_i_glide_ligand_efficiency>  (96) 
-0.0937727

>  <r_i_glide_ligand_efficiency_sa>  (96) 
-0.284749

>  <r_i_glide_ligand_efficiency_ln>  (96) 
-0.606074

>  <r_i_glide_gscore>  (96) 
-2.62564

>  <r_i_glide_lipo>  (96) 
-0.638946

>  <r_i_glide_hbond>  (96) 
-0.109759

>  <r_i_glide_metal>  (96) 
-0

>  <r_i_glide_rewards>  (96) 
-0.888523

>  <r_i_glide_evdw>  (96) 
-24.6352

>  <r_i_glide_ecoul>  (96) 
1.87347

>  <r_i_glide_erotb>  (96) 
0

>  <r_i_glide_esite>  (96) 
-0.0376673

>  <r_i_glide_emodel>  (96) 
-25.7374

>  <r_i_glide_energy>  (96) 
-22.7617

>  <r_i_glide_einternal>  (96) 
0.0152604

>  <r_i_glide_intrahb_reward>  (96) 
-0

>  <i_i_glide_confnum>  (96) 
1

>  <i_i_glide_posenum>  (96) 
36

>  <r_i_glide_eff_state_penalty>  (96) 
0

>  <ligand_id>  (96) 
24

>  <original_smiles>  (96) 
CCC12CCN(C)C3OC4OCOC4C4Oc5ccccc5C3C41C=CC2=O

>  <smiles>  (96) 
[H]C1=C([H])C23C4([H])Oc5c([H])c([H])c([H])c([H])c5C2([H])C([H])(OC2([H])OC([H])([H])OC24[H])N(C([H])([H])[H])C([H])([H])C([H])([H])C3(C([H])([H])C([H])([H])[H])C1=O

$$$$
24:1:0
     RDKit          3D

 54 59  0  0  1  0  0  0  0  0999 V2000
    4.1405    4.1239    6.3225 C   0  0  0  0  0  0  0  0  0  0  0  0
    3.0357    3.0505    6.4264 C   0  0  0  0  0  0  0  0  0  0  0  0
    2.8172    2.1414    5.1742 C   0  0  2  0  0  0  0  0  0  0  0  0
    2.5753    2.9975    3.8542 C   0  0  0  0  0  0  0  0  0  0  0  0
    1.8058    2.3530    2.6285 C   0  0  0  0  0  0  0  0  0  0  0  0
    0.3095    2.0743    2.6604 N   0  0  1  0  0  0  0  0  0  0  0  0
   -0.0910    1.2843    1.4778 C   0  0  0  0  0  0  0  0  0  0  0  0
   -0.5112    1.4980    3.9720 C   0  0  1  0  0  0  0  0  0  0  0  0
   -0.5206    0.0880    3.9691 O   0  0  0  0  0  0  0  0  0  0  0  0
   -0.9420   -0.5082    5.1809 C   0  0  1  0  0  0  0  0  0  0  0  0
   -1.3790   -1.7807    4.9394 O   0  0  0  0  0  0  0  0  0  0  0  0
   -0.2540   -2.6044    4.9169 C   0  0  0  0  0  0  0  0  0  0  0  0
    0.7286   -2.0932    5.7547 O   0  0  0  0  0  0  0  0  0  0  0  0
    0.2249   -0.8392    6.1681 C   0  0  1  0  0  0  0  0  0  0  0  0
    1.3331    0.2421    6.4981 C   0  0  2  0  0  0  0  0  0  0  0  0
    1.0098    0.9035    7.7093 O   0  0  0  0  0  0  0  0  0  0  0  0
   -0.1047    1.7009    7.6455 C   0  0  0  0  0  0  0  0  0  0  0  0
   -0.8098    1.9566    8.8288 C   0  0  0  0  0  0  0  0  0  0  0  0
   -1.9884    2.7338    8.7955 C   0  0  0  0  0  0  0  0  0  0  0  0
   -2.4291    3.2641    7.5642 C   0  0  0  0  0  0  0  0  0  0  0  0
   -1.7059    3.0334    6.3841 C   0  0  0  0  0  0  0  0  0  0  0  0
   -0.5340    2.2275    6.4048 C   0  0  0  0  0  0  0  0  0  0  0  0
    0.2940    2.0428    5.1252 C   0  0  1  0  0  0  0  0  0  0  0  0
    1.6166    1.1595    5.2893 C   0  0  1  0  0  0  0  0  0  0  0  0
    2.1592    0.0649    4.3178 C   0  0  0  0  0  0  0  0  0  0  0  0
    3.4911    0.0218    4.1961 C   0  0  0  0  0  0  0  0  0  0  0  0
    3.9801    1.1715    4.9131 C   0  0  0  0  0  0  0  0  0  0  0  0
    5.1337    1.3438    5.3071 O   0  0  0  0  0  0  0  0  0  0  0  0
    4.1953    4.7026    7.2434 H   0  0  0  0  0  0  0  0  0  0  0  0
    3.9511    4.8221    5.5082 H   0  0  0  0  0  0  0  0  0  0  0  0
    5.1270    3.6979    6.1681 H   0  0  0  0  0  0  0  0  0  0  0  0
    3.2590    2.4206    7.2874 H   0  0  0  0  0  0  0  0  0  0  0  0
    2.1020    3.5624    6.6726 H   0  0  0  0  0  0  0  0  0  0  0  0
    2.1412    3.9736    4.0835 H   0  0  0  0  0  0  0  0  0  0  0  0
    3.5517    3.2794    3.4654 H   0  0  0  0  0  0  0  0  0  0  0  0
    1.8965    3.0854    1.8221 H   0  0  0  0  0  0  0  0  0  0  0  0
    2.3612    1.5081    2.2130 H   0  0  0  0  0  0  0  0  0  0  0  0
    0.3163    0.2755    1.4866 H   0  0  0  0  0  0  0  0  0  0  0  0
    0.2102    1.7540    0.5448 H   0  0  0  0  0  0  0  0  0  0  0  0
   -1.1668    1.1819    1.4375 H   0  0  0  0  0  0  0  0  0  0  0  0
   -1.5363    1.8681    3.9378 H   0  0  0  0  0  0  0  0  0  0  0  0
   -1.7899    0.0271    5.6231 H   0  0  0  0  0  0  0  0  0  0  0  0
   -0.5227   -3.6075    5.2476 H   0  0  0  0  0  0  0  0  0  0  0  0
    0.1337   -2.6653    3.8998 H   0  0  0  0  0  0  0  0  0  0  0  0
   -0.2613   -1.0967    7.1033 H   0  0  0  0  0  0  0  0  0  0  0  0
    2.2315   -0.3125    6.7736 H   0  0  0  0  0  0  0  0  0  0  0  0
   -0.4650    1.5462    9.7694 H   0  0  0  0  0  0  0  0  0  0  0  0
   -2.5380    2.9179    9.7077 H   0  0  0  0  0  0  0  0  0  0  0  0
   -3.3255    3.8777    7.5554 H   0  0  0  0  0  0  0  0  0  0  0  0
   -2.0415    3.4848    5.4622 H   0  0  0  0  0  0  0  0  0  0  0  0
    0.4547    3.1004    4.9111 H   0  0  0  0  0  0  0  0  0  0  0  0
    1.5655   -0.6824    3.8250 H   0  0  0  0  0  0  0  0  0  0  0  0
    4.1058   -0.6728    3.6379 H   0  0  0  0  0  0  0  0  0  0  0  0
   -0.0473    2.9966    2.4116 H   0  0  0  0  0  0  0  0  0  0  0  0
  1  2  1  0
  1 29  1  0
  1 30  1  0
  1 31  1  0
  3  2  1  1
  2 32  1  0
  2 33  1  0
  3 24  1  0
  3 27  1  0
  3  4  1  0
  4  5  1  0
  4 34  1  0
  4 35  1  0
  5  6  1  0
  5 36  1  0
  5 37  1  0
  6  7  1  0
  6  8  1  0
  6 54  1  6
  7 38  1  0
  7 39  1  0
  7 40  1  0
  8 23  1  0
  8  9  1  0
  8 41  1  1
  9 10  1  0
 10 14  1  0
 10 11  1  0
 10 42  1  1
 11 12  1  0
 12 13  1  0
 12 43  1  0
 12 44  1  0
 13 14  1  0
 14 15  1  0
 14 45  1  1
 15 24  1  0
 15 16  1  0
 15 46  1  1
 16 17  1  0
 17 22  2  0
 17 18  1  0
 18 19  2  0
 18 47  1  0
 19 20  1  0
 19 48  1  0
 20 21  2  0
 20 49  1  0
 21 22  1  0
 21 50  1  0
 22 23  1  0
 23 24  1  0
 23 51  1  6
 24 25  1  6
 25 26  2  0
 25 52  1  0
 26 27  1  0
 26 53  1  0
 27 28  2  0
M  CHG  1   6   1
M  END
>  <i_m_ct_stereo_status>  (97) 
1

>  <s_m_source_file>  (97) 
/var/tmp/pbs.5076255.sched01/tmpon41x2vr/43t03z2zi4.sdf

>  <i_m_source_file_index>  (97) 
2

>  <i_lp_mmshare_version>  (97) 
48012

>  <i_f3d_flags>  (97) 
0

>  <s_epik_input>  (97) 
W0NIXTE9W0NIXUMoPU8pW0NAQF0oW0NAQF0xMjMpKFtDSDJdW0NIM10pW0NIMl1bQ0gyXU4oW0NIM10pW0NAQEhdNFtDQEhdM2M1YyhbY0hdW2NIXVtjSF1bY0hdNSlPW0NASF0yW0NASF02W0NAQEhdKE80KU9bQ0gyXU82

>  <s_epik_cmdline>  (97) 
J2VwaWtfcHl0aG9uJywgJy1waHQnLCAnMi4wJywgJy1waCcsICc3LjAnLCAnLXRuJywgJzgnLCAnLW1hJywgJzIwMCcsICctaW1hZScsICc8aW5maWxlLm1hZT4nLCAnLW9tYWUnLCAnPG91dGZpbGUubWFlPic=

>  <r_lp_tautomer_probability>  (97) 
1

>  <r_epik_Ionization_Penalty>  (97) 
1.50678

>  <r_epik_Ionization_Penalty_Charging>  (97) 
1.50678

>  <r_epik_Ionization_Penalty_Neutral>  (97) 
2.23649e-15

>  <r_epik_State_Penalty>  (97) 
1.59747

>  <r_epik_Charging_Adjusted_Penalty>  (97) 
3.10426

>  <i_epik_Tot_Q>  (97) 
1

>  <i_epik_Tot_abs_Q>  (97) 
1

>  <s_epik_Chemistry_Notes>  (97) 
This compound contains an acetal/aminal-like group ( X-CH(R)-Y where X, Y are N, S, or O) that may be acid/base labile, releasing an aldehyde.

>  <s_lp_Force_Field>  (97) 
OPLS3e

>  <r_lp_Energy>  (97) 
97.3008

>  <b_lp_Chiralities_Consistent>  (97) 
1

>  <s_lp_Variant>  (97) 
24:0-2

>  <s_i_glide_gridfile>  (97) 
pfpi4k_grid

>  <i_i_glide_lignum>  (97) 
2

>  <i_i_glide_rotatable_bonds>  (97) 
1

>  <r_i_docking_score>  (97) 
-3.0379

>  <r_i_glide_ligand_efficiency>  (97) 
-0.108497

>  <r_i_glide_ligand_efficiency_sa>  (97) 
-0.32946

>  <r_i_glide_ligand_efficiency_ln>  (97) 
-0.701238

>  <r_i_glide_gscore>  (97) 
-3.0379

>  <r_i_glide_lipo>  (97) 
-0.158626

>  <r_i_glide_hbond>  (97) 
-0.111501

>  <r_i_glide_metal>  (97) 
-0

>  <r_i_glide_rewards>  (97) 
-0.787871

>  <r_i_glide_evdw>  (97) 
-19.1685

>  <r_i_glide_ecoul>  (97) 
-5.81493

>  <r_i_glide_erotb>  (97) 
0

>  <r_i_glide_esite>  (97) 
-0.149242

>  <r_i_glide_emodel>  (97) 
-31.0776

>  <r_i_glide_energy>  (97) 
-24.9834

>  <r_i_glide_einternal>  (97) 
0.000192735

>  <r_i_glide_intrahb_reward>  (97) 
-0

>  <i_i_glide_confnum>  (97) 
2

>  <i_i_glide_posenum>  (97) 
13

>  <r_i_glide_eff_state_penalty>  (97) 
0

>  <ligand_id>  (97) 
24

>  <original_smiles>  (97) 
CCC12CCN(C)C3OC4OCOC4C4Oc5ccccc5C3C41C=CC2=O

>  <smiles>  (97) 
[H]C1=C([H])C23C4([H])Oc5c([H])c([H])c([H])c([H])c5C2([H])C([H])(OC2([H])OC([H])([H])OC24[H])[N+]([H])(C([H])([H])[H])C([H])([H])C([H])([H])C3(C([H])([H])C([H])([H])[H])C1=O

$$$$
24:1:1
     RDKit          3D

 54 59  0  0  1  0  0  0  0  0999 V2000
    1.3836    8.1816    5.4424 C   0  0  0  0  0  0  0  0  0  0  0  0
    1.2771    6.7421    5.9893 C   0  0  0  0  0  0  0  0  0  0  0  0
    2.1560    5.6570    5.2925 C   0  0  2  0  0  0  0  0  0  0  0  0
    1.9225    5.6173    3.7116 C   0  0  0  0  0  0  0  0  0  0  0  0
    2.2588    4.2916    2.8947 C   0  0  0  0  0  0  0  0  0  0  0  0
    1.4026    3.0290    3.0013 N   0  0  1  0  0  0  0  0  0  0  0  0
    2.0431    1.8817    2.3109 C   0  0  0  0  0  0  0  0  0  0  0  0
    0.7352    2.4773    4.4114 C   0  0  1  0  0  0  0  0  0  0  0  0
    1.6134    1.5929    5.0611 O   0  0  0  0  0  0  0  0  0  0  0  0
    1.2910    1.2678    6.4057 C   0  0  1  0  0  0  0  0  0  0  0  0
    1.8961    0.0816    6.7486 O   0  0  0  0  0  0  0  0  0  0  0  0
    3.1941    0.3934    7.1575 C   0  0  0  0  0  0  0  0  0  0  0  0
    3.2338    1.6864    7.6760 O   0  0  0  0  0  0  0  0  0  0  0  0
    1.9352    2.2074    7.4831 C   0  0  1  0  0  0  0  0  0  0  0  0
    1.8883    3.7843    7.3046 C   0  0  2  0  0  0  0  0  0  0  0  0
    0.8102    4.3297    8.0432 O   0  0  0  0  0  0  0  0  0  0  0  0
   -0.4252    3.9781    7.5874 C   0  0  0  0  0  0  0  0  0  0  0  0
   -1.4905    3.9582    8.5017 C   0  0  0  0  0  0  0  0  0  0  0  0
   -2.7687    3.5607    8.0792 C   0  0  0  0  0  0  0  0  0  0  0  0
   -2.9758    3.2016    6.7331 C   0  0  0  0  0  0  0  0  0  0  0  0
   -1.9139    3.2494    5.8135 C   0  0  0  0  0  0  0  0  0  0  0  0
   -0.6200    3.6232    6.2334 C   0  0  0  0  0  0  0  0  0  0  0  0
    0.5298    3.7336    5.2165 C   0  0  1  0  0  0  0  0  0  0  0  0
    1.9279    4.2035    5.8147 C   0  0  1  0  0  0  0  0  0  0  0  0
    3.3421    3.6529    5.4673 C   0  0  0  0  0  0  0  0  0  0  0  0
    4.3084    4.5737    5.4319 C   0  0  0  0  0  0  0  0  0  0  0  0
    3.6586    5.8536    5.5494 C   0  0  0  0  0  0  0  0  0  0  0  0
    4.1983    6.9292    5.8066 O   0  0  0  0  0  0  0  0  0  0  0  0
    0.7220    8.8510    5.9904 H   0  0  0  0  0  0  0  0  0  0  0  0
    1.1029    8.2352    4.3924 H   0  0  0  0  0  0  0  0  0  0  0  0
    2.3836    8.5964    5.5342 H   0  0  0  0  0  0  0  0  0  0  0  0
    1.5216    6.7667    7.0506 H   0  0  0  0  0  0  0  0  0  0  0  0
    0.2293    6.4465    5.9387 H   0  0  0  0  0  0  0  0  0  0  0  0
    0.9199    5.9654    3.4478 H   0  0  0  0  0  0  0  0  0  0  0  0
    2.5498    6.3965    3.2728 H   0  0  0  0  0  0  0  0  0  0  0  0
    2.1656    4.5741    1.8446 H   0  0  0  0  0  0  0  0  0  0  0  0
    3.3189    4.0453    2.9589 H   0  0  0  0  0  0  0  0  0  0  0  0
    2.9746    1.5900    2.8037 H   0  0  0  0  0  0  0  0  0  0  0  0
    2.2356    2.1265    1.2760 H   0  0  0  0  0  0  0  0  0  0  0  0
    1.3796    1.0174    2.3117 H   0  0  0  0  0  0  0  0  0  0  0  0
   -0.1879    1.9523    4.1722 H   0  0  0  0  0  0  0  0  0  0  0  0
    0.2191    1.1133    6.5324 H   0  0  0  0  0  0  0  0  0  0  0  0
    3.5354   -0.3187    7.9139 H   0  0  0  0  0  0  0  0  0  0  0  0
    3.8672    0.3440    6.2973 H   0  0  0  0  0  0  0  0  0  0  0  0
    1.4351    1.9662    8.4217 H   0  0  0  0  0  0  0  0  0  0  0  0
    2.7590    4.1822    7.8293 H   0  0  0  0  0  0  0  0  0  0  0  0
   -1.3275    4.2387    9.5341 H   0  0  0  0  0  0  0  0  0  0  0  0
   -3.5901    3.5419    8.7795 H   0  0  0  0  0  0  0  0  0  0  0  0
   -3.9685    2.9393    6.3962 H   0  0  0  0  0  0  0  0  0  0  0  0
   -2.1079    3.0105    4.7790 H   0  0  0  0  0  0  0  0  0  0  0  0
    0.0412    4.4363    4.5487 H   0  0  0  0  0  0  0  0  0  0  0  0
    3.5917    2.6117    5.3584 H   0  0  0  0  0  0  0  0  0  0  0  0
    5.3704    4.4326    5.2894 H   0  0  0  0  0  0  0  0  0  0  0  0
    0.6378    3.2824    2.3776 H   0  0  0  0  0  0  0  0  0  0  0  0
  1  2  1  0
  1 29  1  0
  1 30  1  0
  1 31  1  0
  3  2  1  1
  2 32  1  0
  2 33  1  0
  3 24  1  0
  3 27  1  0
  3  4  1  0
  4  5  1  0
  4 34  1  0
  4 35  1  0
  5  6  1  0
  5 36  1  0
  5 37  1  0
  6  7  1  0
  6  8  1  0
  6 54  1  6
  7 38  1  0
  7 39  1  0
  7 40  1  0
  8 23  1  0
  8  9  1  0
  8 41  1  6
  9 10  1  0
 10 14  1  0
 10 11  1  0
 10 42  1  6
 11 12  1  0
 12 13  1  0
 12 43  1  0
 12 44  1  0
 13 14  1  0
 14 15  1  0
 14 45  1  1
 15 24  1  0
 15 16  1  0
 15 46  1  1
 16 17  1  0
 17 22  2  0
 17 18  1  0
 18 19  2  0
 18 47  1  0
 19 20  1  0
 19 48  1  0
 20 21  2  0
 20 49  1  0
 21 22  1  0
 21 50  1  0
 22 23  1  0
 23 24  1  0
 23 51  1  6
 24 25  1  6
 25 26  2  0
 25 52  1  0
 26 27  1  0
 26 53  1  0
 27 28  2  0
M  CHG  1   6   1
M  END
>  <i_m_ct_stereo_status>  (98) 
1

>  <s_m_source_file>  (98) 
/var/tmp/pbs.5076255.sched01/tmpon41x2vr/43t03z2zi4.sdf

>  <i_m_source_file_index>  (98) 
2

>  <i_lp_mmshare_version>  (98) 
48012

>  <i_f3d_flags>  (98) 
0

>  <s_epik_input>  (98) 
W0NIXTE9W0NIXUMoPU8pW0NAQF0oW0NAQF0xMjMpKFtDSDJdW0NIM10pW0NIMl1bQ0gyXU4oW0NIM10pW0NAQEhdNFtDQEhdM2M1YyhbY0hdW2NIXVtjSF1bY0hdNSlPW0NASF0yW0NASF02W0NAQEhdKE80KU9bQ0gyXU82

>  <s_epik_cmdline>  (98) 
J2VwaWtfcHl0aG9uJywgJy1waHQnLCAnMi4wJywgJy1waCcsICc3LjAnLCAnLXRuJywgJzgnLCAnLW1hJywgJzIwMCcsICctaW1hZScsICc8aW5maWxlLm1hZT4nLCAnLW9tYWUnLCAnPG91dGZpbGUubWFlPic=

>  <r_lp_tautomer_probability>  (98) 
1

>  <r_epik_Ionization_Penalty>  (98) 
1.50678

>  <r_epik_Ionization_Penalty_Charging>  (98) 
1.50678

>  <r_epik_Ionization_Penalty_Neutral>  (98) 
2.23649e-15

>  <r_epik_State_Penalty>  (98) 
1.59747

>  <r_epik_Charging_Adjusted_Penalty>  (98) 
3.10426

>  <i_epik_Tot_Q>  (98) 
1

>  <i_epik_Tot_abs_Q>  (98) 
1

>  <s_epik_Chemistry_Notes>  (98) 
This compound contains an acetal/aminal-like group ( X-CH(R)-Y where X, Y are N, S, or O) that may be acid/base labile, releasing an aldehyde.

>  <s_lp_Force_Field>  (98) 
OPLS3e

>  <r_lp_Energy>  (98) 
97.3008

>  <b_lp_Chiralities_Consistent>  (98) 
1

>  <s_lp_Variant>  (98) 
24:0-2

>  <s_i_glide_gridfile>  (98) 
pfpi4k_grid

>  <i_i_glide_lignum>  (98) 
2

>  <i_i_glide_rotatable_bonds>  (98) 
1

>  <r_i_docking_score>  (98) 
-2.92639

>  <r_i_glide_ligand_efficiency>  (98) 
-0.104514

>  <r_i_glide_ligand_efficiency_sa>  (98) 
-0.317366

>  <r_i_glide_ligand_efficiency_ln>  (98) 
-0.675496

>  <r_i_glide_gscore>  (98) 
-2.92639

>  <r_i_glide_lipo>  (98) 
-0.292514

>  <r_i_glide_hbond>  (98) 
-0.183128

>  <r_i_glide_metal>  (98) 
-0

>  <r_i_glide_rewards>  (98) 
-0.787871

>  <r_i_glide_evdw>  (98) 
-16.6645

>  <r_i_glide_ecoul>  (98) 
-4.90203

>  <r_i_glide_erotb>  (98) 
0

>  <r_i_glide_esite>  (98) 
-0.0943455

>  <r_i_glide_emodel>  (98) 
-27.4886

>  <r_i_glide_energy>  (98) 
-21.5665

>  <r_i_glide_einternal>  (98) 
0.000211433

>  <r_i_glide_intrahb_reward>  (98) 
-0

>  <i_i_glide_confnum>  (98) 
2

>  <i_i_glide_posenum>  (98) 
2

>  <r_i_glide_eff_state_penalty>  (98) 
0

>  <ligand_id>  (98) 
24

>  <original_smiles>  (98) 
CCC12CCN(C)C3OC4OCOC4C4Oc5ccccc5C3C41C=CC2=O

>  <smiles>  (98) 
[H]C1=C([H])C23C4([H])Oc5c([H])c([H])c([H])c([H])c5C2([H])C([H])(OC2([H])OC([H])([H])OC24[H])[N+]([H])(C([H])([H])[H])C([H])([H])C([H])([H])C3(C([H])([H])C([H])([H])[H])C1=O

$$$$
24:1:2
     RDKit          3D

 54 59  0  0  1  0  0  0  0  0999 V2000
    1.4049    4.5917    6.4889 C   0  0  0  0  0  0  0  0  0  0  0  0
    2.6495    3.6554    6.5153 C   0  0  0  0  0  0  0  0  0  0  0  0
    2.7665    2.5377    5.4212 C   0  0  2  0  0  0  0  0  0  0  0  0
    2.6939    3.1166    3.9433 C   0  0  0  0  0  0  0  0  0  0  0  0
    2.3118    2.1451    2.7411 C   0  0  0  0  0  0  0  0  0  0  0  0
    0.9026    1.5828    2.5513 N   0  0  1  0  0  0  0  0  0  0  0  0
    0.8847    0.5550    1.4882 C   0  0  0  0  0  0  0  0  0  0  0  0
   -0.0584    1.0408    3.7896 C   0  0  1  0  0  0  0  0  0  0  0  0
    0.1500   -0.3233    4.0407 O   0  0  0  0  0  0  0  0  0  0  0  0
   -0.3813   -0.8117    5.2608 C   0  0  1  0  0  0  0  0  0  0  0  0
   -0.5573   -2.1726    5.1859 O   0  0  0  0  0  0  0  0  0  0  0  0
    0.6678   -2.7422    5.5087 C   0  0  0  0  0  0  0  0  0  0  0  0
    1.3640   -1.9211    6.3815 O   0  0  0  0  0  0  0  0  0  0  0  0
    0.5961   -0.7527    6.4882 C   0  0  1  0  0  0  0  0  0  0  0  0
    1.4139    0.5554    6.7990 C   0  0  2  0  0  0  0  0  0  0  0  0
    0.7278    1.2951    7.7832 O   0  0  0  0  0  0  0  0  0  0  0  0
   -0.4657    1.8151    7.3830 C   0  0  0  0  0  0  0  0  0  0  0  0
   -1.4222    2.1245    8.3726 C   0  0  0  0  0  0  0  0  0  0  0  0
   -2.6528    2.6642    7.9997 C   0  0  0  0  0  0  0  0  0  0  0  0
   -2.9284    2.9041    6.6325 C   0  0  0  0  0  0  0  0  0  0  0  0
   -1.9660    2.6195    5.6536 C   0  0  0  0  0  0  0  0  0  0  0  0
   -0.7245    2.0730    6.0126 C   0  0  0  0  0  0  0  0  0  0  0  0
    0.3866    1.8782    4.9599 C   0  0  1  0  0  0  0  0  0  0  0  0
    1.7691    1.3355    5.5106 C   0  0  1  0  0  0  0  0  0  0  0  0
    2.6937    0.2578    4.8513 C   0  0  0  0  0  0  0  0  0  0  0  0
    3.9997    0.4903    4.9845 C   0  0  0  0  0  0  0  0  0  0  0  0
    4.1187    1.8161    5.5636 C   0  0  0  0  0  0  0  0  0  0  0  0
    5.1118    2.3088    6.0786 O   0  0  0  0  0  0  0  0  0  0  0  0
    1.4636    5.3336    7.3053 H   0  0  0  0  0  0  0  0  0  0  0  0
    0.4956    4.0734    6.6416 H   0  0  0  0  0  0  0  0  0  0  0  0
    1.3411    5.1543    5.5451 H   0  0  0  0  0  0  0  0  0  0  0  0
    3.5440    4.2941    6.4728 H   0  0  0  0  0  0  0  0  0  0  0  0
    2.7019    3.1820    7.4995 H   0  0  0  0  0  0  0  0  0  0  0  0
    2.0746    3.9990    3.8645 H   0  0  0  0  0  0  0  0  0  0  0  0
    3.6864    3.5060    3.6948 H   0  0  0  0  0  0  0  0  0  0  0  0
    2.4117    2.7691    1.8572 H   0  0  0  0  0  0  0  0  0  0  0  0
    3.0671    1.3770    2.5903 H   0  0  0  0  0  0  0  0  0  0  0  0
    1.4525   -0.3303    1.7747 H   0  0  0  0  0  0  0  0  0  0  0  0
    1.2894    0.9404    0.5571 H   0  0  0  0  0  0  0  0  0  0  0  0
   -0.1513    0.2553    1.2947 H   0  0  0  0  0  0  0  0  0  0  0  0
   -1.1045    1.1939    3.5133 H   0  0  0  0  0  0  0  0  0  0  0  0
   -1.3695   -0.3900    5.4453 H   0  0  0  0  0  0  0  0  0  0  0  0
    0.5140   -3.7158    5.9743 H   0  0  0  0  0  0  0  0  0  0  0  0
    1.2629   -2.8613    4.6012 H   0  0  0  0  0  0  0  0  0  0  0  0
   -0.0172   -0.9502    7.3597 H   0  0  0  0  0  0  0  0  0  0  0  0
    2.3328    0.2668    7.3130 H   0  0  0  0  0  0  0  0  0  0  0  0
   -1.1795    1.9886    9.4168 H   0  0  0  0  0  0  0  0  0  0  0  0
   -3.3858    2.9186    8.7498 H   0  0  0  0  0  0  0  0  0  0  0  0
   -3.8545    3.3399    6.3205 H   0  0  0  0  0  0  0  0  0  0  0  0
   -2.1677    2.8780    4.6325 H   0  0  0  0  0  0  0  0  0  0  0  0
    0.3873    2.8847    4.5718 H   0  0  0  0  0  0  0  0  0  0  0  0
    2.3489   -0.6679    4.4156 H   0  0  0  0  0  0  0  0  0  0  0  0
    4.8276   -0.1482    4.6782 H   0  0  0  0  0  0  0  0  0  0  0  0
    0.4365    2.3815    2.1428 H   0  0  0  0  0  0  0  0  0  0  0  0
  1  2  1  0
  1 29  1  0
  1 30  1  0
  1 31  1  0
  3  2  1  1
  2 32  1  0
  2 33  1  0
  3 24  1  0
  3 27  1  0
  3  4  1  0
  4  5  1  0
  4 34  1  0
  4 35  1  0
  5  6  1  0
  5 36  1  0
  5 37  1  0
  6  7  1  0
  6  8  1  0
  6 54  1  6
  7 38  1  0
  7 39  1  0
  7 40  1  0
  8 23  1  0
  8  9  1  0
  8 41  1  6
  9 10  1  0
 10 14  1  0
 10 11  1  0
 10 42  1  1
 11 12  1  0
 12 13  1  0
 12 43  1  0
 12 44  1  0
 13 14  1  0
 14 15  1  0
 14 45  1  1
 15 24  1  0
 15 16  1  0
 15 46  1  1
 16 17  1  0
 17 22  2  0
 17 18  1  0
 18 19  2  0
 18 47  1  0
 19 20  1  0
 19 48  1  0
 20 21  2  0
 20 49  1  0
 21 22  1  0
 21 50  1  0
 22 23  1  0
 23 24  1  0
 23 51  1  6
 24 25  1  6
 25 26  2  0
 25 52  1  0
 26 27  1  0
 26 53  1  0
 27 28  2  0
M  CHG  1   6   1
M  END
>  <i_m_ct_stereo_status>  (99) 
1

>  <s_m_source_file>  (99) 
/var/tmp/pbs.5076255.sched01/tmpon41x2vr/43t03z2zi4.sdf

>  <i_m_source_file_index>  (99) 
2

>  <i_lp_mmshare_version>  (99) 
48012

>  <i_f3d_flags>  (99) 
0

>  <s_epik_input>  (99) 
W0NIXTE9W0NIXUMoPU8pW0NAQF0oW0NAQF0xMjMpKFtDSDJdW0NIM10pW0NIMl1bQ0gyXU4oW0NIM10pW0NAQEhdNFtDQEhdM2M1YyhbY0hdW2NIXVtjSF1bY0hdNSlPW0NASF0yW0NASF02W0NAQEhdKE80KU9bQ0gyXU82

>  <s_epik_cmdline>  (99) 
J2VwaWtfcHl0aG9uJywgJy1waHQnLCAnMi4wJywgJy1waCcsICc3LjAnLCAnLXRuJywgJzgnLCAnLW1hJywgJzIwMCcsICctaW1hZScsICc8aW5maWxlLm1hZT4nLCAnLW9tYWUnLCAnPG91dGZpbGUubWFlPic=

>  <r_lp_tautomer_probability>  (99) 
1

>  <r_epik_Ionization_Penalty>  (99) 
1.50678

>  <r_epik_Ionization_Penalty_Charging>  (99) 
1.50678

>  <r_epik_Ionization_Penalty_Neutral>  (99) 
2.23649e-15

>  <r_epik_State_Penalty>  (99) 
1.59747

>  <r_epik_Charging_Adjusted_Penalty>  (99) 
3.10426

>  <i_epik_Tot_Q>  (99) 
1

>  <i_epik_Tot_abs_Q>  (99) 
1

>  <s_epik_Chemistry_Notes>  (99) 
This compound contains an acetal/aminal-like group ( X-CH(R)-Y where X, Y are N, S, or O) that may be acid/base labile, releasing an aldehyde.

>  <s_lp_Force_Field>  (99) 
OPLS3e

>  <r_lp_Energy>  (99) 
97.3008

>  <b_lp_Chiralities_Consistent>  (99) 
1

>  <s_lp_Variant>  (99) 
24:0-2

>  <s_i_glide_gridfile>  (99) 
pfpi4k_grid

>  <i_i_glide_lignum>  (99) 
2

>  <i_i_glide_rotatable_bonds>  (99) 
1

>  <r_i_docking_score>  (99) 
-2.78196

>  <r_i_glide_ligand_efficiency>  (99) 
-0.0993556

>  <r_i_glide_ligand_efficiency_sa>  (99) 
-0.301702

>  <r_i_glide_ligand_efficiency_ln>  (99) 
-0.642157

>  <r_i_glide_gscore>  (99) 
-2.78196

>  <r_i_glide_lipo>  (99) 
-0.345926

>  <r_i_glide_hbond>  (99) 
-0.00944645

>  <r_i_glide_metal>  (99) 
-0

>  <r_i_glide_rewards>  (99) 
-0.787879

>  <r_i_glide_evdw>  (99) 
-17.4308

>  <r_i_glide_ecoul>  (99) 
-4.47751

>  <r_i_glide_erotb>  (99) 
0

>  <r_i_glide_esite>  (99) 
-0.0955387

>  <r_i_glide_emodel>  (99) 
-25.2734

>  <r_i_glide_energy>  (99) 
-21.9083

>  <r_i_glide_einternal>  (99) 
3.69764

>  <r_i_glide_intrahb_reward>  (99) 
-0

>  <i_i_glide_confnum>  (99) 
1

>  <i_i_glide_posenum>  (99) 
18

>  <r_i_glide_eff_state_penalty>  (99) 
0

>  <ligand_id>  (99) 
24

>  <original_smiles>  (99) 
CCC12CCN(C)C3OC4OCOC4C4Oc5ccccc5C3C41C=CC2=O

>  <smiles>  (99) 
[H]C1=C([H])C23C4([H])Oc5c([H])c([H])c([H])c([H])c5C2([H])C([H])(OC2([H])OC([H])([H])OC24[H])[N+]([H])(C([H])([H])[H])C([H])([H])C([H])([H])C3(C([H])([H])C([H])([H])[H])C1=O

$$$$
25:0:0
     RDKit          3D

 32 34  0  0  1  0  0  0  0  0999 V2000
    0.6394   -8.0929    2.7600 N   0  0  0  0  0  0  0  0  0  0  0  0
    1.6721   -7.2466    2.6752 C   0  0  0  0  0  0  0  0  0  0  0  0
    2.5905   -7.2119    3.6642 N   0  0  0  0  0  0  0  0  0  0  0  0
    3.6156   -6.3596    3.5762 C   0  0  0  0  0  0  0  0  0  0  0  0
    3.8901   -5.4759    2.6013 N   0  0  0  0  0  0  0  0  0  0  0  0
    2.9583   -5.5177    1.6070 C   0  0  0  0  0  0  0  0  0  0  0  0
    1.8320   -6.3770    1.5719 C   0  0  0  0  0  0  0  0  0  0  0  0
    1.1022   -6.1716    0.4227 N   0  0  0  0  0  0  0  0  0  0  0  0
    1.8058   -5.2784   -0.2203 C   0  0  0  0  0  0  0  0  0  0  0  0
    2.8924   -4.7617    0.4532 N   0  0  0  0  0  0  0  0  0  0  0  0
    3.8746   -3.7452   -0.0227 C   0  0  2  0  0  0  0  0  0  0  0  0
    4.1803   -2.8641    1.0185 O   0  0  0  0  0  0  0  0  0  0  0  0
    4.0689   -1.5036    0.5901 C   0  0  1  0  0  0  0  0  0  0  0  0
    5.2487   -0.6674    1.1180 C   0  0  0  0  0  0  0  0  0  0  0  0
    5.0293   -0.2648    2.4529 O   0  0  0  0  0  0  0  0  0  0  0  0
    3.9972   -1.5756   -0.9430 C   0  0  1  0  0  0  0  0  0  0  0  0
    5.3016   -1.6177   -1.5075 O   0  0  0  0  0  0  0  0  0  0  0  0
    3.2757   -2.8932   -1.1418 C   0  0  1  0  0  0  0  0  0  0  0  0
    3.4871   -3.4371   -2.4320 O   0  0  0  0  0  0  0  0  0  0  0  0
    0.5897   -8.7382    3.5331 H   0  0  0  0  0  0  0  0  0  0  0  0
    0.0104   -8.1655    1.9737 H   0  0  0  0  0  0  0  0  0  0  0  0
    4.3165   -6.3823    4.3980 H   0  0  0  0  0  0  0  0  0  0  0  0
    1.4583   -4.9278   -1.1840 H   0  0  0  0  0  0  0  0  0  0  0  0
    4.7640   -4.3104   -0.3015 H   0  0  0  0  0  0  0  0  0  0  0  0
    3.1165   -1.1148    0.9614 H   0  0  0  0  0  0  0  0  0  0  0  0
    6.1887   -1.2158    1.0335 H   0  0  0  0  0  0  0  0  0  0  0  0
    5.3500    0.2364    0.5170 H   0  0  0  0  0  0  0  0  0  0  0  0
    4.2283    0.2400    2.4827 H   0  0  0  0  0  0  0  0  0  0  0  0
    3.4356   -0.7373   -1.3648 H   0  0  0  0  0  0  0  0  0  0  0  0
    5.6792   -2.4508   -1.2691 H   0  0  0  0  0  0  0  0  0  0  0  0
    2.2205   -2.7037   -0.9361 H   0  0  0  0  0  0  0  0  0  0  0  0
    3.1962   -4.3468   -2.4508 H   0  0  0  0  0  0  0  0  0  0  0  0
  1  2  1  0
  1 21  1  0
  1 20  1  0
  2  3  2  0
  2  7  1  0
  3  4  1  0
  4 22  1  0
  4  5  2  0
  5  6  1  0
  6 10  1  0
  6  7  2  0
  7  8  1  0
  8  9  2  0
  9 23  1  0
  9 10  1  0
 10 11  1  0
 11 18  1  0
 11 12  1  0
 11 24  1  6
 12 13  1  0
 13 14  1  0
 13 16  1  0
 13 25  1  1
 14 15  1  0
 14 26  1  0
 14 27  1  0
 15 28  1  0
 16 17  1  0
 16 18  1  0
 16 29  1  6
 17 30  1  0
 18 19  1  0
 18 31  1  1
 19 32  1  0
M  END
>  <i_m_ct_stereo_status>  (100) 
1

>  <s_m_source_file>  (100) 
/var/tmp/pbs.5076255.sched01/tmpon41x2vr/43t03z2zi4.sdf

>  <i_m_source_file_index>  (100) 
3

>  <i_lp_mmshare_version>  (100) 
48012

>  <i_f3d_flags>  (100) 
0

>  <s_epik_input>  (100) 
bjFbY0hdW25IXVxjKD1OXFtIXSljKGMxMiluW2NIXW4yW0NAQEhdM09bQ0BASF0oW0NIMl1bT0hdKVtDQEBIXShbT0hdKVtDQEhdM1tPSF0=

>  <s_epik_cmdline>  (100) 
J2VwaWtfcHl0aG9uJywgJy1waHQnLCAnMi4wJywgJy1waCcsICc3LjAnLCAnLXRuJywgJzgnLCAnLW1hJywgJzIwMCcsICctaW1hZScsICc8aW5maWxlLm1hZT4nLCAnLW9tYWUnLCAnPG91dGZpbGUubWFlPic=

>  <r_lp_tautomer_probability>  (100) 
1

>  <r_epik_Ionization_Penalty>  (100) 
0.000428445

>  <r_epik_Ionization_Penalty_Charging>  (100) 
0

>  <r_epik_Ionization_Penalty_Neutral>  (100) 
0.000428445

>  <r_epik_State_Penalty>  (100) 
-0

>  <r_epik_Charging_Adjusted_Penalty>  (100) 
0

>  <i_epik_Tot_Q>  (100) 
0

>  <i_epik_Tot_abs_Q>  (100) 
0

>  <s_epik_Chemistry_Notes>  (100) 
This compound contains an acetal/aminal-like group ( X-CH(R)-Y where X, Y are N, S, or O) that may be acid/base labile, releasing an aldehyde.

>  <s_lp_Force_Field>  (100) 
OPLS3e

>  <r_lp_Energy>  (100) 
18.2998

>  <b_lp_Chiralities_Consistent>  (100) 
1

>  <s_lp_Variant>  (100) 
25:0-1

>  <s_i_glide_gridfile>  (100) 
pfpi4k_grid

>  <i_i_glide_lignum>  (100) 
3

>  <i_i_glide_rotatable_bonds>  (100) 
5

>  <r_i_docking_score>  (100) 
-4.16285

>  <r_i_glide_ligand_efficiency>  (100) 
-0.219098

>  <r_i_glide_ligand_efficiency_sa>  (100) 
-0.58464

>  <r_i_glide_ligand_efficiency_ln>  (100) 
-1.05537

>  <r_i_glide_gscore>  (100) 
-4.16285

>  <r_i_glide_lipo>  (100) 
-0.142185

>  <r_i_glide_hbond>  (100) 
-0.203774

>  <r_i_glide_metal>  (100) 
-0

>  <r_i_glide_rewards>  (100) 
-1.58796

>  <r_i_glide_evdw>  (100) 
-15.8814

>  <r_i_glide_ecoul>  (100) 
-11.8119

>  <r_i_glide_erotb>  (100) 
0.499276

>  <r_i_glide_esite>  (100) 
-0.162363

>  <r_i_glide_emodel>  (100) 
-36.1462

>  <r_i_glide_energy>  (100) 
-27.6932

>  <r_i_glide_einternal>  (100) 
2.08758

>  <r_i_glide_intrahb_reward>  (100) 
-0

>  <i_i_glide_confnum>  (100) 
3

>  <i_i_glide_posenum>  (100) 
38

>  <r_i_glide_eff_state_penalty>  (100) 
0

>  <ligand_id>  (100) 
25

>  <original_smiles>  (100) 
N=c1[nH]cnc2c1ncn2C1OC(CO)C(O)C1O

>  <smiles>  (100) 
[H]OC([H])([H])C1([H])OC([H])(n2c([H])nc3c(N([H])[H])nc([H])nc32)C([H])(O[H])C1([H])O[H]

$$$$
25:0:1
     RDKit          3D

 32 34  0  0  1  0  0  0  0  0999 V2000
    7.8101   -6.5850    1.2906 N   0  0  0  0  0  0  0  0  0  0  0  0
    6.5100   -6.8206    1.4946 C   0  0  0  0  0  0  0  0  0  0  0  0
    5.6538   -5.7788    1.4356 N   0  0  0  0  0  0  0  0  0  0  0  0
    4.3475   -6.0024    1.6349 C   0  0  0  0  0  0  0  0  0  0  0  0
    3.7300   -7.1555    1.8953 N   0  0  0  0  0  0  0  0  0  0  0  0
    4.5955   -8.2075    1.9374 C   0  0  0  0  0  0  0  0  0  0  0  0
    6.0021   -8.1153    1.7463 C   0  0  0  0  0  0  0  0  0  0  0  0
    6.5789   -9.3778    1.8503 N   0  0  0  0  0  0  0  0  0  0  0  0
    5.5628  -10.1662    2.0733 C   0  0  0  0  0  0  0  0  0  0  0  0
    4.3350   -9.5425    2.1575 N   0  0  0  0  0  0  0  0  0  0  0  0
    3.0246  -10.2226    2.3846 C   0  0  2  0  0  0  0  0  0  0  0  0
    1.9655   -9.3634    2.0825 O   0  0  0  0  0  0  0  0  0  0  0  0
    1.0278   -9.3372    3.1584 C   0  0  1  0  0  0  0  0  0  0  0  0
   -0.4115   -9.2613    2.6089 C   0  0  0  0  0  0  0  0  0  0  0  0
   -1.3320   -8.9938    3.6519 O   0  0  0  0  0  0  0  0  0  0  0  0
    1.3771  -10.5653    4.0198 C   0  0  1  0  0  0  0  0  0  0  0  0
    0.7671  -11.7323    3.4776 O   0  0  0  0  0  0  0  0  0  0  0  0
    2.8860  -10.6384    3.8552 C   0  0  1  0  0  0  0  0  0  0  0  0
    3.3515  -11.9488    4.1010 O   0  0  0  0  0  0  0  0  0  0  0  0
    8.1116   -5.6386    1.1258 H   0  0  0  0  0  0  0  0  0  0  0  0
    8.4656   -7.3594    1.3401 H   0  0  0  0  0  0  0  0  0  0  0  0
    3.6985   -5.1366    1.5636 H   0  0  0  0  0  0  0  0  0  0  0  0
    5.6674  -11.2405    2.1875 H   0  0  0  0  0  0  0  0  0  0  0  0
    3.0181  -11.0490    1.6937 H   0  0  0  0  0  0  0  0  0  0  0  0
    1.2604   -8.4345    3.7265 H   0  0  0  0  0  0  0  0  0  0  0  0
   -0.4772   -8.4563    1.8752 H   0  0  0  0  0  0  0  0  0  0  0  0
   -0.6947  -10.1658    2.0676 H   0  0  0  0  0  0  0  0  0  0  0  0
   -1.4452   -9.7832    4.1827 H   0  0  0  0  0  0  0  0  0  0  0  0
    1.0840  -10.4444    5.0663 H   0  0  0  0  0  0  0  0  0  0  0  0
    1.0924  -12.4976    3.9288 H   0  0  0  0  0  0  0  0  0  0  0  0
    3.3871   -9.9015    4.4876 H   0  0  0  0  0  0  0  0  0  0  0  0
    2.9246  -12.5505    3.5054 H   0  0  0  0  0  0  0  0  0  0  0  0
  1  2  1  0
  1 21  1  0
  1 20  1  0
  2  3  2  0
  2  7  1  0
  3  4  1  0
  4 22  1  0
  4  5  2  0
  5  6  1  0
  6 10  1  0
  6  7  2  0
  7  8  1  0
  8  9  2  0
  9 23  1  0
  9 10  1  0
 10 11  1  0
 11 18  1  0
 11 12  1  0
 11 24  1  6
 12 13  1  0
 13 14  1  0
 13 16  1  0
 13 25  1  1
 14 15  1  0
 14 26  1  0
 14 27  1  0
 15 28  1  0
 16 17  1  0
 16 18  1  0
 16 29  1  1
 17 30  1  0
 18 19  1  0
 18 31  1  1
 19 32  1  0
M  END
>  <i_m_ct_stereo_status>  (101) 
1

>  <s_m_source_file>  (101) 
/var/tmp/pbs.5076255.sched01/tmpon41x2vr/43t03z2zi4.sdf

>  <i_m_source_file_index>  (101) 
3

>  <i_lp_mmshare_version>  (101) 
48012

>  <i_f3d_flags>  (101) 
0

>  <s_epik_input>  (101) 
bjFbY0hdW25IXVxjKD1OXFtIXSljKGMxMiluW2NIXW4yW0NAQEhdM09bQ0BASF0oW0NIMl1bT0hdKVtDQEBIXShbT0hdKVtDQEhdM1tPSF0=

>  <s_epik_cmdline>  (101) 
J2VwaWtfcHl0aG9uJywgJy1waHQnLCAnMi4wJywgJy1waCcsICc3LjAnLCAnLXRuJywgJzgnLCAnLW1hJywgJzIwMCcsICctaW1hZScsICc8aW5maWxlLm1hZT4nLCAnLW9tYWUnLCAnPG91dGZpbGUubWFlPic=

>  <r_lp_tautomer_probability>  (101) 
1

>  <r_epik_Ionization_Penalty>  (101) 
0.000428445

>  <r_epik_Ionization_Penalty_Charging>  (101) 
0

>  <r_epik_Ionization_Penalty_Neutral>  (101) 
0.000428445

>  <r_epik_State_Penalty>  (101) 
-0

>  <r_epik_Charging_Adjusted_Penalty>  (101) 
0

>  <i_epik_Tot_Q>  (101) 
0

>  <i_epik_Tot_abs_Q>  (101) 
0

>  <s_epik_Chemistry_Notes>  (101) 
This compound contains an acetal/aminal-like group ( X-CH(R)-Y where X, Y are N, S, or O) that may be acid/base labile, releasing an aldehyde.

>  <s_lp_Force_Field>  (101) 
OPLS3e

>  <r_lp_Energy>  (101) 
18.2998

>  <b_lp_Chiralities_Consistent>  (101) 
1

>  <s_lp_Variant>  (101) 
25:0-1

>  <s_i_glide_gridfile>  (101) 
pfpi4k_grid

>  <i_i_glide_lignum>  (101) 
3

>  <i_i_glide_rotatable_bonds>  (101) 
5

>  <r_i_docking_score>  (101) 
-3.92563

>  <r_i_glide_ligand_efficiency>  (101) 
-0.206612

>  <r_i_glide_ligand_efficiency_sa>  (101) 
-0.551324

>  <r_i_glide_ligand_efficiency_ln>  (101) 
-0.995232

>  <r_i_glide_gscore>  (101) 
-3.92563

>  <r_i_glide_lipo>  (101) 
-0.195757

>  <r_i_glide_hbond>  (101) 
-0.00373387

>  <r_i_glide_metal>  (101) 
-0

>  <r_i_glide_rewards>  (101) 
-1.64771

>  <r_i_glide_evdw>  (101) 
-19.888

>  <r_i_glide_ecoul>  (101) 
-9.27148

>  <r_i_glide_erotb>  (101) 
0.499276

>  <r_i_glide_esite>  (101) 
-0.192582

>  <r_i_glide_emodel>  (101) 
-37.2661

>  <r_i_glide_energy>  (101) 
-29.1595

>  <r_i_glide_einternal>  (101) 
2.49117

>  <r_i_glide_intrahb_reward>  (101) 
-0

>  <i_i_glide_confnum>  (101) 
6

>  <i_i_glide_posenum>  (101) 
2

>  <r_i_glide_eff_state_penalty>  (101) 
0

>  <ligand_id>  (101) 
25

>  <original_smiles>  (101) 
N=c1[nH]cnc2c1ncn2C1OC(CO)C(O)C1O

>  <smiles>  (101) 
[H]OC([H])([H])C1([H])OC([H])(n2c([H])nc3c(N([H])[H])nc([H])nc32)C([H])(O[H])C1([H])O[H]

$$$$
25:0:2
     RDKit          3D

 32 34  0  0  1  0  0  0  0  0999 V2000
    7.8095   -7.0506    1.3335 N   0  0  0  0  0  0  0  0  0  0  0  0
    6.5208   -7.2123    1.6533 C   0  0  0  0  0  0  0  0  0  0  0  0
    5.7059   -6.1380    1.6038 N   0  0  0  0  0  0  0  0  0  0  0  0
    4.4123   -6.2851    1.9207 C   0  0  0  0  0  0  0  0  0  0  0  0
    3.7636   -7.3930    2.2893 N   0  0  0  0  0  0  0  0  0  0  0  0
    4.5834   -8.4842    2.3072 C   0  0  0  0  0  0  0  0  0  0  0  0
    5.9762   -8.4676    2.0085 C   0  0  0  0  0  0  0  0  0  0  0  0
    6.5023   -9.7504    2.1380 N   0  0  0  0  0  0  0  0  0  0  0  0
    5.4689  -10.4816    2.4674 C   0  0  0  0  0  0  0  0  0  0  0  0
    4.2760   -9.7988    2.5917 N   0  0  0  0  0  0  0  0  0  0  0  0
    2.9552  -10.3823    2.9698 C   0  0  2  0  0  0  0  0  0  0  0  0
    1.9341   -9.6513    2.3625 O   0  0  0  0  0  0  0  0  0  0  0  0
    0.9387   -9.2949    3.3276 C   0  0  1  0  0  0  0  0  0  0  0  0
   -0.4667   -9.4172    2.7104 C   0  0  0  0  0  0  0  0  0  0  0  0
   -1.4595   -9.0239    3.6460 O   0  0  0  0  0  0  0  0  0  0  0  0
    1.2348  -10.1801    4.5523 C   0  0  1  0  0  0  0  0  0  0  0  0
    0.6101  -11.4484    4.4318 O   0  0  0  0  0  0  0  0  0  0  0  0
    2.7497  -10.3019    4.4894 C   0  0  1  0  0  0  0  0  0  0  0  0
    3.2049  -11.4428    5.1981 O   0  0  0  0  0  0  0  0  0  0  0  0
    8.1409   -6.1344    1.0866 H   0  0  0  0  0  0  0  0  0  0  0  0
    8.4388   -7.8463    1.3731 H   0  0  0  0  0  0  0  0  0  0  0  0
    3.8045   -5.3913    1.8493 H   0  0  0  0  0  0  0  0  0  0  0  0
    5.5379  -11.5490    2.6334 H   0  0  0  0  0  0  0  0  0  0  0  0
    2.9496  -11.3916    2.5566 H   0  0  0  0  0  0  0  0  0  0  0  0
    1.1382   -8.2552    3.6001 H   0  0  0  0  0  0  0  0  0  0  0  0
   -0.5385   -8.7766    1.8316 H   0  0  0  0  0  0  0  0  0  0  0  0
   -0.6320  -10.4289    2.3477 H   0  0  0  0  0  0  0  0  0  0  0  0
   -1.6385   -9.7480    4.2496 H   0  0  0  0  0  0  0  0  0  0  0  0
    0.9015   -9.7196    5.4847 H   0  0  0  0  0  0  0  0  0  0  0  0
   -0.3297  -11.3555    4.5805 H   0  0  0  0  0  0  0  0  0  0  0  0
    3.2151   -9.3934    4.8756 H   0  0  0  0  0  0  0  0  0  0  0  0
    2.6025  -11.6367    5.9084 H   0  0  0  0  0  0  0  0  0  0  0  0
  1  2  1  0
  1 21  1  0
  1 20  1  0
  2  3  2  0
  2  7  1  0
  3  4  1  0
  4 22  1  0
  4  5  2  0
  5  6  1  0
  6 10  1  0
  6  7  2  0
  7  8  1  0
  8  9  2  0
  9 23  1  0
  9 10  1  0
 10 11  1  0
 11 18  1  0
 11 12  1  0
 11 24  1  6
 12 13  1  0
 13 14  1  0
 13 16  1  0
 13 25  1  1
 14 15  1  0
 14 26  1  0
 14 27  1  0
 15 28  1  0
 16 17  1  0
 16 18  1  0
 16 29  1  1
 17 30  1  0
 18 19  1  0
 18 31  1  1
 19 32  1  0
M  END
>  <i_m_ct_stereo_status>  (102) 
1

>  <s_m_source_file>  (102) 
/var/tmp/pbs.5076255.sched01/tmpon41x2vr/43t03z2zi4.sdf

>  <i_m_source_file_index>  (102) 
3

>  <i_lp_mmshare_version>  (102) 
48012

>  <i_f3d_flags>  (102) 
0

>  <s_epik_input>  (102) 
bjFbY0hdW25IXVxjKD1OXFtIXSljKGMxMiluW2NIXW4yW0NAQEhdM09bQ0BASF0oW0NIMl1bT0hdKVtDQEBIXShbT0hdKVtDQEhdM1tPSF0=

>  <s_epik_cmdline>  (102) 
J2VwaWtfcHl0aG9uJywgJy1waHQnLCAnMi4wJywgJy1waCcsICc3LjAnLCAnLXRuJywgJzgnLCAnLW1hJywgJzIwMCcsICctaW1hZScsICc8aW5maWxlLm1hZT4nLCAnLW9tYWUnLCAnPG91dGZpbGUubWFlPic=

>  <r_lp_tautomer_probability>  (102) 
1

>  <r_epik_Ionization_Penalty>  (102) 
0.000428445

>  <r_epik_Ionization_Penalty_Charging>  (102) 
0

>  <r_epik_Ionization_Penalty_Neutral>  (102) 
0.000428445

>  <r_epik_State_Penalty>  (102) 
-0

>  <r_epik_Charging_Adjusted_Penalty>  (102) 
0

>  <i_epik_Tot_Q>  (102) 
0

>  <i_epik_Tot_abs_Q>  (102) 
0

>  <s_epik_Chemistry_Notes>  (102) 
This compound contains an acetal/aminal-like group ( X-CH(R)-Y where X, Y are N, S, or O) that may be acid/base labile, releasing an aldehyde.

>  <s_lp_Force_Field>  (102) 
OPLS3e

>  <r_lp_Energy>  (102) 
18.2998

>  <b_lp_Chiralities_Consistent>  (102) 
1

>  <s_lp_Variant>  (102) 
25:0-1

>  <s_i_glide_gridfile>  (102) 
pfpi4k_grid

>  <i_i_glide_lignum>  (102) 
3

>  <i_i_glide_rotatable_bonds>  (102) 
5

>  <r_i_docking_score>  (102) 
-3.84522

>  <r_i_glide_ligand_efficiency>  (102) 
-0.20238

>  <r_i_glide_ligand_efficiency_sa>  (102) 
-0.540032

>  <r_i_glide_ligand_efficiency_ln>  (102) 
-0.974847

>  <r_i_glide_gscore>  (102) 
-3.84522

>  <r_i_glide_lipo>  (102) 
-0.140289

>  <r_i_glide_hbond>  (102) 
-0.010129

>  <r_i_glide_metal>  (102) 
-0

>  <r_i_glide_rewards>  (102) 
-1.62957

>  <r_i_glide_evdw>  (102) 
-19.7499

>  <r_i_glide_ecoul>  (102) 
-9.29844

>  <r_i_glide_erotb>  (102) 
0.499276

>  <r_i_glide_esite>  (102) 
-0.182252

>  <r_i_glide_emodel>  (102) 
-36.7757

>  <r_i_glide_energy>  (102) 
-29.0483

>  <r_i_glide_einternal>  (102) 
2.51135

>  <r_i_glide_intrahb_reward>  (102) 
-0

>  <i_i_glide_confnum>  (102) 
6

>  <i_i_glide_posenum>  (102) 
18

>  <r_i_glide_eff_state_penalty>  (102) 
0

>  <ligand_id>  (102) 
25

>  <original_smiles>  (102) 
N=c1[nH]cnc2c1ncn2C1OC(CO)C(O)C1O

>  <smiles>  (102) 
[H]OC([H])([H])C1([H])OC([H])(n2c([H])nc3c(N([H])[H])nc([H])nc32)C([H])(O[H])C1([H])O[H]

$$$$
26:0:0
     RDKit          3D

 42 45  0  0  1  0  0  0  0  0999 V2000
    4.3324   -0.7822   -2.6917 C   0  0  0  0  0  0  0  0  0  0  0  0
    4.3210   -1.5460   -1.5814 C   0  0  0  0  0  0  0  0  0  0  0  0
    4.6502   -0.9341   -0.1792 C   0  0  1  0  0  0  0  0  0  0  0  0
    3.5167   -0.5602    0.8936 C   0  0  0  0  0  0  0  0  0  0  0  0
    3.1484   -1.5888    2.0898 C   0  0  1  0  0  0  0  0  0  0  0  0
    1.7616   -1.8639    2.0702 O   0  0  0  0  0  0  0  0  0  0  0  0
    4.0150   -2.8982    2.0681 C   0  0  1  0  0  0  0  0  0  0  0  0
    3.9033   -4.1756    2.8879 C   0  0  0  0  0  0  0  0  0  0  0  0
    2.9675   -4.1994    4.0797 C   0  0  0  0  0  0  0  0  0  0  0  0
    4.7389   -5.2039    2.5740 C   0  0  0  0  0  0  0  0  0  0  0  0
    5.6682   -5.2093    1.3344 C   0  0  1  0  0  0  0  0  0  0  0  0
    5.9651   -6.5371    0.9671 O   0  0  0  0  0  0  0  0  0  0  0  0
    4.8646   -4.5241    0.2122 C   0  0  2  0  0  0  0  0  0  0  0  0
    5.1336   -4.1554   -1.2913 C   0  0  0  0  0  0  0  0  0  0  0  0
    3.9899   -3.0805   -1.6182 C   0  0  2  0  0  0  0  0  0  0  0  0
    3.2719   -3.4464   -2.7892 O   0  0  0  0  0  0  0  0  0  0  0  0
    3.1594   -3.1946   -0.3732 C   0  0  0  0  0  0  0  0  0  0  0  0
    4.3659   -3.1763    0.6446 C   0  0  1  0  0  0  0  0  0  0  0  0
    5.3927   -2.0493    0.4017 C   0  0  0  0  0  0  0  0  0  0  0  0
    6.7232   -2.0219    0.6304 C   0  0  0  0  0  0  0  0  0  0  0  0
    4.1176   -1.1960   -3.6630 H   0  0  0  0  0  0  0  0  0  0  0  0
    4.5754    0.2683   -2.6420 H   0  0  0  0  0  0  0  0  0  0  0  0
    5.3052   -0.0750   -0.3138 H   0  0  0  0  0  0  0  0  0  0  0  0
    3.8394    0.3619    1.3754 H   0  0  0  0  0  0  0  0  0  0  0  0
    2.6179   -0.2550    0.3615 H   0  0  0  0  0  0  0  0  0  0  0  0
    3.3249   -1.0785    3.0381 H   0  0  0  0  0  0  0  0  0  0  0  0
    1.3965   -1.4378    1.3087 H   0  0  0  0  0  0  0  0  0  0  0  0
    4.9105   -2.5415    2.5846 H   0  0  0  0  0  0  0  0  0  0  0  0
    3.1538   -3.3437    4.7296 H   0  0  0  0  0  0  0  0  0  0  0  0
    3.1079   -5.1107    4.6643 H   0  0  0  0  0  0  0  0  0  0  0  0
    1.9290   -4.1647    3.7479 H   0  0  0  0  0  0  0  0  0  0  0  0
    4.7319   -6.1093    3.1650 H   0  0  0  0  0  0  0  0  0  0  0  0
    6.5987   -4.7057    1.5825 H   0  0  0  0  0  0  0  0  0  0  0  0
    6.5073   -6.9213    1.6344 H   0  0  0  0  0  0  0  0  0  0  0  0
    4.0580   -5.2586    0.1522 H   0  0  0  0  0  0  0  0  0  0  0  0
    6.1347   -3.7620   -1.4821 H   0  0  0  0  0  0  0  0  0  0  0  0
    5.0155   -5.0494   -1.9048 H   0  0  0  0  0  0  0  0  0  0  0  0
    3.0243   -4.3721   -2.7206 H   0  0  0  0  0  0  0  0  0  0  0  0
    2.4335   -2.3919   -0.3226 H   0  0  0  0  0  0  0  0  0  0  0  0
    2.5252   -4.0794   -0.3400 H   0  0  0  0  0  0  0  0  0  0  0  0
    7.3000   -1.1341    0.4095 H   0  0  0  0  0  0  0  0  0  0  0  0
    7.2657   -2.8499    1.0544 H   0  0  0  0  0  0  0  0  0  0  0  0
  1  2  2  0
  1 21  1  0
  1 22  1  0
  2 15  1  0
  2  3  1  0
  3 19  1  0
  3  4  1  0
  3 23  1  6
  4  5  1  0
  4 24  1  0
  4 25  1  0
  5  6  1  0
  5  7  1  0
  5 26  1  1
  6 27  1  0
  7 18  1  0
  7  8  1  0
  7 28  1  1
  8  9  1  0
  8 10  2  0
  9 29  1  0
  9 30  1  0
  9 31  1  0
 10 11  1  0
 10 32  1  0
 11 12  1  0
 11 13  1  0
 11 33  1  1
 12 34  1  0
 13 18  1  0
 13 14  1  0
 13 35  1  6
 14 15  1  0
 14 36  1  0
 14 37  1  0
 15 16  1  6
 15 17  1  0
 16 38  1  0
 18 17  1  6
 17 39  1  0
 17 40  1  0
 18 19  1  0
 19 20  2  0
 20 41  1  0
 20 42  1  0
M  END
>  <i_m_ct_stereo_status>  (103) 
1

>  <s_m_source_file>  (103) 
/var/tmp/pbs.5076255.sched01/tmpon41x2vr/43t03z2zi4.sdf

>  <i_m_source_file_index>  (103) 
4

>  <i_lp_mmshare_version>  (103) 
48012

>  <i_f3d_flags>  (103) 
0

>  <s_epik_input>  (103) 
W0NAXTEyM1tDQEhdNFtDQEhdKFtPSF0pW0NIMl1bQ0BASF0oQzM9W0NIMl0pQyg9W0NIMl0pW0NAXShbT0hdKShbQ0gyXTIpW0NIMl1bQ0BIXTFbQ0BIXShbT0hdKVtDSF09QzRbQ0gzXQ==

>  <s_epik_cmdline>  (103) 
J2VwaWtfcHl0aG9uJywgJy1waHQnLCAnMi4wJywgJy1waCcsICc3LjAnLCAnLXRuJywgJzgnLCAnLW1hJywgJzIwMCcsICctaW1hZScsICc8aW5maWxlLm1hZT4nLCAnLW9tYWUnLCAnPG91dGZpbGUubWFlPic=

>  <r_lp_tautomer_probability>  (103) 
1

>  <r_epik_Ionization_Penalty>  (103) 
4.00458e-07

>  <r_epik_Ionization_Penalty_Charging>  (103) 
0

>  <r_epik_Ionization_Penalty_Neutral>  (103) 
4.00458e-07

>  <r_epik_State_Penalty>  (103) 
-0

>  <r_epik_Charging_Adjusted_Penalty>  (103) 
0

>  <i_epik_Tot_Q>  (103) 
0

>  <i_epik_Tot_abs_Q>  (103) 
0

>  <s_lp_Force_Field>  (103) 
OPLS3e

>  <r_lp_Energy>  (103) 
118.878

>  <b_lp_Chiralities_Consistent>  (103) 
1

>  <s_lp_Variant>  (103) 
26:0-1

>  <s_i_glide_gridfile>  (103) 
pfpi4k_grid

>  <i_i_glide_lignum>  (103) 
4

>  <i_i_glide_rotatable_bonds>  (103) 
3

>  <r_i_docking_score>  (103) 
-4.12125

>  <r_i_glide_ligand_efficiency>  (103) 
-0.206063

>  <r_i_glide_ligand_efficiency_sa>  (103) 
-0.55934

>  <r_i_glide_ligand_efficiency_ln>  (103) 
-1.03141

>  <r_i_glide_gscore>  (103) 
-4.12125

>  <r_i_glide_lipo>  (103) 
-0.268231

>  <r_i_glide_hbond>  (103) 
-0.398991

>  <r_i_glide_metal>  (103) 
-0

>  <r_i_glide_rewards>  (103) 
-1.53849

>  <r_i_glide_evdw>  (103) 
-21.4958

>  <r_i_glide_ecoul>  (103) 
-5.60502

>  <r_i_glide_erotb>  (103) 
0

>  <r_i_glide_esite>  (103) 
0

>  <r_i_glide_emodel>  (103) 
-33.3221

>  <r_i_glide_energy>  (103) 
-27.1008

>  <r_i_glide_einternal>  (103) 
1.96897

>  <r_i_glide_intrahb_reward>  (103) 
-0

>  <i_i_glide_confnum>  (103) 
1

>  <i_i_glide_posenum>  (103) 
22

>  <r_i_glide_eff_state_penalty>  (103) 
0

>  <ligand_id>  (103) 
26

>  <original_smiles>  (103) 
C=C1C2CC(O)C3C(C)=CC(O)C4CC1(O)CC43C2=C

>  <smiles>  (103) 
[H]OC1([H])C([H])=C(C([H])([H])[H])C2([H])C([H])(O[H])C([H])([H])C3([H])C(=C([H])[H])C4(O[H])C([H])([H])C1([H])C2(C3=C([H])[H])C4([H])[H]

$$$$
26:0:1
     RDKit          3D

 42 45  0  0  1  0  0  0  0  0999 V2000
    4.4271   -0.3895   -2.7153 C   0  0  0  0  0  0  0  0  0  0  0  0
    4.4487   -1.1613   -1.6177 C   0  0  0  0  0  0  0  0  0  0  0  0
    5.1497   -0.7212   -0.2931 C   0  0  1  0  0  0  0  0  0  0  0  0
    4.3219   -0.1714    0.9644 C   0  0  0  0  0  0  0  0  0  0  0  0
    3.9495   -1.1309    2.2070 C   0  0  1  0  0  0  0  0  0  0  0  0
    2.5565   -1.0930    2.4479 O   0  0  0  0  0  0  0  0  0  0  0  0
    4.4893   -2.5894    2.0223 C   0  0  1  0  0  0  0  0  0  0  0  0
    4.2259   -3.8468    2.8350 C   0  0  0  0  0  0  0  0  0  0  0  0
    3.5433   -3.7085    4.1798 C   0  0  0  0  0  0  0  0  0  0  0  0
    4.7240   -5.0223    2.3544 C   0  0  0  0  0  0  0  0  0  0  0  0
    5.3862   -5.1707    0.9602 C   0  0  1  0  0  0  0  0  0  0  0  0
    5.2979   -6.5066    0.5273 O   0  0  0  0  0  0  0  0  0  0  0  0
    4.5923   -4.2598    0.0117 C   0  0  2  0  0  0  0  0  0  0  0  0
    4.6819   -3.8647   -1.5066 C   0  0  0  0  0  0  0  0  0  0  0  0
    3.7617   -2.5592   -1.5939 C   0  0  2  0  0  0  0  0  0  0  0  0
    2.7639   -2.6605   -2.5893 O   0  0  0  0  0  0  0  0  0  0  0  0
    3.1645   -2.5507   -0.2172 C   0  0  0  0  0  0  0  0  0  0  0  0
    4.5053   -2.8677    0.5540 C   0  0  1  0  0  0  0  0  0  0  0  0
    5.7132   -1.9976    0.1402 C   0  0  0  0  0  0  0  0  0  0  0  0
    7.0283   -2.2898    0.1175 C   0  0  0  0  0  0  0  0  0  0  0  0
    3.9445   -0.6967   -3.6295 H   0  0  0  0  0  0  0  0  0  0  0  0
    4.9217    0.5648   -2.7291 H   0  0  0  0  0  0  0  0  0  0  0  0
    5.9729   -0.0427   -0.5118 H   0  0  0  0  0  0  0  0  0  0  0  0
    5.0074    0.5298    1.4022 H   0  0  0  0  0  0  0  0  0  0  0  0
    3.4609    0.4110    0.6289 H   0  0  0  0  0  0  0  0  0  0  0  0
    4.4245   -0.7146    3.0985 H   0  0  0  0  0  0  0  0  0  0  0  0
    2.1106   -1.2600    1.6284 H   0  0  0  0  0  0  0  0  0  0  0  0
    5.5227   -2.4701    2.3662 H   0  0  0  0  0  0  0  0  0  0  0  0
    4.0417   -2.9513    4.7871 H   0  0  0  0  0  0  0  0  0  0  0  0
    3.5653   -4.6568    4.7187 H   0  0  0  0  0  0  0  0  0  0  0  0
    2.5020   -3.4138    4.0426 H   0  0  0  0  0  0  0  0  0  0  0  0
    4.6208   -5.9344    2.9266 H   0  0  0  0  0  0  0  0  0  0  0  0
    6.4373   -4.9093    1.0514 H   0  0  0  0  0  0  0  0  0  0  0  0
    4.4533   -6.6462    0.1273 H   0  0  0  0  0  0  0  0  0  0  0  0
    3.6338   -4.7770    0.0897 H   0  0  0  0  0  0  0  0  0  0  0  0
    5.6976   -3.6847   -1.8678 H   0  0  0  0  0  0  0  0  0  0  0  0
    4.2608   -4.6469   -2.1121 H   0  0  0  0  0  0  0  0  0  0  0  0
    2.0628   -2.0752   -2.3475 H   0  0  0  0  0  0  0  0  0  0  0  0
    2.6564   -1.6134   -0.0219 H   0  0  0  0  0  0  0  0  0  0  0  0
    2.3549   -3.2681   -0.0854 H   0  0  0  0  0  0  0  0  0  0  0  0
    7.7488   -1.5569   -0.2094 H   0  0  0  0  0  0  0  0  0  0  0  0
    7.4256   -3.2421    0.4221 H   0  0  0  0  0  0  0  0  0  0  0  0
  1  2  2  0
  1 21  1  0
  1 22  1  0
  2 15  1  0
  2  3  1  0
  3 19  1  0
  3  4  1  0
  3 23  1  6
  4  5  1  0
  4 24  1  0
  4 25  1  0
  5  6  1  0
  5  7  1  0
  5 26  1  1
  6 27  1  0
  7 18  1  0
  7  8  1  0
  7 28  1  1
  8  9  1  0
  8 10  2  0
  9 29  1  0
  9 30  1  0
  9 31  1  0
 10 11  1  0
 10 32  1  0
 11 12  1  0
 11 13  1  0
 11 33  1  1
 12 34  1  0
 13 18  1  0
 13 14  1  0
 13 35  1  6
 14 15  1  0
 14 36  1  0
 14 37  1  0
 15 16  1  6
 15 17  1  0
 16 38  1  0
 18 17  1  6
 17 39  1  0
 17 40  1  0
 18 19  1  0
 19 20  2  0
 20 41  1  0
 20 42  1  0
M  END
>  <i_m_ct_stereo_status>  (104) 
1

>  <s_m_source_file>  (104) 
/var/tmp/pbs.5076255.sched01/tmpon41x2vr/43t03z2zi4.sdf

>  <i_m_source_file_index>  (104) 
4

>  <i_lp_mmshare_version>  (104) 
48012

>  <i_f3d_flags>  (104) 
0

>  <s_epik_input>  (104) 
W0NAXTEyM1tDQEhdNFtDQEhdKFtPSF0pW0NIMl1bQ0BASF0oQzM9W0NIMl0pQyg9W0NIMl0pW0NAXShbT0hdKShbQ0gyXTIpW0NIMl1bQ0BIXTFbQ0BIXShbT0hdKVtDSF09QzRbQ0gzXQ==

>  <s_epik_cmdline>  (104) 
J2VwaWtfcHl0aG9uJywgJy1waHQnLCAnMi4wJywgJy1waCcsICc3LjAnLCAnLXRuJywgJzgnLCAnLW1hJywgJzIwMCcsICctaW1hZScsICc8aW5maWxlLm1hZT4nLCAnLW9tYWUnLCAnPG91dGZpbGUubWFlPic=

>  <r_lp_tautomer_probability>  (104) 
1

>  <r_epik_Ionization_Penalty>  (104) 
4.00458e-07

>  <r_epik_Ionization_Penalty_Charging>  (104) 
0

>  <r_epik_Ionization_Penalty_Neutral>  (104) 
4.00458e-07

>  <r_epik_State_Penalty>  (104) 
-0

>  <r_epik_Charging_Adjusted_Penalty>  (104) 
0

>  <i_epik_Tot_Q>  (104) 
0

>  <i_epik_Tot_abs_Q>  (104) 
0

>  <s_lp_Force_Field>  (104) 
OPLS3e

>  <r_lp_Energy>  (104) 
118.878

>  <b_lp_Chiralities_Consistent>  (104) 
1

>  <s_lp_Variant>  (104) 
26:0-1

>  <s_i_glide_gridfile>  (104) 
pfpi4k_grid

>  <i_i_glide_lignum>  (104) 
4

>  <i_i_glide_rotatable_bonds>  (104) 
3

>  <r_i_docking_score>  (104) 
-3.17106

>  <r_i_glide_ligand_efficiency>  (104) 
-0.158553

>  <r_i_glide_ligand_efficiency_sa>  (104) 
-0.430379

>  <r_i_glide_ligand_efficiency_ln>  (104) 
-0.793611

>  <r_i_glide_gscore>  (104) 
-3.17106

>  <r_i_glide_lipo>  (104) 
-0.405423

>  <r_i_glide_hbond>  (104) 
-0.0632523

>  <r_i_glide_metal>  (104) 
-0

>  <r_i_glide_rewards>  (104) 
-1.53849

>  <r_i_glide_evdw>  (104) 
-18.3521

>  <r_i_glide_ecoul>  (104) 
-1.64191

>  <r_i_glide_erotb>  (104) 
0

>  <r_i_glide_esite>  (104) 
0

>  <r_i_glide_emodel>  (104) 
-25.0188

>  <r_i_glide_energy>  (104) 
-19.994

>  <r_i_glide_einternal>  (104) 
0.55541

>  <r_i_glide_intrahb_reward>  (104) 
-0

>  <i_i_glide_confnum>  (104) 
1

>  <i_i_glide_posenum>  (104) 
29

>  <r_i_glide_eff_state_penalty>  (104) 
0

>  <ligand_id>  (104) 
26

>  <original_smiles>  (104) 
C=C1C2CC(O)C3C(C)=CC(O)C4CC1(O)CC43C2=C

>  <smiles>  (104) 
[H]OC1([H])C([H])=C(C([H])([H])[H])C2([H])C([H])(O[H])C([H])([H])C3([H])C(=C([H])[H])C4(O[H])C([H])([H])C1([H])C2(C3=C([H])[H])C4([H])[H]

$$$$
26:0:2
     RDKit          3D

 42 45  0  0  1  0  0  0  0  0999 V2000
    5.3158   -2.2661    3.6948 C   0  0  0  0  0  0  0  0  0  0  0  0
    4.9575   -2.2959    2.4114 C   0  0  0  0  0  0  0  0  0  0  0  0
    5.2339   -3.5436    1.5142 C   0  0  1  0  0  0  0  0  0  0  0  0
    4.0999   -4.6318    1.2084 C   0  0  0  0  0  0  0  0  0  0  0  0
    3.2782   -4.5654   -0.1761 C   0  0  1  0  0  0  0  0  0  0  0  0
    1.9010   -4.6330    0.1028 O   0  0  0  0  0  0  0  0  0  0  0  0
    3.6510   -3.3588   -1.1117 C   0  0  1  0  0  0  0  0  0  0  0  0
    3.0175   -2.7888   -2.3806 C   0  0  0  0  0  0  0  0  0  0  0  0
    1.8587   -3.4135   -3.0636 C   0  0  0  0  0  0  0  0  0  0  0  0
    3.5735   -1.7055   -2.9361 C   0  0  0  0  0  0  0  0  0  0  0  0
    4.6343   -0.8634   -2.2649 C   0  0  1  0  0  0  0  0  0  0  0  0
    4.4833    0.3619   -2.9251 O   0  0  0  0  0  0  0  0  0  0  0  0
    4.3043   -0.8765   -0.7397 C   0  0  2  0  0  0  0  0  0  0  0  0
    4.9101   -0.2698    0.5742 C   0  0  0  0  0  0  0  0  0  0  0  0
    4.2004   -1.0945    1.7455 C   0  0  2  0  0  0  0  0  0  0  0  0
    3.6009   -0.2454    2.7100 O   0  0  0  0  0  0  0  0  0  0  0  0
    3.1715   -1.8637    0.9658 C   0  0  0  0  0  0  0  0  0  0  0  0
    4.1430   -2.2700   -0.2188 C   0  0  1  0  0  0  0  0  0  0  0  0
    5.4934   -2.8808    0.2312 C   0  0  0  0  0  0  0  0  0  0  0  0
    6.6978   -2.8226   -0.3563 C   0  0  0  0  0  0  0  0  0  0  0  0
    5.1677   -1.3939    4.3148 H   0  0  0  0  0  0  0  0  0  0  0  0
    5.8209   -3.1179    4.1301 H   0  0  0  0  0  0  0  0  0  0  0  0
    6.1294   -4.0453    1.8799 H   0  0  0  0  0  0  0  0  0  0  0  0
    4.5977   -5.6040    1.1780 H   0  0  0  0  0  0  0  0  0  0  0  0
    3.4227   -4.7085    2.0595 H   0  0  0  0  0  0  0  0  0  0  0  0
    3.4714   -5.5010   -0.7065 H   0  0  0  0  0  0  0  0  0  0  0  0
    1.7040   -3.8325    0.5314 H   0  0  0  0  0  0  0  0  0  0  0  0
    4.5146   -3.7941   -1.6281 H   0  0  0  0  0  0  0  0  0  0  0  0
    2.1535   -4.3902   -3.4072 H   0  0  0  0  0  0  0  0  0  0  0  0
    1.6156   -2.9020   -4.0041 H   0  0  0  0  0  0  0  0  0  0  0  0
    0.9960   -3.4162   -2.3845 H   0  0  0  0  0  0  0  0  0  0  0  0
    3.1600   -1.2987   -3.8420 H   0  0  0  0  0  0  0  0  0  0  0  0
    5.6122   -1.2782   -2.4681 H   0  0  0  0  0  0  0  0  0  0  0  0
    3.6607    0.7569   -2.6732 H   0  0  0  0  0  0  0  0  0  0  0  0
    3.3282   -0.4236   -0.7900 H   0  0  0  0  0  0  0  0  0  0  0  0
    5.9999   -0.2936    0.6301 H   0  0  0  0  0  0  0  0  0  0  0  0
    4.6159    0.7888    0.6310 H   0  0  0  0  0  0  0  0  0  0  0  0
    2.9688    0.3052    2.2698 H   0  0  0  0  0  0  0  0  0  0  0  0
    2.7074   -2.6391    1.5742 H   0  0  0  0  0  0  0  0  0  0  0  0
    2.3080   -1.2525    0.7000 H   0  0  0  0  0  0  0  0  0  0  0  0
    7.5601   -3.2988    0.1003 H   0  0  0  0  0  0  0  0  0  0  0  0
    6.8769   -2.3312   -1.2996 H   0  0  0  0  0  0  0  0  0  0  0  0
  1  2  2  0
  1 21  1  0
  1 22  1  0
  2 15  1  0
  2  3  1  0
  3 19  1  0
  3  4  1  0
  3 23  1  1
  4  5  1  0
  4 24  1  0
  4 25  1  0
  5  6  1  0
  5  7  1  0
  5 26  1  6
  6 27  1  0
  7 18  1  0
  7  8  1  0
  7 28  1  6
  8  9  1  0
  8 10  2  0
  9 29  1  0
  9 30  1  0
  9 31  1  0
 10 11  1  0
 10 32  1  0
 11 12  1  0
 11 13  1  0
 11 33  1  1
 12 34  1  0
 13 18  1  0
 13 14  1  0
 13 35  1  6
 14 15  1  0
 14 36  1  0
 14 37  1  0
 15 16  1  1
 15 17  1  0
 16 38  1  0
 18 17  1  1
 17 39  1  0
 17 40  1  0
 18 19  1  0
 19 20  2  0
 20 41  1  0
 20 42  1  0
M  END
>  <i_m_ct_stereo_status>  (105) 
1

>  <s_m_source_file>  (105) 
/var/tmp/pbs.5076255.sched01/tmpon41x2vr/43t03z2zi4.sdf

>  <i_m_source_file_index>  (105) 
4

>  <i_lp_mmshare_version>  (105) 
48012

>  <i_f3d_flags>  (105) 
0

>  <s_epik_input>  (105) 
W0NAXTEyM1tDQEhdNFtDQEhdKFtPSF0pW0NIMl1bQ0BASF0oQzM9W0NIMl0pQyg9W0NIMl0pW0NAXShbT0hdKShbQ0gyXTIpW0NIMl1bQ0BIXTFbQ0BIXShbT0hdKVtDSF09QzRbQ0gzXQ==

>  <s_epik_cmdline>  (105) 
J2VwaWtfcHl0aG9uJywgJy1waHQnLCAnMi4wJywgJy1waCcsICc3LjAnLCAnLXRuJywgJzgnLCAnLW1hJywgJzIwMCcsICctaW1hZScsICc8aW5maWxlLm1hZT4nLCAnLW9tYWUnLCAnPG91dGZpbGUubWFlPic=

>  <r_lp_tautomer_probability>  (105) 
1

>  <r_epik_Ionization_Penalty>  (105) 
4.00458e-07

>  <r_epik_Ionization_Penalty_Charging>  (105) 
0

>  <r_epik_Ionization_Penalty_Neutral>  (105) 
4.00458e-07

>  <r_epik_State_Penalty>  (105) 
-0

>  <r_epik_Charging_Adjusted_Penalty>  (105) 
0

>  <i_epik_Tot_Q>  (105) 
0

>  <i_epik_Tot_abs_Q>  (105) 
0

>  <s_lp_Force_Field>  (105) 
OPLS3e

>  <r_lp_Energy>  (105) 
118.878

>  <b_lp_Chiralities_Consistent>  (105) 
1

>  <s_lp_Variant>  (105) 
26:0-1

>  <s_i_glide_gridfile>  (105) 
pfpi4k_grid

>  <i_i_glide_lignum>  (105) 
4

>  <i_i_glide_rotatable_bonds>  (105) 
3

>  <r_i_docking_score>  (105) 
-2.86492

>  <r_i_glide_ligand_efficiency>  (105) 
-0.143246

>  <r_i_glide_ligand_efficiency_sa>  (105) 
-0.38883

>  <r_i_glide_ligand_efficiency_ln>  (105) 
-0.716996

>  <r_i_glide_gscore>  (105) 
-2.86492

>  <r_i_glide_lipo>  (105) 
-0.634873

>  <r_i_glide_hbond>  (105) 
-0.198501

>  <r_i_glide_metal>  (105) 
-0

>  <r_i_glide_rewards>  (105) 
-1.53849

>  <r_i_glide_evdw>  (105) 
3.42033

>  <r_i_glide_ecoul>  (105) 
-4.42718

>  <r_i_glide_erotb>  (105) 
0

>  <r_i_glide_esite>  (105) 
0

>  <r_i_glide_emodel>  (105) 
-3.93089

>  <r_i_glide_energy>  (105) 
-1.00684

>  <r_i_glide_einternal>  (105) 
0.274629

>  <r_i_glide_intrahb_reward>  (105) 
-0

>  <i_i_glide_confnum>  (105) 
1

>  <i_i_glide_posenum>  (105) 
16

>  <r_i_glide_eff_state_penalty>  (105) 
0

>  <ligand_id>  (105) 
26

>  <original_smiles>  (105) 
C=C1C2CC(O)C3C(C)=CC(O)C4CC1(O)CC43C2=C

>  <smiles>  (105) 
[H]OC1([H])C([H])=C(C([H])([H])[H])C2([H])C([H])(O[H])C([H])([H])C3([H])C(=C([H])[H])C4(O[H])C([H])([H])C1([H])C2(C3=C([H])[H])C4([H])[H]

$$$$
27:0:0
     RDKit          3D

 78 82  0  0  1  0  0  0  0  0999 V2000
   -0.6597    1.9289    5.9957 C   0  0  0  0  0  0  0  0  0  0  0  0
   -0.9705    0.4394    5.9313 C   0  0  0  0  0  0  0  0  0  0  0  0
   -2.1184    0.0123    6.0756 O   0  0  0  0  0  0  0  0  0  0  0  0
    0.1316   -0.3048    5.7275 O   0  0  0  0  0  0  0  0  0  0  0  0
    0.0289   -1.7202    5.5692 C   0  0  2  0  0  0  0  0  0  0  0  0
   -0.1027   -2.4850    6.8936 C   0  0  0  0  0  0  0  0  0  0  0  0
    0.8962   -3.5991    6.7630 C   0  0  0  0  0  0  0  0  0  0  0  0
    1.5901   -4.1311    7.7666 C   0  0  0  0  0  0  0  0  0  0  0  0
    2.7215   -5.1083    7.5369 C   0  0  0  0  0  0  0  0  0  0  0  0
    2.5897   -5.8945    6.1925 C   0  0  1  0  0  0  0  0  0  0  0  0
    1.3208   -6.7919    6.3338 C   0  0  0  0  0  0  0  0  0  0  0  0
    2.3769   -4.8310    5.0360 C   0  0  1  0  0  0  0  0  0  0  0  0
    2.2705   -5.5975    3.6920 C   0  0  1  0  0  0  0  0  0  0  0  0
    2.0565   -4.7807    2.5636 O   0  0  0  0  0  0  0  0  0  0  0  0
    3.5635   -6.3702    3.4278 C   0  0  0  0  0  0  0  0  0  0  0  0
    3.7705   -7.4354    4.4891 C   0  0  0  0  0  0  0  0  0  0  0  0
    3.8395   -8.7813    4.2115 C   0  0  0  0  0  0  0  0  0  0  0  0
    3.5901   -9.4969    2.8673 C   0  0  0  0  0  0  0  0  0  0  0  0
    2.2422   -9.1130    2.2077 C   0  0  0  0  0  0  0  0  0  0  0  0
    4.7513   -9.2497    1.8651 C   0  0  0  0  0  0  0  0  0  0  0  0
    3.4444  -11.0114    3.2429 C   0  0  1  0  0  0  0  0  0  0  0  0
    4.5835  -11.7698    2.8808 O   0  0  0  0  0  0  0  0  0  0  0  0
    3.2134  -11.0070    4.7580 C   0  0  1  0  0  0  0  0  0  0  0  0
    3.4763  -12.2286    5.4180 O   0  0  0  0  0  0  0  0  0  0  0  0
    4.0229   -9.8199    5.2959 C   0  0  1  0  0  0  0  0  0  0  0  0
    5.5315  -10.1540    5.4406 C   0  0  0  0  0  0  0  0  0  0  0  0
    3.4540   -9.3314    6.6276 C   0  0  0  0  0  0  0  0  0  0  0  0
    4.0119   -7.9541    7.0083 C   0  0  0  0  0  0  0  0  0  0  0  0
    3.8597   -6.8372    5.9132 C   0  0  2  0  0  0  0  0  0  0  0  0
    5.1841   -6.0268    6.0140 C   0  0  0  0  0  0  0  0  0  0  0  0
    1.1844   -3.8313    5.2968 C   0  0  2  0  0  0  0  0  0  0  0  0
    1.2429   -2.3362    4.8133 C   0  0  0  0  0  0  0  0  0  0  0  0
    1.0356   -2.1052    3.3100 C   0  0  0  0  0  0  0  0  0  0  0  0
    2.5672   -1.6414    5.2293 C   0  0  0  0  0  0  0  0  0  0  0  0
   -0.2526    2.2748    5.0437 H   0  0  0  0  0  0  0  0  0  0  0  0
    0.0809    2.1262    6.7714 H   0  0  0  0  0  0  0  0  0  0  0  0
   -1.5575    2.5076    6.2216 H   0  0  0  0  0  0  0  0  0  0  0  0
   -0.8612   -1.9406    4.9734 H   0  0  0  0  0  0  0  0  0  0  0  0
    0.1168   -1.8703    7.7686 H   0  0  0  0  0  0  0  0  0  0  0  0
   -1.1035   -2.9057    6.9809 H   0  0  0  0  0  0  0  0  0  0  0  0
    1.4201   -3.8179    8.7880 H   0  0  0  0  0  0  0  0  0  0  0  0
    3.6366   -4.5215    7.5647 H   0  0  0  0  0  0  0  0  0  0  0  0
    2.7458   -5.7647    8.4044 H   0  0  0  0  0  0  0  0  0  0  0  0
    1.2342   -7.5338    5.5380 H   0  0  0  0  0  0  0  0  0  0  0  0
    0.3923   -6.2186    6.3321 H   0  0  0  0  0  0  0  0  0  0  0  0
    1.3211   -7.3433    7.2775 H   0  0  0  0  0  0  0  0  0  0  0  0
    3.2745   -4.2210    5.0039 H   0  0  0  0  0  0  0  0  0  0  0  0
    1.4383   -6.2995    3.7122 H   0  0  0  0  0  0  0  0  0  0  0  0
    2.7500   -4.1471    2.5066 H   0  0  0  0  0  0  0  0  0  0  0  0
    3.5828   -6.7646    2.4228 H   0  0  0  0  0  0  0  0  0  0  0  0
    4.4128   -5.6888    3.4511 H   0  0  0  0  0  0  0  0  0  0  0  0
    2.0200   -9.7887    1.3814 H   0  0  0  0  0  0  0  0  0  0  0  0
    2.2118   -8.1173    1.7804 H   0  0  0  0  0  0  0  0  0  0  0  0
    1.4253   -9.1948    2.9218 H   0  0  0  0  0  0  0  0  0  0  0  0
    4.6548   -9.8747    0.9718 H   0  0  0  0  0  0  0  0  0  0  0  0
    5.7227   -9.4591    2.3201 H   0  0  0  0  0  0  0  0  0  0  0  0
    4.7895   -8.2240    1.5054 H   0  0  0  0  0  0  0  0  0  0  0  0
    2.6118  -11.5109    2.7369 H   0  0  0  0  0  0  0  0  0  0  0  0
    4.5632  -11.8588    1.9218 H   0  0  0  0  0  0  0  0  0  0  0  0
    2.1508  -10.7970    4.8939 H   0  0  0  0  0  0  0  0  0  0  0  0
    2.8468  -12.3539    6.1232 H   0  0  0  0  0  0  0  0  0  0  0  0
    5.7003  -10.9113    6.2076 H   0  0  0  0  0  0  0  0  0  0  0  0
    6.1196   -9.2722    5.6971 H   0  0  0  0  0  0  0  0  0  0  0  0
    5.9616  -10.5311    4.5160 H   0  0  0  0  0  0  0  0  0  0  0  0
    2.3681   -9.2917    6.5804 H   0  0  0  0  0  0  0  0  0  0  0  0
    3.6760  -10.0541    7.4128 H   0  0  0  0  0  0  0  0  0  0  0  0
    3.5810   -7.6621    7.9646 H   0  0  0  0  0  0  0  0  0  0  0  0
    5.0696   -8.0966    7.2441 H   0  0  0  0  0  0  0  0  0  0  0  0
    5.4302   -5.7610    7.0471 H   0  0  0  0  0  0  0  0  0  0  0  0
    5.1812   -5.1019    5.4385 H   0  0  0  0  0  0  0  0  0  0  0  0
    6.0201   -6.6208    5.6422 H   0  0  0  0  0  0  0  0  0  0  0  0
    0.2799   -4.2901    4.8996 H   0  0  0  0  0  0  0  0  0  0  0  0
    1.9400   -2.2991    2.7364 H   0  0  0  0  0  0  0  0  0  0  0  0
    0.7603   -1.0698    3.1075 H   0  0  0  0  0  0  0  0  0  0  0  0
    0.2365   -2.7361    2.9288 H   0  0  0  0  0  0  0  0  0  0  0  0
    3.4247   -2.0680    4.7056 H   0  0  0  0  0  0  0  0  0  0  0  0
    2.7599   -1.7178    6.3011 H   0  0  0  0  0  0  0  0  0  0  0  0
    2.5546   -0.5805    4.9702 H   0  0  0  0  0  0  0  0  0  0  0  0
  1  2  1  0
  1 35  1  0
  1 36  1  0
  1 37  1  0
  2  3  2  0
  2  4  1  0
  4  5  1  0
  5 32  1  0
  5  6  1  0
  5 38  1  6
  6  7  1  0
  6 39  1  0
  6 40  1  0
  7 31  1  0
  7  8  2  0
  8  9  1  0
  8 41  1  0
  9 10  1  0
  9 42  1  0
  9 43  1  0
 10 29  1  0
 10 11  1  1
 10 12  1  0
 11 44  1  0
 11 45  1  0
 11 46  1  0
 12 13  1  0
 12 31  1  0
 12 47  1  6
 13 14  1  0
 13 15  1  0
 13 48  1  1
 14 49  1  0
 15 16  1  0
 15 50  1  0
 15 51  1  0
 16 29  1  0
 16 17  2  0
 17 25  1  0
 17 18  1  0
 18 19  1  0
 18 20  1  0
 18 21  1  0
 19 52  1  0
 19 53  1  0
 19 54  1  0
 20 55  1  0
 20 56  1  0
 20 57  1  0
 21 22  1  0
 21 23  1  0
 21 58  1  6
 22 59  1  0
 23 24  1  0
 23 25  1  0
 23 60  1  6
 24 61  1  0
 25 26  1  1
 25 27  1  0
 26 62  1  0
 26 63  1  0
 26 64  1  0
 27 28  1  0
 27 65  1  0
 27 66  1  0
 28 29  1  0
 28 67  1  0
 28 68  1  0
 29 30  1  6
 30 69  1  0
 30 70  1  0
 30 71  1  0
 31 32  1  0
 31 72  1  6
 32 33  1  0
 32 34  1  0
 33 73  1  0
 33 74  1  0
 33 75  1  0
 34 76  1  0
 34 77  1  0
 34 78  1  0
M  END
>  <i_m_ct_stereo_status>  (106) 
1

>  <s_m_source_file>  (106) 
/var/tmp/pbs.5076255.sched01/tmpon41x2vr/43t03z2zi4.sdf

>  <i_m_source_file_index>  (106) 
5

>  <i_lp_mmshare_version>  (106) 
48012

>  <i_f3d_flags>  (106) 
0

>  <s_epik_input>  (106) 
W0NIM11DKD1PKU9bQ0BASF0oQzEoW0NIM10pW0NIM10pW0NIMl1DKD1bQ0hdW0NIMl0yKVtDQEBIXTFbQ0BASF0oW0NAXTIzW0NIM10pW0NAQEhdKFtPSF0pW0NIMl1DND1DNVtDQF0oW0NIM10pKFtDQEhdKFtPSF0pW0NASF0oW09IXSlDNShbQ0gzXSlbQ0gzXSlbQ0gyXVtDSDJdW0NAXTM0W0NIM10=

>  <s_epik_cmdline>  (106) 
J2VwaWtfcHl0aG9uJywgJy1waHQnLCAnMi4wJywgJy1waCcsICc3LjAnLCAnLXRuJywgJzgnLCAnLW1hJywgJzIwMCcsICctaW1hZScsICc8aW5maWxlLm1hZT4nLCAnLW9tYWUnLCAnPG91dGZpbGUubWFlPic=

>  <r_lp_tautomer_probability>  (106) 
1

>  <r_epik_Ionization_Penalty>  (106) 
1.21824e-06

>  <r_epik_Ionization_Penalty_Charging>  (106) 
0

>  <r_epik_Ionization_Penalty_Neutral>  (106) 
1.21824e-06

>  <r_epik_State_Penalty>  (106) 
-0

>  <r_epik_Charging_Adjusted_Penalty>  (106) 
0

>  <i_epik_Tot_Q>  (106) 
0

>  <i_epik_Tot_abs_Q>  (106) 
0

>  <s_epik_Chemistry_Notes>  (106) 
This compound has an ester and may undergo hydrolysis at high or low pH.

>  <s_lp_Force_Field>  (106) 
OPLS3e

>  <r_lp_Energy>  (106) 
57.6165

>  <b_lp_Chiralities_Consistent>  (106) 
1

>  <s_lp_Variant>  (106) 
27:0-1

>  <s_i_glide_gridfile>  (106) 
pfpi4k_grid

>  <i_i_glide_lignum>  (106) 
5

>  <i_i_glide_rotatable_bonds>  (106) 
5

>  <r_i_docking_score>  (106) 
-2.95976

>  <r_i_glide_ligand_efficiency>  (106) 
-0.0870517

>  <r_i_glide_ligand_efficiency_sa>  (106) 
-0.282014

>  <r_i_glide_ligand_efficiency_ln>  (106) 
-0.653893

>  <r_i_glide_gscore>  (106) 
-2.95976

>  <r_i_glide_lipo>  (106) 
-0.0702869

>  <r_i_glide_hbond>  (106) 
-0.152367

>  <r_i_glide_metal>  (106) 
-0

>  <r_i_glide_rewards>  (106) 
-0.186432

>  <r_i_glide_evdw>  (106) 
-21.9708

>  <r_i_glide_ecoul>  (106) 
-10.0092

>  <r_i_glide_erotb>  (106) 
0.0905161

>  <r_i_glide_esite>  (106) 
-0.0412743

>  <r_i_glide_emodel>  (106) 
-37.7248

>  <r_i_glide_energy>  (106) 
-31.9799

>  <r_i_glide_einternal>  (106) 
1.35316

>  <r_i_glide_intrahb_reward>  (106) 
-0

>  <i_i_glide_confnum>  (106) 
4

>  <i_i_glide_posenum>  (106) 
36

>  <r_i_glide_eff_state_penalty>  (106) 
0

>  <ligand_id>  (106) 
27

>  <original_smiles>  (106) 
CC(=O)OC1CC2=CCC3(C)C(C(O)CC4=C5C(C)(C)C(O)C(O)C5(C)CCC43C)C2C1(C)C

>  <smiles>  (106) 
[H]OC1([H])C([H])([H])C2=C3C(C([H])([H])[H])(C([H])([H])[H])C([H])(O[H])C([H])(O[H])C3(C([H])([H])[H])C([H])([H])C([H])([H])C2(C([H])([H])[H])C2(C([H])([H])[H])C([H])([H])C([H])=C3C([H])([H])C([H])(OC(=O)C([H])([H])[H])C(C([H])([H])[H])(C([H])([H])[H])C3([H])C12[H]

$$$$
28:0:0
     RDKit          3D

 56 61  0  0  1  0  0  0  0  0999 V2000
    2.7064   -3.6299   -3.6193 C   0  0  0  0  0  0  0  0  0  0  0  0
    4.1169   -3.8167   -3.5461 O   0  0  0  0  0  0  0  0  0  0  0  0
    4.8691   -2.8490   -2.8999 C   0  0  0  0  0  0  0  0  0  0  0  0
    4.5886   -2.2208   -1.7417 C   0  0  0  0  0  0  0  0  0  0  0  0
    5.3773   -1.0028   -1.2509 C   0  0  0  0  0  0  0  0  0  0  0  0
    5.8924   -1.1269    0.1302 N   0  0  0  0  0  0  0  0  0  0  0  0
    7.0722   -2.0181    0.1329 C   0  0  0  0  0  0  0  0  0  0  0  0
    6.9151   -3.5431   -0.1459 C   0  0  0  0  0  0  0  0  0  0  0  0
    6.3494   -4.5460    0.9061 C   0  0  0  0  0  0  0  0  0  0  0  0
    4.8272   -4.8632    1.0646 C   0  0  2  0  0  0  0  0  0  0  0  0
    4.0325   -4.9265   -0.2550 C   0  0  0  0  0  0  0  0  0  0  0  0
    3.0253   -3.7721   -0.2128 C   0  0  2  0  0  0  0  0  0  0  0  0
    3.4164   -2.4481   -0.8550 C   0  0  1  0  0  0  0  0  0  0  0  0
    3.6377   -1.9501    0.5405 C   0  0  2  0  0  0  0  0  0  0  0  0
    4.8571   -1.2997    1.2091 C   0  0  1  0  0  0  0  0  0  0  0  0
    5.4380   -2.0000    2.5077 C   0  0  0  0  0  0  0  0  0  0  0  0
    4.7098   -3.2212    3.0747 C   0  0  0  0  0  0  0  0  0  0  0  0
    3.9341   -4.0311    2.0429 C   0  0  2  0  0  0  0  0  0  0  0  0
    3.1534   -4.9171    2.8797 O   0  0  0  0  0  0  0  0  0  0  0  0
    2.2720   -5.8734    2.2906 C   0  0  0  0  0  0  0  0  0  0  0  0
    3.0198   -3.1181    1.2012 C   0  0  2  0  0  0  0  0  0  0  0  0
    1.8422   -2.4801    1.9949 C   0  0  0  0  0  0  0  0  0  0  0  0
    2.1591   -1.2330    2.9225 C   0  0  0  0  0  0  0  0  0  0  0  0
    3.0862   -0.0210    2.5450 C   0  0  0  0  0  0  0  0  0  0  0  0
    2.7699    1.0852    2.9787 O   0  0  0  0  0  0  0  0  0  0  0  0
    4.2256   -0.1045    1.7881 N   0  0  0  0  0  0  0  0  0  0  0  0
    2.3070   -4.4615   -4.2465 H   0  0  0  0  0  0  0  0  0  0  0  0
    2.4575   -2.7082   -4.1624 H   0  0  0  0  0  0  0  0  0  0  0  0
    2.1781   -3.6500   -2.6963 H   0  0  0  0  0  0  0  0  0  0  0  0
    5.7427   -2.6148   -3.4749 H   0  0  0  0  0  0  0  0  0  0  0  0
    6.1770   -0.8086   -1.9525 H   0  0  0  0  0  0  0  0  0  0  0  0
    4.7026   -0.1473   -1.2947 H   0  0  0  0  0  0  0  0  0  0  0  0
    7.7137   -1.6567   -0.6614 H   0  0  0  0  0  0  0  0  0  0  0  0
    7.6985   -1.8292    1.0026 H   0  0  0  0  0  0  0  0  0  0  0  0
    6.5347   -3.7522   -1.1360 H   0  0  0  0  0  0  0  0  0  0  0  0
    7.9573   -3.8545   -0.2569 H   0  0  0  0  0  0  0  0  0  0  0  0
    6.7804   -5.5026    0.5794 H   0  0  0  0  0  0  0  0  0  0  0  0
    6.8285   -4.3925    1.8699 H   0  0  0  0  0  0  0  0  0  0  0  0
    4.8529   -5.8780    1.4593 H   0  0  0  0  0  0  0  0  0  0  0  0
    4.6659   -4.9241   -1.1486 H   0  0  0  0  0  0  0  0  0  0  0  0
    3.4917   -5.8820   -0.3176 H   0  0  0  0  0  0  0  0  0  0  0  0
    2.0211   -4.0589   -0.4954 H   0  0  0  0  0  0  0  0  0  0  0  0
    2.6024   -1.9507   -1.3532 H   0  0  0  0  0  0  0  0  0  0  0  0
    2.8880   -1.1809    0.3850 H   0  0  0  0  0  0  0  0  0  0  0  0
    6.4521   -2.3134    2.4287 H   0  0  0  0  0  0  0  0  0  0  0  0
    5.5156   -1.2809    3.3067 H   0  0  0  0  0  0  0  0  0  0  0  0
    5.4169   -3.8730    3.5774 H   0  0  0  0  0  0  0  0  0  0  0  0
    4.0274   -2.9119    3.8715 H   0  0  0  0  0  0  0  0  0  0  0  0
    1.7234   -6.3534    3.0920 H   0  0  0  0  0  0  0  0  0  0  0  0
    2.8011   -6.6595    1.7556 H   0  0  0  0  0  0  0  0  0  0  0  0
    1.5486   -5.4142    1.6234 H   0  0  0  0  0  0  0  0  0  0  0  0
    1.0971   -2.1089    1.2917 H   0  0  0  0  0  0  0  0  0  0  0  0
    1.3312   -3.2242    2.5997 H   0  0  0  0  0  0  0  0  0  0  0  0
    1.1813   -0.7641    3.0980 H   0  0  0  0  0  0  0  0  0  0  0  0
    2.4482   -1.5658    3.9144 H   0  0  0  0  0  0  0  0  0  0  0  0
    4.6664    0.7638    1.5862 H   0  0  0  0  0  0  0  0  0  0  0  0
  1  2  1  0
  1 27  1  0
  1 28  1  0
  1 29  1  0
  2  3  1  0
  3  4  2  3
  3 30  1  0
  4 13  1  0
  4  5  1  0
  5  6  1  0
  5 31  1  0
  5 32  1  0
  6 15  1  0
  6  7  1  0
  7  8  1  0
  7 33  1  0
  7 34  1  0
  8  9  1  0
  8 35  1  0
  8 36  1  0
  9 10  1  0
  9 37  1  0
  9 38  1  0
 10 18  1  0
 10 11  1  0
 10 39  1  1
 11 12  1  0
 11 40  1  0
 11 41  1  0
 12 21  1  0
 12 13  1  0
 12 42  1  6
 13 14  1  0
 13 43  1  6
 14 21  1  0
 14 15  1  0
 14 44  1  6
 15 26  1  1
 15 16  1  0
 16 17  1  0
 16 45  1  0
 16 46  1  0
 17 18  1  0
 17 47  1  0
 17 48  1  0
 18 19  1  1
 18 21  1  0
 19 20  1  0
 20 49  1  0
 20 50  1  0
 20 51  1  0
 21 22  1  1
 22 23  1  0
 22 52  1  0
 22 53  1  0
 23 24  1  0
 23 54  1  0
 23 55  1  0
 24 25  2  0
 24 26  1  0
 26 56  1  0
M  END
>  <i_m_ct_stereo_status>  (107) 
1

>  <s_m_source_file>  (107) 
/var/tmp/pbs.5076255.sched01/tmpon41x2vr/43t03z2zi4.sdf

>  <i_m_source_file_index>  (107) 
6

>  <i_lp_mmshare_version>  (107) 
48012

>  <i_f3d_flags>  (107) 
0

>  <s_epik_input>  (107) 
W0NIM11PL1tDSF09QygvW0NIMl1OMVtDQEBdMjM0KVtDQEhdNVtDQEBIXTZbQ0BAXShbQ0BASF0yNSkoW0NIMl1bQ0gyXUMoPU8pW05IXTQpW0NAQF0oW0NIMl1bQ0gyXTMpKE9bQ0gzXSlbQ0BASF0oW0NIMl02KVtDSDJdW0NIMl1bQ0gyXTE=

>  <s_epik_cmdline>  (107) 
J2VwaWtfcHl0aG9uJywgJy1waHQnLCAnMi4wJywgJy1waCcsICc3LjAnLCAnLXRuJywgJzgnLCAnLW1hJywgJzIwMCcsICctaW1hZScsICc8aW5maWxlLm1hZT4nLCAnLW9tYWUnLCAnPG91dGZpbGUubWFlPic=

>  <r_epik_Ionization_Penalty>  (107) 
0.0543932

>  <r_epik_Ionization_Penalty_Charging>  (107) 
0

>  <r_epik_Ionization_Penalty_Neutral>  (107) 
0.0543932

>  <r_epik_State_Penalty>  (107) 
0.0467893

>  <r_epik_Charging_Adjusted_Penalty>  (107) 
0.0467893

>  <i_epik_Tot_Q>  (107) 
0

>  <i_epik_Tot_abs_Q>  (107) 
0

>  <s_lp_Force_Field>  (107) 
OPLS3e

>  <r_lp_Energy>  (107) 
137.183

>  <b_lp_Chiralities_Consistent>  (107) 
1

>  <s_lp_Variant>  (107) 
28:0-1

>  <s_i_glide_gridfile>  (107) 
pfpi4k_grid

>  <i_i_glide_lignum>  (107) 
6

>  <i_i_glide_rotatable_bonds>  (107) 
2

>  <r_i_docking_score>  (107) 
-2.83574

>  <r_i_glide_ligand_efficiency>  (107) 
-0.109067

>  <r_i_glide_ligand_efficiency_sa>  (107) 
-0.32311

>  <r_i_glide_ligand_efficiency_ln>  (107) 
-0.665963

>  <r_i_glide_gscore>  (107) 
-2.83574

>  <r_i_glide_lipo>  (107) 
-0.665432

>  <r_i_glide_hbond>  (107) 
-0.274191

>  <r_i_glide_metal>  (107) 
-0

>  <r_i_glide_rewards>  (107) 
-1.06477

>  <r_i_glide_evdw>  (107) 
-22.5741

>  <r_i_glide_ecoul>  (107) 
0.988629

>  <r_i_glide_erotb>  (107) 
0.149071

>  <r_i_glide_esite>  (107) 
0

>  <r_i_glide_emodel>  (107) 
-22.0501

>  <r_i_glide_energy>  (107) 
-21.5855

>  <r_i_glide_einternal>  (107) 
3.51925

>  <r_i_glide_intrahb_reward>  (107) 
-0

>  <i_i_glide_confnum>  (107) 
2

>  <i_i_glide_posenum>  (107) 
23

>  <r_i_glide_eff_state_penalty>  (107) 
0

>  <ligand_id>  (107) 
28

>  <original_smiles>  (107) 
COC=C1CN2CCCC3CC4C1C1C25CCC3(OC)C41CCC(=O)N5

>  <smiles>  (107) 
[H]C(OC([H])([H])[H])=C1C([H])([H])N2C([H])([H])C([H])([H])C([H])([H])C3([H])C([H])([H])C4([H])C1([H])C1([H])C25N([H])C(=O)C([H])([H])C([H])([H])C41C3(OC([H])([H])[H])C([H])([H])C5([H])[H]

$$$$
28:0:1
     RDKit          3D

 56 61  0  0  1  0  0  0  0  0999 V2000
    2.9060    1.5482    2.6983 C   0  0  0  0  0  0  0  0  0  0  0  0
    2.8090    0.4865    3.6362 O   0  0  0  0  0  0  0  0  0  0  0  0
    2.3129   -0.7273    3.1916 C   0  0  0  0  0  0  0  0  0  0  0  0
    2.5226   -1.3203    1.9999 C   0  0  0  0  0  0  0  0  0  0  0  0
    1.7748   -2.5719    1.5708 C   0  0  0  0  0  0  0  0  0  0  0  0
    2.5933   -3.6648    1.0166 N   0  0  0  0  0  0  0  0  0  0  0  0
    3.1291   -4.4068    2.1673 C   0  0  0  0  0  0  0  0  0  0  0  0
    4.1814   -3.7239    3.0648 C   0  0  0  0  0  0  0  0  0  0  0  0
    5.6255   -3.5384    2.5711 C   0  0  0  0  0  0  0  0  0  0  0  0
    6.0471   -2.3104    1.7242 C   0  0  2  0  0  0  0  0  0  0  0  0
    5.5315   -0.9377    2.1219 C   0  0  0  0  0  0  0  0  0  0  0  0
    4.8144   -0.4472    0.8969 C   0  0  2  0  0  0  0  0  0  0  0  0
    3.3149   -0.7546    0.8556 C   0  0  1  0  0  0  0  0  0  0  0  0
    3.6670   -1.8102   -0.1478 C   0  0  2  0  0  0  0  0  0  0  0  0
    3.4208   -3.3284   -0.1804 C   0  0  1  0  0  0  0  0  0  0  0  0
    4.6436   -4.3333   -0.3094 C   0  0  0  0  0  0  0  0  0  0  0  0
    6.0327   -3.7461   -0.4498 C   0  0  0  0  0  0  0  0  0  0  0  0
    6.1645   -2.3635    0.1704 C   0  0  2  0  0  0  0  0  0  0  0  0
    7.4538   -1.8606   -0.2308 O   0  0  0  0  0  0  0  0  0  0  0  0
    8.6215   -2.6826   -0.0537 C   0  0  0  0  0  0  0  0  0  0  0  0
    5.0743   -1.3806   -0.3125 C   0  0  2  0  0  0  0  0  0  0  0  0
    5.1465   -1.0107   -1.8149 C   0  0  0  0  0  0  0  0  0  0  0  0
    4.6225   -2.0903   -2.8657 C   0  0  0  0  0  0  0  0  0  0  0  0
    3.3146   -2.9748   -2.7334 C   0  0  0  0  0  0  0  0  0  0  0  0
    2.7463   -3.2675   -3.7818 O   0  0  0  0  0  0  0  0  0  0  0  0
    2.8358   -3.4541   -1.5390 N   0  0  0  0  0  0  0  0  0  0  0  0
    3.2378    2.4167    3.2805 H   0  0  0  0  0  0  0  0  0  0  0  0
    1.9055    1.7787    2.3328 H   0  0  0  0  0  0  0  0  0  0  0  0
    3.5526    1.3245    1.8729 H   0  0  0  0  0  0  0  0  0  0  0  0
    1.6463   -1.2142    3.8908 H   0  0  0  0  0  0  0  0  0  0  0  0
    1.0406   -2.8841    2.3379 H   0  0  0  0  0  0  0  0  0  0  0  0
    1.1718   -2.2770    0.7389 H   0  0  0  0  0  0  0  0  0  0  0  0
    2.2705   -4.5773    2.8125 H   0  0  0  0  0  0  0  0  0  0  0  0
    3.4159   -5.4148    1.8910 H   0  0  0  0  0  0  0  0  0  0  0  0
    3.8287   -2.8202    3.5487 H   0  0  0  0  0  0  0  0  0  0  0  0
    4.2727   -4.4094    3.9071 H   0  0  0  0  0  0  0  0  0  0  0  0
    6.1600   -3.3895    3.5033 H   0  0  0  0  0  0  0  0  0  0  0  0
    6.0488   -4.4613    2.1839 H   0  0  0  0  0  0  0  0  0  0  0  0
    7.0255   -2.1972    2.0514 H   0  0  0  0  0  0  0  0  0  0  0  0
    4.9489   -0.9526    3.0376 H   0  0  0  0  0  0  0  0  0  0  0  0
    6.3790   -0.2940    2.3322 H   0  0  0  0  0  0  0  0  0  0  0  0
    5.0415    0.5846    0.6063 H   0  0  0  0  0  0  0  0  0  0  0  0
    2.7710    0.1028    0.4318 H   0  0  0  0  0  0  0  0  0  0  0  0
    3.0502   -1.3377   -0.9096 H   0  0  0  0  0  0  0  0  0  0  0  0
    4.7334   -5.0302    0.5090 H   0  0  0  0  0  0  0  0  0  0  0  0
    4.5046   -5.0303   -1.1429 H   0  0  0  0  0  0  0  0  0  0  0  0
    6.7221   -4.4506    0.0218 H   0  0  0  0  0  0  0  0  0  0  0  0
    6.3180   -3.7138   -1.5025 H   0  0  0  0  0  0  0  0  0  0  0  0
    9.5210   -2.1374   -0.3287 H   0  0  0  0  0  0  0  0  0  0  0  0
    8.5871   -3.5719   -0.6867 H   0  0  0  0  0  0  0  0  0  0  0  0
    8.7560   -2.9997    0.9785 H   0  0  0  0  0  0  0  0  0  0  0  0
    4.5770   -0.0924   -1.9733 H   0  0  0  0  0  0  0  0  0  0  0  0
    6.1658   -0.7538   -2.0910 H   0  0  0  0  0  0  0  0  0  0  0  0
    4.4732   -1.5366   -3.7932 H   0  0  0  0  0  0  0  0  0  0  0  0
    5.4330   -2.7674   -3.1216 H   0  0  0  0  0  0  0  0  0  0  0  0
    2.0275   -4.0537   -1.6228 H   0  0  0  0  0  0  0  0  0  0  0  0
  1  2  1  0
  1 27  1  0
  1 28  1  0
  1 29  1  0
  2  3  1  0
  3  4  2  3
  3 30  1  0
  4 13  1  0
  4  5  1  0
  5  6  1  0
  5 31  1  0
  5 32  1  0
  6 15  1  0
  6  7  1  0
  7  8  1  0
  7 33  1  0
  7 34  1  0
  8  9  1  0
  8 35  1  0
  8 36  1  0
  9 10  1  0
  9 37  1  0
  9 38  1  0
 10 18  1  0
 10 11  1  0
 10 39  1  1
 11 12  1  0
 11 40  1  0
 11 41  1  0
 12 21  1  0
 12 13  1  0
 12 42  1  6
 13 14  1  0
 13 43  1  6
 14 21  1  0
 14 15  1  0
 14 44  1  6
 15 26  1  6
 15 16  1  0
 16 17  1  0
 16 45  1  0
 16 46  1  0
 17 18  1  0
 17 47  1  0
 17 48  1  0
 18 19  1  1
 18 21  1  0
 19 20  1  0
 20 49  1  0
 20 50  1  0
 20 51  1  0
 21 22  1  6
 22 23  1  0
 22 52  1  0
 22 53  1  0
 23 24  1  0
 23 54  1  0
 23 55  1  0
 24 25  2  0
 24 26  1  0
 26 56  1  0
M  END
>  <i_m_ct_stereo_status>  (108) 
1

>  <s_m_source_file>  (108) 
/var/tmp/pbs.5076255.sched01/tmpon41x2vr/43t03z2zi4.sdf

>  <i_m_source_file_index>  (108) 
6

>  <i_lp_mmshare_version>  (108) 
48012

>  <i_f3d_flags>  (108) 
0

>  <s_epik_input>  (108) 
W0NIM11PL1tDSF09QygvW0NIMl1OMVtDQEBdMjM0KVtDQEhdNVtDQEBIXTZbQ0BAXShbQ0BASF0yNSkoW0NIMl1bQ0gyXUMoPU8pW05IXTQpW0NAQF0oW0NIMl1bQ0gyXTMpKE9bQ0gzXSlbQ0BASF0oW0NIMl02KVtDSDJdW0NIMl1bQ0gyXTE=

>  <s_epik_cmdline>  (108) 
J2VwaWtfcHl0aG9uJywgJy1waHQnLCAnMi4wJywgJy1waCcsICc3LjAnLCAnLXRuJywgJzgnLCAnLW1hJywgJzIwMCcsICctaW1hZScsICc8aW5maWxlLm1hZT4nLCAnLW9tYWUnLCAnPG91dGZpbGUubWFlPic=

>  <r_epik_Ionization_Penalty>  (108) 
0.0543932

>  <r_epik_Ionization_Penalty_Charging>  (108) 
0

>  <r_epik_Ionization_Penalty_Neutral>  (108) 
0.0543932

>  <r_epik_State_Penalty>  (108) 
0.0467893

>  <r_epik_Charging_Adjusted_Penalty>  (108) 
0.0467893

>  <i_epik_Tot_Q>  (108) 
0

>  <i_epik_Tot_abs_Q>  (108) 
0

>  <s_lp_Force_Field>  (108) 
OPLS3e

>  <r_lp_Energy>  (108) 
137.183

>  <b_lp_Chiralities_Consistent>  (108) 
1

>  <s_lp_Variant>  (108) 
28:0-1

>  <s_i_glide_gridfile>  (108) 
pfpi4k_grid

>  <i_i_glide_lignum>  (108) 
6

>  <i_i_glide_rotatable_bonds>  (108) 
2

>  <r_i_docking_score>  (108) 
-2.81585

>  <r_i_glide_ligand_efficiency>  (108) 
-0.108302

>  <r_i_glide_ligand_efficiency_sa>  (108) 
-0.320844

>  <r_i_glide_ligand_efficiency_ln>  (108) 
-0.661293

>  <r_i_glide_gscore>  (108) 
-2.81585

>  <r_i_glide_lipo>  (108) 
-0.544508

>  <r_i_glide_hbond>  (108) 
-0.142937

>  <r_i_glide_metal>  (108) 
-0

>  <r_i_glide_rewards>  (108) 
-1.00154

>  <r_i_glide_evdw>  (108) 
-16.953

>  <r_i_glide_ecoul>  (108) 
-2.69618

>  <r_i_glide_erotb>  (108) 
0.149071

>  <r_i_glide_esite>  (108) 
-0.0238582

>  <r_i_glide_emodel>  (108) 
-17.6326

>  <r_i_glide_energy>  (108) 
-19.6492

>  <r_i_glide_einternal>  (108) 
6.03568

>  <r_i_glide_intrahb_reward>  (108) 
-0

>  <i_i_glide_confnum>  (108) 
1

>  <i_i_glide_posenum>  (108) 
14

>  <r_i_glide_eff_state_penalty>  (108) 
0

>  <ligand_id>  (108) 
28

>  <original_smiles>  (108) 
COC=C1CN2CCCC3CC4C1C1C25CCC3(OC)C41CCC(=O)N5

>  <smiles>  (108) 
[H]C(OC([H])([H])[H])=C1C([H])([H])N2C([H])([H])C([H])([H])C([H])([H])C3([H])C([H])([H])C4([H])C1([H])C1([H])C25N([H])C(=O)C([H])([H])C([H])([H])C41C3(OC([H])([H])[H])C([H])([H])C5([H])[H]

$$$$
28:0:2
     RDKit          3D

 56 61  0  0  1  0  0  0  0  0999 V2000
    3.2544   -8.2229    1.5257 C   0  0  0  0  0  0  0  0  0  0  0  0
    4.1949   -7.9959    0.5169 O   0  0  0  0  0  0  0  0  0  0  0  0
    4.1354   -6.7899   -0.1583 C   0  0  0  0  0  0  0  0  0  0  0  0
    3.6065   -5.6183    0.2744 C   0  0  0  0  0  0  0  0  0  0  0  0
    3.4335   -4.3917   -0.6138 C   0  0  0  0  0  0  0  0  0  0  0  0
    4.0424   -3.1728   -0.0526 N   0  0  0  0  0  0  0  0  0  0  0  0
    5.5048   -3.2386   -0.3017 C   0  0  0  0  0  0  0  0  0  0  0  0
    6.3915   -4.2641    0.4703 C   0  0  0  0  0  0  0  0  0  0  0  0
    6.7490   -4.0829    1.9599 C   0  0  0  0  0  0  0  0  0  0  0  0
    5.8599   -4.5523    3.1711 C   0  0  2  0  0  0  0  0  0  0  0  0
    5.1715   -5.8892    3.0076 C   0  0  0  0  0  0  0  0  0  0  0  0
    3.6712   -5.5695    3.0271 C   0  0  2  0  0  0  0  0  0  0  0  0
    2.9761   -5.3950    1.6388 C   0  0  1  0  0  0  0  0  0  0  0  0
    2.9279   -3.9301    1.9735 C   0  0  2  0  0  0  0  0  0  0  0  0
    3.5165   -2.7166    1.2555 C   0  0  1  0  0  0  0  0  0  0  0  0
    4.5734   -1.8020    2.0263 C   0  0  0  0  0  0  0  0  0  0  0  0
    4.9256   -2.1259    3.4625 C   0  0  0  0  0  0  0  0  0  0  0  0
    4.7832   -3.5917    3.8130 C   0  0  2  0  0  0  0  0  0  0  0  0
    4.9171   -3.6645    5.2455 O   0  0  0  0  0  0  0  0  0  0  0  0
    6.0947   -3.1013    5.8628 C   0  0  0  0  0  0  0  0  0  0  0  0
    3.3929   -4.1209    3.3926 C   0  0  2  0  0  0  0  0  0  0  0  0
    2.1816   -3.5688    4.1820 C   0  0  0  0  0  0  0  0  0  0  0  0
    1.6660   -2.1100    3.7857 C   0  0  0  0  0  0  0  0  0  0  0  0
    1.5270   -1.4940    2.3162 C   0  0  0  0  0  0  0  0  0  0  0  0
    0.6467   -0.6453    2.1605 O   0  0  0  0  0  0  0  0  0  0  0  0
    2.3296   -1.8372    1.2388 N   0  0  0  0  0  0  0  0  0  0  0  0
    3.3723   -9.1474    2.0690 H   0  0  0  0  0  0  0  0  0  0  0  0
    2.2308   -7.9902    1.2914 H   0  0  0  0  0  0  0  0  0  0  0  0
    3.5633   -7.6268    2.3216 H   0  0  0  0  0  0  0  0  0  0  0  0
    4.5156   -6.8861   -1.1714 H   0  0  0  0  0  0  0  0  0  0  0  0
    3.8261   -4.5653   -1.6070 H   0  0  0  0  0  0  0  0  0  0  0  0
    2.3603   -4.1969   -0.7396 H   0  0  0  0  0  0  0  0  0  0  0  0
    5.6174   -3.4993   -1.3555 H   0  0  0  0  0  0  0  0  0  0  0  0
    5.9382   -2.2432   -0.2928 H   0  0  0  0  0  0  0  0  0  0  0  0
    6.1596   -5.2960    0.2506 H   0  0  0  0  0  0  0  0  0  0  0  0
    7.3608   -4.1423   -0.0205 H   0  0  0  0  0  0  0  0  0  0  0  0
    7.6789   -4.6461    2.0794 H   0  0  0  0  0  0  0  0  0  0  0  0
    7.0764   -3.0327    2.0433 H   0  0  0  0  0  0  0  0  0  0  0  0
    6.5997   -4.7610    3.9312 H   0  0  0  0  0  0  0  0  0  0  0  0
    5.5029   -6.4210    2.1145 H   0  0  0  0  0  0  0  0  0  0  0  0
    5.4200   -6.5646    3.8251 H   0  0  0  0  0  0  0  0  0  0  0  0
    3.1324   -6.2369    3.6912 H   0  0  0  0  0  0  0  0  0  0  0  0
    1.9934   -5.8747    1.6359 H   0  0  0  0  0  0  0  0  0  0  0  0
    1.8230   -3.9348    1.8884 H   0  0  0  0  0  0  0  0  0  0  0  0
    5.5259   -1.6877    1.5294 H   0  0  0  0  0  0  0  0  0  0  0  0
    4.2584   -0.7574    2.0353 H   0  0  0  0  0  0  0  0  0  0  0  0
    5.9325   -1.7756    3.6566 H   0  0  0  0  0  0  0  0  0  0  0  0
    4.2962   -1.5495    4.1350 H   0  0  0  0  0  0  0  0  0  0  0  0
    6.0688   -3.2862    6.9333 H   0  0  0  0  0  0  0  0  0  0  0  0
    6.1710   -2.0169    5.7475 H   0  0  0  0  0  0  0  0  0  0  0  0
    6.9531   -3.5372    5.5148 H   0  0  0  0  0  0  0  0  0  0  0  0
    1.3392   -4.2567    4.0740 H   0  0  0  0  0  0  0  0  0  0  0  0
    2.3847   -3.5819    5.2487 H   0  0  0  0  0  0  0  0  0  0  0  0
    0.6619   -2.0239    4.2250 H   0  0  0  0  0  0  0  0  0  0  0  0
    2.2388   -1.3646    4.3350 H   0  0  0  0  0  0  0  0  0  0  0  0
    2.1059   -1.3632    0.3841 H   0  0  0  0  0  0  0  0  0  0  0  0
  1  2  1  0
  1 27  1  0
  1 28  1  0
  1 29  1  0
  2  3  1  0
  3  4  2  3
  3 30  1  0
  4 13  1  0
  4  5  1  0
  5  6  1  0
  5 31  1  0
  5 32  1  0
  6 15  1  0
  6  7  1  0
  7  8  1  0
  7 33  1  0
  7 34  1  0
  8  9  1  0
  8 35  1  0
  8 36  1  0
  9 10  1  0
  9 37  1  0
  9 38  1  0
 10 18  1  0
 10 11  1  0
 10 39  1  1
 11 12  1  0
 11 40  1  0
 11 41  1  0
 12 21  1  0
 12 13  1  0
 12 42  1  1
 13 14  1  0
 13 43  1  1
 14 21  1  0
 14 15  1  0
 14 44  1  1
 15 26  1  6
 15 16  1  0
 16 17  1  0
 16 45  1  0
 16 46  1  0
 17 18  1  0
 17 47  1  0
 17 48  1  0
 18 19  1  1
 18 21  1  0
 19 20  1  0
 20 49  1  0
 20 50  1  0
 20 51  1  0
 21 22  1  1
 22 23  1  0
 22 52  1  0
 22 53  1  0
 23 24  1  0
 23 54  1  0
 23 55  1  0
 24 25  2  0
 24 26  1  0
 26 56  1  0
M  END
>  <i_m_ct_stereo_status>  (109) 
1

>  <s_m_source_file>  (109) 
/var/tmp/pbs.5076255.sched01/tmpon41x2vr/43t03z2zi4.sdf

>  <i_m_source_file_index>  (109) 
6

>  <i_lp_mmshare_version>  (109) 
48012

>  <i_f3d_flags>  (109) 
0

>  <s_epik_input>  (109) 
W0NIM11PL1tDSF09QygvW0NIMl1OMVtDQEBdMjM0KVtDQEhdNVtDQEBIXTZbQ0BAXShbQ0BASF0yNSkoW0NIMl1bQ0gyXUMoPU8pW05IXTQpW0NAQF0oW0NIMl1bQ0gyXTMpKE9bQ0gzXSlbQ0BASF0oW0NIMl02KVtDSDJdW0NIMl1bQ0gyXTE=

>  <s_epik_cmdline>  (109) 
J2VwaWtfcHl0aG9uJywgJy1waHQnLCAnMi4wJywgJy1waCcsICc3LjAnLCAnLXRuJywgJzgnLCAnLW1hJywgJzIwMCcsICctaW1hZScsICc8aW5maWxlLm1hZT4nLCAnLW9tYWUnLCAnPG91dGZpbGUubWFlPic=

>  <r_epik_Ionization_Penalty>  (109) 
0.0543932

>  <r_epik_Ionization_Penalty_Charging>  (109) 
0

>  <r_epik_Ionization_Penalty_Neutral>  (109) 
0.0543932

>  <r_epik_State_Penalty>  (109) 
0.0467893

>  <r_epik_Charging_Adjusted_Penalty>  (109) 
0.0467893

>  <i_epik_Tot_Q>  (109) 
0

>  <i_epik_Tot_abs_Q>  (109) 
0

>  <s_lp_Force_Field>  (109) 
OPLS3e

>  <r_lp_Energy>  (109) 
137.183

>  <b_lp_Chiralities_Consistent>  (109) 
1

>  <s_lp_Variant>  (109) 
28:0-1

>  <s_i_glide_gridfile>  (109) 
pfpi4k_grid

>  <i_i_glide_lignum>  (109) 
6

>  <i_i_glide_rotatable_bonds>  (109) 
2

>  <r_i_docking_score>  (109) 
-1.92998

>  <r_i_glide_ligand_efficiency>  (109) 
-0.0742301

>  <r_i_glide_ligand_efficiency_sa>  (109) 
-0.219906

>  <r_i_glide_ligand_efficiency_ln>  (109) 
-0.45325

>  <r_i_glide_gscore>  (109) 
-1.92998

>  <r_i_glide_lipo>  (109) 
-0.382891

>  <r_i_glide_hbond>  (109) 
-0.138297

>  <r_i_glide_metal>  (109) 
-0

>  <r_i_glide_rewards>  (109) 
-0.964947

>  <r_i_glide_evdw>  (109) 
-5.69227

>  <r_i_glide_ecoul>  (109) 
-2.14702

>  <r_i_glide_erotb>  (109) 
0.149071

>  <r_i_glide_esite>  (109) 
-0.108646

>  <r_i_glide_emodel>  (109) 
-3.45598

>  <r_i_glide_energy>  (109) 
-7.8393

>  <r_i_glide_einternal>  (109) 
4.0875

>  <r_i_glide_intrahb_reward>  (109) 
-0

>  <i_i_glide_confnum>  (109) 
1

>  <i_i_glide_posenum>  (109) 
26

>  <r_i_glide_eff_state_penalty>  (109) 
0

>  <ligand_id>  (109) 
28

>  <original_smiles>  (109) 
COC=C1CN2CCCC3CC4C1C1C25CCC3(OC)C41CCC(=O)N5

>  <smiles>  (109) 
[H]C(OC([H])([H])[H])=C1C([H])([H])N2C([H])([H])C([H])([H])C([H])([H])C3([H])C([H])([H])C4([H])C1([H])C1([H])C25N([H])C(=O)C([H])([H])C([H])([H])C41C3(OC([H])([H])[H])C([H])([H])C5([H])[H]

$$$$
28:1:0
     RDKit          3D

 56 61  0  0  1  0  0  0  0  0999 V2000
    4.5470   -2.3111    2.1597 C   0  0  0  0  0  0  0  0  0  0  0  0
    3.8728   -1.0636    2.2696 O   0  0  0  0  0  0  0  0  0  0  0  0
    2.6409   -1.1538    2.8606 C   0  0  0  0  0  0  0  0  0  0  0  0
    1.8576   -0.0660    3.0686 C   0  0  0  0  0  0  0  0  0  0  0  0
    2.1869    1.3345    2.5480 C   0  0  0  0  0  0  0  0  0  0  0  0
    2.1377    2.3560    3.6083 N   0  0  0  0  0  0  0  0  0  0  0  0
    3.3694    2.2783    4.4241 C   0  0  0  0  0  0  0  0  0  0  0  0
    3.6130    1.0732    5.3781 C   0  0  0  0  0  0  0  0  0  0  0  0
    2.8764    0.9082    6.7407 C   0  0  0  0  0  0  0  0  0  0  0  0
    1.4840    0.1996    6.8790 C   0  0  2  0  0  0  0  0  0  0  0  0
    1.2534   -1.0421    6.0003 C   0  0  0  0  0  0  0  0  0  0  0  0
    0.1325   -0.6869    5.0533 C   0  0  2  0  0  0  0  0  0  0  0  0
    0.4846   -0.1318    3.6700 C   0  0  1  0  0  0  0  0  0  0  0  0
    0.0732    1.2169    4.2060 C   0  0  2  0  0  0  0  0  0  0  0  0
    0.8197    2.5453    4.2802 C   0  0  1  0  0  0  0  0  0  0  0  0
    0.9850    3.2237    5.6971 C   0  0  0  0  0  0  0  0  0  0  0  0
    0.3425    2.5804    6.9107 C   0  0  0  0  0  0  0  0  0  0  0  0
    0.1641    1.0626    6.8104 C   0  0  2  0  0  0  0  0  0  0  0  0
   -0.6766    0.5865    7.8912 O   0  0  0  0  0  0  0  0  0  0  0  0
   -0.3262    0.9999    9.2364 C   0  0  0  0  0  0  0  0  0  0  0  0
   -0.5095    0.6783    5.4691 C   0  0  2  0  0  0  0  0  0  0  0  0
   -1.9947    1.1258    5.3389 C   0  0  0  0  0  0  0  0  0  0  0  0
   -2.2703    2.6720    5.0174 C   0  0  0  0  0  0  0  0  0  0  0  0
   -1.5053    3.5699    3.9635 C   0  0  0  0  0  0  0  0  0  0  0  0
   -2.1348    4.4617    3.4364 O   0  0  0  0  0  0  0  0  0  0  0  0
   -0.1597    3.4492    3.6764 N   0  0  0  0  0  0  0  0  0  0  0  0
    5.5243   -2.1598    1.7031 H   0  0  0  0  0  0  0  0  0  0  0  0
    3.9889   -3.0068    1.5308 H   0  0  0  0  0  0  0  0  0  0  0  0
    4.7059   -2.7705    3.1372 H   0  0  0  0  0  0  0  0  0  0  0  0
    2.3651   -2.1581    3.1710 H   0  0  0  0  0  0  0  0  0  0  0  0
    3.1534    1.3328    2.0484 H   0  0  0  0  0  0  0  0  0  0  0  0
    1.4454    1.5850    1.7883 H   0  0  0  0  0  0  0  0  0  0  0  0
    4.1803    2.2343    3.6992 H   0  0  0  0  0  0  0  0  0  0  0  0
    3.5821    3.2242    4.9154 H   0  0  0  0  0  0  0  0  0  0  0  0
    3.6754    0.1295    4.8545 H   0  0  0  0  0  0  0  0  0  0  0  0
    4.6504    1.2246    5.6767 H   0  0  0  0  0  0  0  0  0  0  0  0
    3.5441    0.2579    7.3105 H   0  0  0  0  0  0  0  0  0  0  0  0
    2.9090    1.8347    7.3100 H   0  0  0  0  0  0  0  0  0  0  0  0
    1.5545   -0.2385    7.8669 H   0  0  0  0  0  0  0  0  0  0  0  0
    2.1570   -1.3799    5.5065 H   0  0  0  0  0  0  0  0  0  0  0  0
    0.9335   -1.8660    6.6377 H   0  0  0  0  0  0  0  0  0  0  0  0
   -0.6330   -1.4605    4.9568 H   0  0  0  0  0  0  0  0  0  0  0  0
   -0.2091   -0.5442    2.9323 H   0  0  0  0  0  0  0  0  0  0  0  0
   -0.6858    1.2850    3.4230 H   0  0  0  0  0  0  0  0  0  0  0  0
    1.9959    3.3957    6.0259 H   0  0  0  0  0  0  0  0  0  0  0  0
    0.6380    4.2575    5.6878 H   0  0  0  0  0  0  0  0  0  0  0  0
    0.9625    2.8419    7.7631 H   0  0  0  0  0  0  0  0  0  0  0  0
   -0.6210    3.0355    7.1306 H   0  0  0  0  0  0  0  0  0  0  0  0
   -0.9851    0.5513    9.9700 H   0  0  0  0  0  0  0  0  0  0  0  0
   -0.4017    2.0836    9.3841 H   0  0  0  0  0  0  0  0  0  0  0  0
    0.6786    0.6929    9.5382 H   0  0  0  0  0  0  0  0  0  0  0  0
   -2.4800    0.5426    4.5540 H   0  0  0  0  0  0  0  0  0  0  0  0
   -2.5516    0.8663    6.2412 H   0  0  0  0  0  0  0  0  0  0  0  0
   -3.3000    2.7259    4.6598 H   0  0  0  0  0  0  0  0  0  0  0  0
   -2.3223    3.2357    5.9423 H   0  0  0  0  0  0  0  0  0  0  0  0
    0.1983    4.0743    2.9659 H   0  0  0  0  0  0  0  0  0  0  0  0
  1  2  1  0
  1 27  1  0
  1 28  1  0
  1 29  1  0
  2  3  1  0
  3  4  2  3
  3 30  1  0
  4 13  1  0
  4  5  1  0
  5  6  1  0
  5 31  1  0
  5 32  1  0
  6 15  1  0
  6  7  1  0
  7  8  1  0
  7 33  1  0
  7 34  1  0
  8  9  1  0
  8 35  1  0
  8 36  1  0
  9 10  1  0
  9 37  1  0
  9 38  1  0
 10 18  1  0
 10 11  1  0
 10 39  1  1
 11 12  1  0
 11 40  1  0
 11 41  1  0
 12 21  1  0
 12 13  1  0
 12 42  1  6
 13 14  1  0
 13 43  1  6
 14 21  1  0
 14 15  1  0
 14 44  1  6
 15 26  1  6
 15 16  1  0
 16 17  1  0
 16 45  1  0
 16 46  1  0
 17 18  1  0
 17 47  1  0
 17 48  1  0
 18 19  1  1
 18 21  1  0
 19 20  1  0
 20 49  1  0
 20 50  1  0
 20 51  1  0
 21 22  1  1
 22 23  1  0
 22 52  1  0
 22 53  1  0
 23 24  1  0
 23 54  1  0
 23 55  1  0
 24 25  2  0
 24 26  1  0
 26 56  1  0
M  END
>  <i_m_ct_stereo_status>  (110) 
1

>  <s_m_source_file>  (110) 
/var/tmp/pbs.5076255.sched01/tmpon41x2vr/43t03z2zi4.sdf

>  <i_m_source_file_index>  (110) 
7

>  <i_lp_mmshare_version>  (110) 
48012

>  <i_f3d_flags>  (110) 
0

>  <s_epik_input>  (110) 
W0NIM11PL1tDSF09QygvW0NIMl1OMVtDQEBdMjM0KVtDQEhdNVtDQEBIXTZbQ0BAXShbQ0BASF0yNSkoW0NIMl1bQ0gyXUMoPU8pW05IXTQpW0NAQF0oW0NIMl1bQ0gyXTMpKE9bQ0gzXSlbQ0BASF0oW0NIMl02KVtDSDJdW0NIMl1bQ0gyXTE=

>  <s_epik_cmdline>  (110) 
J2VwaWtfcHl0aG9uJywgJy1waHQnLCAnMi4wJywgJy1waCcsICc3LjAnLCAnLXRuJywgJzgnLCAnLW1hJywgJzIwMCcsICctaW1hZScsICc8aW5maWxlLm1hZT4nLCAnLW9tYWUnLCAnPG91dGZpbGUubWFlPic=

>  <r_epik_Ionization_Penalty>  (110) 
0.0543932

>  <r_epik_Ionization_Penalty_Charging>  (110) 
0

>  <r_epik_Ionization_Penalty_Neutral>  (110) 
0.0543932

>  <r_epik_State_Penalty>  (110) 
0.0467893

>  <r_epik_Charging_Adjusted_Penalty>  (110) 
0.0467893

>  <i_epik_Tot_Q>  (110) 
0

>  <i_epik_Tot_abs_Q>  (110) 
0

>  <s_lp_Force_Field>  (110) 
OPLS3e

>  <r_lp_Energy>  (110) 
137.281

>  <b_lp_Chiralities_Consistent>  (110) 
1

>  <s_lp_Variant>  (110) 
28:0-2

>  <s_i_glide_gridfile>  (110) 
pfpi4k_grid

>  <i_i_glide_lignum>  (110) 
7

>  <i_i_glide_rotatable_bonds>  (110) 
2

>  <r_i_docking_score>  (110) 
-2.91303

>  <r_i_glide_ligand_efficiency>  (110) 
-0.11204

>  <r_i_glide_ligand_efficiency_sa>  (110) 
-0.331917

>  <r_i_glide_ligand_efficiency_ln>  (110) 
-0.684116

>  <r_i_glide_gscore>  (110) 
-2.91303

>  <r_i_glide_lipo>  (110) 
-0.0624155

>  <r_i_glide_hbond>  (110) 
-0.260394

>  <r_i_glide_metal>  (110) 
-0

>  <r_i_glide_rewards>  (110) 
-0.964947

>  <r_i_glide_evdw>  (110) 
-15.5345

>  <r_i_glide_ecoul>  (110) 
-5.54797

>  <r_i_glide_erotb>  (110) 
0.149071

>  <r_i_glide_esite>  (110) 
-0.165425

>  <r_i_glide_emodel>  (110) 
-22.035

>  <r_i_glide_energy>  (110) 
-21.0825

>  <r_i_glide_einternal>  (110) 
5.91332

>  <r_i_glide_intrahb_reward>  (110) 
-0

>  <i_i_glide_confnum>  (110) 
2

>  <i_i_glide_posenum>  (110) 
14

>  <r_i_glide_eff_state_penalty>  (110) 
0

>  <ligand_id>  (110) 
28

>  <original_smiles>  (110) 
COC=C1CN2CCCC3CC4C1C1C25CCC3(OC)C41CCC(=O)N5

>  <smiles>  (110) 
[H]C(OC([H])([H])[H])=C1C([H])([H])N2C([H])([H])C([H])([H])C([H])([H])C3([H])C([H])([H])C4([H])C1([H])C1([H])C25N([H])C(=O)C([H])([H])C([H])([H])C41C3(OC([H])([H])[H])C([H])([H])C5([H])[H]

$$$$
28:1:1
     RDKit          3D

 56 61  0  0  1  0  0  0  0  0999 V2000
    2.5858   -3.7612    2.2191 C   0  0  0  0  0  0  0  0  0  0  0  0
    2.0823   -2.4405    2.0918 O   0  0  0  0  0  0  0  0  0  0  0  0
    1.2521   -2.0556    3.1135 C   0  0  0  0  0  0  0  0  0  0  0  0
    0.7435   -0.8128    3.2000 C   0  0  0  0  0  0  0  0  0  0  0  0
    0.9274    0.2742    2.1365 C   0  0  0  0  0  0  0  0  0  0  0  0
    1.4681    1.5295    2.6866 N   0  0  0  0  0  0  0  0  0  0  0  0
    2.9238    1.3926    2.8922 C   0  0  0  0  0  0  0  0  0  0  0  0
    3.4727    0.4809    4.0329 C   0  0  0  0  0  0  0  0  0  0  0  0
    3.4283    0.8863    5.5399 C   0  0  0  0  0  0  0  0  0  0  0  0
    2.1991    0.6081    6.4814 C   0  0  2  0  0  0  0  0  0  0  0  0
    1.4896   -0.7427    6.2707 C   0  0  0  0  0  0  0  0  0  0  0  0
    0.0783   -0.4158    5.7936 C   0  0  2  0  0  0  0  0  0  0  0  0
   -0.2060   -0.3786    4.2899 C   0  0  1  0  0  0  0  0  0  0  0  0
   -0.2042    1.1298    4.4150 C   0  0  2  0  0  0  0  0  0  0  0  0
    0.6387    2.2132    3.7246 C   0  0  1  0  0  0  0  0  0  0  0  0
    1.5087    3.1898    4.6318 C   0  0  0  0  0  0  0  0  0  0  0  0
    1.4166    3.0626    6.1528 C   0  0  0  0  0  0  0  0  0  0  0  0
    1.0472    1.6675    6.6331 C   0  0  2  0  0  0  0  0  0  0  0  0
    0.7850    1.9094    8.0266 O   0  0  0  0  0  0  0  0  0  0  0  0
    0.3742    0.8459    8.8800 C   0  0  0  0  0  0  0  0  0  0  0  0
   -0.1961    1.1206    5.9028 C   0  0  2  0  0  0  0  0  0  0  0  0
   -1.5174    1.8735    6.2351 C   0  0  0  0  0  0  0  0  0  0  0  0
   -1.7576    3.2862    5.5254 C   0  0  0  0  0  0  0  0  0  0  0  0
   -1.4537    3.6474    4.0131 C   0  0  0  0  0  0  0  0  0  0  0  0
   -2.1850    4.4925    3.5009 O   0  0  0  0  0  0  0  0  0  0  0  0
   -0.4241    3.1299    3.2788 N   0  0  0  0  0  0  0  0  0  0  0  0
    3.2412   -3.9865    1.3771 H   0  0  0  0  0  0  0  0  0  0  0  0
    1.7848   -4.5012    2.2198 H   0  0  0  0  0  0  0  0  0  0  0  0
    3.1687   -3.8777    3.1333 H   0  0  0  0  0  0  0  0  0  0  0  0
    1.0625   -2.8361    3.8407 H   0  0  0  0  0  0  0  0  0  0  0  0
    1.5459   -0.0916    1.3163 H   0  0  0  0  0  0  0  0  0  0  0  0
   -0.0513    0.4867    1.7036 H   0  0  0  0  0  0  0  0  0  0  0  0
    3.3022    0.9685    1.9626 H   0  0  0  0  0  0  0  0  0  0  0  0
    3.4153    2.3622    2.8903 H   0  0  0  0  0  0  0  0  0  0  0  0
    3.2106   -0.5598    3.8980 H   0  0  0  0  0  0  0  0  0  0  0  0
    4.5407    0.4643    3.8103 H   0  0  0  0  0  0  0  0  0  0  0  0
    4.2268    0.2830    5.9793 H   0  0  0  0  0  0  0  0  0  0  0  0
    3.8061    1.8982    5.6698 H   0  0  0  0  0  0  0  0  0  0  0  0
    2.6806    0.5557    7.4566 H   0  0  0  0  0  0  0  0  0  0  0  0
    2.0307   -1.4085    5.6039 H   0  0  0  0  0  0  0  0  0  0  0  0
    1.4366   -1.2783    7.2175 H   0  0  0  0  0  0  0  0  0  0  0  0
   -0.6945   -0.9827    6.3095 H   0  0  0  0  0  0  0  0  0  0  0  0
   -1.1963   -0.7961    4.0991 H   0  0  0  0  0  0  0  0  0  0  0  0
   -1.2249    1.1686    4.0298 H   0  0  0  0  0  0  0  0  0  0  0  0
    2.5655    3.2036    4.4251 H   0  0  0  0  0  0  0  0  0  0  0  0
    1.2841    4.2313    4.3991 H   0  0  0  0  0  0  0  0  0  0  0  0
    2.3545    3.3737    6.6105 H   0  0  0  0  0  0  0  0  0  0  0  0
    0.7014    3.7844    6.5419 H   0  0  0  0  0  0  0  0  0  0  0  0
    0.1226    1.2679    9.8520 H   0  0  0  0  0  0  0  0  0  0  0  0
    1.1598    0.1112    9.0499 H   0  0  0  0  0  0  0  0  0  0  0  0
   -0.5129    0.3378    8.5072 H   0  0  0  0  0  0  0  0  0  0  0  0
   -2.3683    1.2341    5.9971 H   0  0  0  0  0  0  0  0  0  0  0  0
   -1.6102    2.0387    7.3085 H   0  0  0  0  0  0  0  0  0  0  0  0
   -2.8225    3.4905    5.6421 H   0  0  0  0  0  0  0  0  0  0  0  0
   -1.3092    4.0761    6.1193 H   0  0  0  0  0  0  0  0  0  0  0  0
   -0.2985    3.4986    2.3348 H   0  0  0  0  0  0  0  0  0  0  0  0
  1  2  1  0
  1 27  1  0
  1 28  1  0
  1 29  1  0
  2  3  1  0
  3  4  2  3
  3 30  1  0
  4 13  1  0
  4  5  1  0
  5  6  1  0
  5 31  1  0
  5 32  1  0
  6 15  1  0
  6  7  1  0
  7  8  1  0
  7 33  1  0
  7 34  1  0
  8  9  1  0
  8 35  1  0
  8 36  1  0
  9 10  1  0
  9 37  1  0
  9 38  1  0
 10 18  1  0
 10 11  1  0
 10 39  1  1
 11 12  1  0
 11 40  1  0
 11 41  1  0
 12 21  1  0
 12 13  1  0
 12 42  1  1
 13 14  1  0
 13 43  1  1
 14 21  1  0
 14 15  1  0
 14 44  1  1
 15 26  1  6
 15 16  1  0
 16 17  1  0
 16 45  1  0
 16 46  1  0
 17 18  1  0
 17 47  1  0
 17 48  1  0
 18 19  1  1
 18 21  1  0
 19 20  1  0
 20 49  1  0
 20 50  1  0
 20 51  1  0
 21 22  1  1
 22 23  1  0
 22 52  1  0
 22 53  1  0
 23 24  1  0
 23 54  1  0
 23 55  1  0
 24 25  2  0
 24 26  1  0
 26 56  1  0
M  END
>  <i_m_ct_stereo_status>  (111) 
1

>  <s_m_source_file>  (111) 
/var/tmp/pbs.5076255.sched01/tmpon41x2vr/43t03z2zi4.sdf

>  <i_m_source_file_index>  (111) 
7

>  <i_lp_mmshare_version>  (111) 
48012

>  <i_f3d_flags>  (111) 
0

>  <s_epik_input>  (111) 
W0NIM11PL1tDSF09QygvW0NIMl1OMVtDQEBdMjM0KVtDQEhdNVtDQEBIXTZbQ0BAXShbQ0BASF0yNSkoW0NIMl1bQ0gyXUMoPU8pW05IXTQpW0NAQF0oW0NIMl1bQ0gyXTMpKE9bQ0gzXSlbQ0BASF0oW0NIMl02KVtDSDJdW0NIMl1bQ0gyXTE=

>  <s_epik_cmdline>  (111) 
J2VwaWtfcHl0aG9uJywgJy1waHQnLCAnMi4wJywgJy1waCcsICc3LjAnLCAnLXRuJywgJzgnLCAnLW1hJywgJzIwMCcsICctaW1hZScsICc8aW5maWxlLm1hZT4nLCAnLW9tYWUnLCAnPG91dGZpbGUubWFlPic=

>  <r_epik_Ionization_Penalty>  (111) 
0.0543932

>  <r_epik_Ionization_Penalty_Charging>  (111) 
0

>  <r_epik_Ionization_Penalty_Neutral>  (111) 
0.0543932

>  <r_epik_State_Penalty>  (111) 
0.0467893

>  <r_epik_Charging_Adjusted_Penalty>  (111) 
0.0467893

>  <i_epik_Tot_Q>  (111) 
0

>  <i_epik_Tot_abs_Q>  (111) 
0

>  <s_lp_Force_Field>  (111) 
OPLS3e

>  <r_lp_Energy>  (111) 
137.281

>  <b_lp_Chiralities_Consistent>  (111) 
1

>  <s_lp_Variant>  (111) 
28:0-2

>  <s_i_glide_gridfile>  (111) 
pfpi4k_grid

>  <i_i_glide_lignum>  (111) 
7

>  <i_i_glide_rotatable_bonds>  (111) 
2

>  <r_i_docking_score>  (111) 
-2.89096

>  <r_i_glide_ligand_efficiency>  (111) 
-0.111191

>  <r_i_glide_ligand_efficiency_sa>  (111) 
-0.329402

>  <r_i_glide_ligand_efficiency_ln>  (111) 
-0.678932

>  <r_i_glide_gscore>  (111) 
-2.89096

>  <r_i_glide_lipo>  (111) 
-0.0109132

>  <r_i_glide_hbond>  (111) 
-0.32

>  <r_i_glide_metal>  (111) 
-0

>  <r_i_glide_rewards>  (111) 
-0.964947

>  <r_i_glide_evdw>  (111) 
-17.217

>  <r_i_glide_ecoul>  (111) 
-4.66806

>  <r_i_glide_erotb>  (111) 
0.149071

>  <r_i_glide_esite>  (111) 
-0.183111

>  <r_i_glide_emodel>  (111) 
-24.8931

>  <r_i_glide_energy>  (111) 
-21.8851

>  <r_i_glide_einternal>  (111) 
2.58162

>  <r_i_glide_intrahb_reward>  (111) 
-0

>  <i_i_glide_confnum>  (111) 
2

>  <i_i_glide_posenum>  (111) 
24

>  <r_i_glide_eff_state_penalty>  (111) 
0

>  <ligand_id>  (111) 
28

>  <original_smiles>  (111) 
COC=C1CN2CCCC3CC4C1C1C25CCC3(OC)C41CCC(=O)N5

>  <smiles>  (111) 
[H]C(OC([H])([H])[H])=C1C([H])([H])N2C([H])([H])C([H])([H])C([H])([H])C3([H])C([H])([H])C4([H])C1([H])C1([H])C25N([H])C(=O)C([H])([H])C([H])([H])C41C3(OC([H])([H])[H])C([H])([H])C5([H])[H]

$$$$
28:1:2
     RDKit          3D

 56 61  0  0  1  0  0  0  0  0999 V2000
    3.6660   -2.7792    0.7736 C   0  0  0  0  0  0  0  0  0  0  0  0
    3.3806   -1.4913    1.3056 O   0  0  0  0  0  0  0  0  0  0  0  0
    2.1897   -1.4230    1.9770 C   0  0  0  0  0  0  0  0  0  0  0  0
    1.7144   -0.2646    2.4946 C   0  0  0  0  0  0  0  0  0  0  0  0
    2.3643    1.1016    2.2639 C   0  0  0  0  0  0  0  0  0  0  0  0
    2.6125    1.8282    3.5202 N   0  0  0  0  0  0  0  0  0  0  0  0
    3.8154    1.2730    4.1791 C   0  0  0  0  0  0  0  0  0  0  0  0
    3.7868   -0.1434    4.8203 C   0  0  0  0  0  0  0  0  0  0  0  0
    3.0852   -0.4442    6.1770 C   0  0  0  0  0  0  0  0  0  0  0  0
    1.5653   -0.8151    6.2883 C   0  0  2  0  0  0  0  0  0  0  0  0
    0.9977   -1.7285    5.1880 C   0  0  0  0  0  0  0  0  0  0  0  0
   -0.0367   -0.9088    4.4502 C   0  0  2  0  0  0  0  0  0  0  0  0
    0.3912   -0.1429    3.1952 C   0  0  1  0  0  0  0  0  0  0  0  0
    0.3511    1.0987    4.0482 C   0  0  2  0  0  0  0  0  0  0  0  0
    1.4124    2.1588    4.3420 C   0  0  1  0  0  0  0  0  0  0  0  0
    1.7980    2.4278    5.8482 C   0  0  0  0  0  0  0  0  0  0  0  0
    1.0600    1.6895    6.9470 C   0  0  0  0  0  0  0  0  0  0  0  0
    0.5014    0.3245    6.5345 C   0  0  2  0  0  0  0  0  0  0  0  0
   -0.3835   -0.1692    7.5700 O   0  0  0  0  0  0  0  0  0  0  0  0
    0.1138   -0.1774    8.9303 C   0  0  0  0  0  0  0  0  0  0  0  0
   -0.2993    0.4337    5.2137 C   0  0  2  0  0  0  0  0  0  0  0  0
   -1.6340    1.2342    5.3235 C   0  0  0  0  0  0  0  0  0  0  0  0
   -1.5277    2.8304    5.3729 C   0  0  0  0  0  0  0  0  0  0  0  0
   -0.5936    3.7419    4.4728 C   0  0  0  0  0  0  0  0  0  0  0  0
   -0.9960    4.8460    4.1899 O   0  0  0  0  0  0  0  0  0  0  0  0
    0.6657    3.3774    4.0454 N   0  0  0  0  0  0  0  0  0  0  0  0
    4.6351   -2.7634    0.2762 H   0  0  0  0  0  0  0  0  0  0  0  0
    2.9176   -3.0727    0.0350 H   0  0  0  0  0  0  0  0  0  0  0  0
    3.7076   -3.5411    1.5546 H   0  0  0  0  0  0  0  0  0  0  0  0
    1.6823   -2.3782    2.0842 H   0  0  0  0  0  0  0  0  0  0  0  0
    3.2791    0.9926    1.6834 H   0  0  0  0  0  0  0  0  0  0  0  0
    1.6781    1.6884    1.6512 H   0  0  0  0  0  0  0  0  0  0  0  0
    4.5628    1.1989    3.3922 H   0  0  0  0  0  0  0  0  0  0  0  0
    4.2772    2.0035    4.8385 H   0  0  0  0  0  0  0  0  0  0  0  0
    3.5934   -0.9258    4.0991 H   0  0  0  0  0  0  0  0  0  0  0  0
    4.8406   -0.3112    5.0452 H   0  0  0  0  0  0  0  0  0  0  0  0
    3.5917   -1.3472    6.5258 H   0  0  0  0  0  0  0  0  0  0  0  0
    3.3711    0.2898    6.9271 H   0  0  0  0  0  0  0  0  0  0  0  0
    1.5627   -1.4747    7.1475 H   0  0  0  0  0  0  0  0  0  0  0  0
    1.7672   -2.1434    4.5469 H   0  0  0  0  0  0  0  0  0  0  0  0
    0.5073   -2.5812    5.6575 H   0  0  0  0  0  0  0  0  0  0  0  0
   -0.9717   -1.4390    4.2633 H   0  0  0  0  0  0  0  0  0  0  0  0
   -0.4139   -0.1838    2.4548 H   0  0  0  0  0  0  0  0  0  0  0  0
   -0.3929    1.5278    3.3745 H   0  0  0  0  0  0  0  0  0  0  0  0
    2.8316    2.2765    6.1096 H   0  0  0  0  0  0  0  0  0  0  0  0
    1.7184    3.4859    6.0986 H   0  0  0  0  0  0  0  0  0  0  0  0
    1.7555    1.5898    7.7741 H   0  0  0  0  0  0  0  0  0  0  0  0
    0.2490    2.2944    7.3468 H   0  0  0  0  0  0  0  0  0  0  0  0
   -0.6275   -0.5978    9.6101 H   0  0  0  0  0  0  0  0  0  0  0  0
    0.3283    0.8241    9.3166 H   0  0  0  0  0  0  0  0  0  0  0  0
    1.0177   -0.7790    9.0581 H   0  0  0  0  0  0  0  0  0  0  0  0
   -2.2789    0.9818    4.4816 H   0  0  0  0  0  0  0  0  0  0  0  0
   -2.2014    0.9107    6.1964 H   0  0  0  0  0  0  0  0  0  0  0  0
   -2.5321    3.1963    5.1445 H   0  0  0  0  0  0  0  0  0  0  0  0
   -1.3916    3.1601    6.3973 H   0  0  0  0  0  0  0  0  0  0  0  0
    1.1493    4.0608    3.4817 H   0  0  0  0  0  0  0  0  0  0  0  0
  1  2  1  0
  1 27  1  0
  1 28  1  0
  1 29  1  0
  2  3  1  0
  3  4  2  3
  3 30  1  0
  4 13  1  0
  4  5  1  0
  5  6  1  0
  5 31  1  0
  5 32  1  0
  6 15  1  0
  6  7  1  0
  7  8  1  0
  7 33  1  0
  7 34  1  0
  8  9  1  0
  8 35  1  0
  8 36  1  0
  9 10  1  0
  9 37  1  0
  9 38  1  0
 10 18  1  0
 10 11  1  0
 10 39  1  1
 11 12  1  0
 11 40  1  0
 11 41  1  0
 12 21  1  0
 12 13  1  0
 12 42  1  6
 13 14  1  0
 13 43  1  6
 14 21  1  0
 14 15  1  0
 14 44  1  6
 15 26  1  6
 15 16  1  0
 16 17  1  0
 16 45  1  0
 16 46  1  0
 17 18  1  0
 17 47  1  0
 17 48  1  0
 18 19  1  1
 18 21  1  0
 19 20  1  0
 20 49  1  0
 20 50  1  0
 20 51  1  0
 21 22  1  1
 22 23  1  0
 22 52  1  0
 22 53  1  0
 23 24  1  0
 23 54  1  0
 23 55  1  0
 24 25  2  0
 24 26  1  0
 26 56  1  0
M  END
>  <i_m_ct_stereo_status>  (112) 
1

>  <s_m_source_file>  (112) 
/var/tmp/pbs.5076255.sched01/tmpon41x2vr/43t03z2zi4.sdf

>  <i_m_source_file_index>  (112) 
7

>  <i_lp_mmshare_version>  (112) 
48012

>  <i_f3d_flags>  (112) 
0

>  <s_epik_input>  (112) 
W0NIM11PL1tDSF09QygvW0NIMl1OMVtDQEBdMjM0KVtDQEhdNVtDQEBIXTZbQ0BAXShbQ0BASF0yNSkoW0NIMl1bQ0gyXUMoPU8pW05IXTQpW0NAQF0oW0NIMl1bQ0gyXTMpKE9bQ0gzXSlbQ0BASF0oW0NIMl02KVtDSDJdW0NIMl1bQ0gyXTE=

>  <s_epik_cmdline>  (112) 
J2VwaWtfcHl0aG9uJywgJy1waHQnLCAnMi4wJywgJy1waCcsICc3LjAnLCAnLXRuJywgJzgnLCAnLW1hJywgJzIwMCcsICctaW1hZScsICc8aW5maWxlLm1hZT4nLCAnLW9tYWUnLCAnPG91dGZpbGUubWFlPic=

>  <r_epik_Ionization_Penalty>  (112) 
0.0543932

>  <r_epik_Ionization_Penalty_Charging>  (112) 
0

>  <r_epik_Ionization_Penalty_Neutral>  (112) 
0.0543932

>  <r_epik_State_Penalty>  (112) 
0.0467893

>  <r_epik_Charging_Adjusted_Penalty>  (112) 
0.0467893

>  <i_epik_Tot_Q>  (112) 
0

>  <i_epik_Tot_abs_Q>  (112) 
0

>  <s_lp_Force_Field>  (112) 
OPLS3e

>  <r_lp_Energy>  (112) 
137.281

>  <b_lp_Chiralities_Consistent>  (112) 
1

>  <s_lp_Variant>  (112) 
28:0-2

>  <s_i_glide_gridfile>  (112) 
pfpi4k_grid

>  <i_i_glide_lignum>  (112) 
7

>  <i_i_glide_rotatable_bonds>  (112) 
2

>  <r_i_docking_score>  (112) 
-2.37885

>  <r_i_glide_ligand_efficiency>  (112) 
-0.0914943

>  <r_i_glide_ligand_efficiency_sa>  (112) 
-0.271051

>  <r_i_glide_ligand_efficiency_ln>  (112) 
-0.558665

>  <r_i_glide_gscore>  (112) 
-2.37885

>  <r_i_glide_lipo>  (112) 
-0.0224525

>  <r_i_glide_hbond>  (112) 
-0.117303

>  <r_i_glide_metal>  (112) 
-0

>  <r_i_glide_rewards>  (112) 
-0.964947

>  <r_i_glide_evdw>  (112) 
-15.3749

>  <r_i_glide_ecoul>  (112) 
-3.70855

>  <r_i_glide_erotb>  (112) 
0.149071

>  <r_i_glide_esite>  (112) 
-0.0981908

>  <r_i_glide_emodel>  (112) 
-19.1742

>  <r_i_glide_energy>  (112) 
-19.0835

>  <r_i_glide_einternal>  (112) 
5.96735

>  <r_i_glide_intrahb_reward>  (112) 
-0

>  <i_i_glide_confnum>  (112) 
2

>  <i_i_glide_posenum>  (112) 
6

>  <r_i_glide_eff_state_penalty>  (112) 
0

>  <ligand_id>  (112) 
28

>  <original_smiles>  (112) 
COC=C1CN2CCCC3CC4C1C1C25CCC3(OC)C41CCC(=O)N5

>  <smiles>  (112) 
[H]C(OC([H])([H])[H])=C1C([H])([H])N2C([H])([H])C([H])([H])C([H])([H])C3([H])C([H])([H])C4([H])C1([H])C1([H])C25N([H])C(=O)C([H])([H])C([H])([H])C41C3(OC([H])([H])[H])C([H])([H])C5([H])[H]

$$$$
28:2:0
     RDKit          3D

 57 62  0  0  1  0  0  0  0  0999 V2000
    2.1827   -3.8338    3.0404 C   0  0  0  0  0  0  0  0  0  0  0  0
    1.3699   -2.7179    3.3755 O   0  0  0  0  0  0  0  0  0  0  0  0
    1.5435   -1.6352    2.5503 C   0  0  0  0  0  0  0  0  0  0  0  0
    0.8920   -0.4620    2.7336 C   0  0  0  0  0  0  0  0  0  0  0  0
    1.0147    0.7175    1.7648 C   0  0  0  0  0  0  0  0  0  0  0  0
    1.4599    1.9614    2.4680 N   0  0  2  0  0  0  0  0  0  0  0  0
    2.9271    1.8857    2.7903 C   0  0  0  0  0  0  0  0  0  0  0  0
    3.4251    0.9161    3.9189 C   0  0  0  0  0  0  0  0  0  0  0  0
    3.2704    1.2102    5.4455 C   0  0  0  0  0  0  0  0  0  0  0  0
    2.0073    0.7710    6.2632 C   0  0  2  0  0  0  0  0  0  0  0  0
    1.4240   -0.6031    5.9115 C   0  0  0  0  0  0  0  0  0  0  0  0
    0.0479   -0.3456    5.3382 C   0  0  2  0  0  0  0  0  0  0  0  0
   -0.1292   -0.2009    3.8212 C   0  0  1  0  0  0  0  0  0  0  0  0
   -0.2719    1.2788    4.0794 C   0  0  2  0  0  0  0  0  0  0  0  0
    0.5132    2.4716    3.5350 C   0  0  1  0  0  0  0  0  0  0  0  0
    1.2488    3.4336    4.5509 C   0  0  0  0  0  0  0  0  0  0  0  0
    1.0442    3.2135    6.0374 C   0  0  0  0  0  0  0  0  0  0  0  0
    0.7877    1.7520    6.4190 C   0  0  2  0  0  0  0  0  0  0  0  0
    0.3901    1.7127    7.8019 O   0  0  0  0  0  0  0  0  0  0  0  0
    1.2099    2.3956    8.7695 C   0  0  0  0  0  0  0  0  0  0  0  0
   -0.3555    1.1471    5.5620 C   0  0  2  0  0  0  0  0  0  0  0  0
   -1.7691    1.7218    5.8651 C   0  0  0  0  0  0  0  0  0  0  0  0
   -2.1111    3.1686    5.2752 C   0  0  0  0  0  0  0  0  0  0  0  0
   -1.7450    3.6766    3.8201 C   0  0  0  0  0  0  0  0  0  0  0  0
   -2.5169    4.4655    3.2778 O   0  0  0  0  0  0  0  0  0  0  0  0
   -0.6107    3.3364    3.1422 N   0  0  0  0  0  0  0  0  0  0  0  0
    2.0063   -4.6360    3.7535 H   0  0  0  0  0  0  0  0  0  0  0  0
    3.2438   -3.5887    3.0770 H   0  0  0  0  0  0  0  0  0  0  0  0
    1.9461   -4.2175    2.0493 H   0  0  0  0  0  0  0  0  0  0  0  0
    2.2388   -1.8051    1.7360 H   0  0  0  0  0  0  0  0  0  0  0  0
    1.6938    0.4725    0.9461 H   0  0  0  0  0  0  0  0  0  0  0  0
    0.0380    0.8956    1.3082 H   0  0  0  0  0  0  0  0  0  0  0  0
    3.4103    1.5280    1.8814 H   0  0  0  0  0  0  0  0  0  0  0  0
    3.3756    2.8754    2.8879 H   0  0  0  0  0  0  0  0  0  0  0  0
    3.2059   -0.1241    3.7112 H   0  0  0  0  0  0  0  0  0  0  0  0
    4.5068    0.9290    3.7755 H   0  0  0  0  0  0  0  0  0  0  0  0
    4.0722    0.6168    5.8937 H   0  0  0  0  0  0  0  0  0  0  0  0
    3.5809    2.2261    5.6894 H   0  0  0  0  0  0  0  0  0  0  0  0
    2.4243    0.6112    7.2528 H   0  0  0  0  0  0  0  0  0  0  0  0
    2.0665   -1.1874    5.2621 H   0  0  0  0  0  0  0  0  0  0  0  0
    1.3219   -1.1865    6.8239 H   0  0  0  0  0  0  0  0  0  0  0  0
   -0.7125   -1.0200    5.7285 H   0  0  0  0  0  0  0  0  0  0  0  0
   -1.0775   -0.6611    3.5415 H   0  0  0  0  0  0  0  0  0  0  0  0
   -1.2656    1.2562    3.6209 H   0  0  0  0  0  0  0  0  0  0  0  0
    2.3178    3.4693    4.4600 H   0  0  0  0  0  0  0  0  0  0  0  0
    1.0217    4.4800    4.3367 H   0  0  0  0  0  0  0  0  0  0  0  0
    1.9365    3.5947    6.5291 H   0  0  0  0  0  0  0  0  0  0  0  0
    0.2407    3.8468    6.4061 H   0  0  0  0  0  0  0  0  0  0  0  0
    0.8252    2.2259    9.7761 H   0  0  0  0  0  0  0  0  0  0  0  0
    1.2248    3.4779    8.6326 H   0  0  0  0  0  0  0  0  0  0  0  0
    2.2473    2.0613    8.7657 H   0  0  0  0  0  0  0  0  0  0  0  0
   -2.5196    1.0346    5.4760 H   0  0  0  0  0  0  0  0  0  0  0  0
   -1.9565    1.7379    6.9373 H   0  0  0  0  0  0  0  0  0  0  0  0
   -3.1966    3.2682    5.3402 H   0  0  0  0  0  0  0  0  0  0  0  0
   -1.7793    3.9342    5.9708 H   0  0  0  0  0  0  0  0  0  0  0  0
   -0.5097    3.7857    2.2286 H   0  0  0  0  0  0  0  0  0  0  0  0
    1.4074    2.6811    1.7588 H   0  0  0  0  0  0  0  0  0  0  0  0
  1  2  1  0
  1 27  1  0
  1 28  1  0
  1 29  1  0
  2  3  1  0
  3  4  2  3
  3 30  1  0
  4 13  1  0
  4  5  1  0
  5  6  1  0
  5 31  1  0
  5 32  1  0
  6 15  1  0
  6  7  1  0
  6 57  1  6
  7  8  1  0
  7 33  1  0
  7 34  1  0
  8  9  1  0
  8 35  1  0
  8 36  1  0
  9 10  1  0
  9 37  1  0
  9 38  1  0
 10 18  1  0
 10 11  1  0
 10 39  1  1
 11 12  1  0
 11 40  1  0
 11 41  1  0
 12 21  1  0
 12 13  1  0
 12 42  1  1
 13 14  1  0
 13 43  1  6
 14 21  1  0
 14 15  1  0
 14 44  1  6
 15 26  1  6
 15 16  1  0
 16 17  1  0
 16 45  1  0
 16 46  1  0
 17 18  1  0
 17 47  1  0
 17 48  1  0
 18 19  1  1
 18 21  1  0
 19 20  1  0
 20 49  1  0
 20 50  1  0
 20 51  1  0
 21 22  1  1
 22 23  1  0
 22 52  1  0
 22 53  1  0
 23 24  1  0
 23 54  1  0
 23 55  1  0
 24 25  2  0
 24 26  1  0
 26 56  1  0
M  CHG  1   6   1
M  END
>  <i_m_ct_stereo_status>  (113) 
1

>  <s_m_source_file>  (113) 
/var/tmp/pbs.5076255.sched01/tmpon41x2vr/43t03z2zi4.sdf

>  <i_m_source_file_index>  (113) 
8

>  <i_lp_mmshare_version>  (113) 
48012

>  <i_f3d_flags>  (113) 
0

>  <s_epik_input>  (113) 
W0NIM11PL1tDSF09QygvW0NIMl1OMVtDQEBdMjM0KVtDQEhdNVtDQEBIXTZbQ0BAXShbQ0BASF0yNSkoW0NIMl1bQ0gyXUMoPU8pW05IXTQpW0NAQF0oW0NIMl1bQ0gyXTMpKE9bQ0gzXSlbQ0BASF0oW0NIMl02KVtDSDJdW0NIMl1bQ0gyXTE=

>  <s_epik_cmdline>  (113) 
J2VwaWtfcHl0aG9uJywgJy1waHQnLCAnMi4wJywgJy1waCcsICc3LjAnLCAnLXRuJywgJzgnLCAnLW1hJywgJzIwMCcsICctaW1hZScsICc8aW5maWxlLm1hZT4nLCAnLW9tYWUnLCAnPG91dGZpbGUubWFlPic=

>  <r_epik_Ionization_Penalty>  (113) 
1.4419

>  <r_epik_Ionization_Penalty_Charging>  (113) 
1.4419

>  <r_epik_Ionization_Penalty_Neutral>  (113) 
2.68945e-06

>  <r_epik_State_Penalty>  (113) 
1.52737

>  <r_epik_Charging_Adjusted_Penalty>  (113) 
2.96926

>  <i_epik_Tot_Q>  (113) 
1

>  <i_epik_Tot_abs_Q>  (113) 
1

>  <s_lp_Force_Field>  (113) 
OPLS3e

>  <r_lp_Energy>  (113) 
152.498

>  <b_lp_Chiralities_Consistent>  (113) 
1

>  <s_lp_Variant>  (113) 
28:0-3

>  <s_i_glide_gridfile>  (113) 
pfpi4k_grid

>  <i_i_glide_lignum>  (113) 
8

>  <i_i_glide_rotatable_bonds>  (113) 
2

>  <r_i_docking_score>  (113) 
-3.59816

>  <r_i_glide_ligand_efficiency>  (113) 
-0.138391

>  <r_i_glide_ligand_efficiency_sa>  (113) 
-0.409982

>  <r_i_glide_ligand_efficiency_ln>  (113) 
-0.845015

>  <r_i_glide_gscore>  (113) 
-3.59816

>  <r_i_glide_lipo>  (113) 
0

>  <r_i_glide_hbond>  (113) 
-0.370662

>  <r_i_glide_metal>  (113) 
-0

>  <r_i_glide_rewards>  (113) 
-0.958074

>  <r_i_glide_evdw>  (113) 
-14.2235

>  <r_i_glide_ecoul>  (113) 
-9.6765

>  <r_i_glide_erotb>  (113) 
0.148327

>  <r_i_glide_esite>  (113) 
-0.255099

>  <r_i_glide_emodel>  (113) 
-28.9023

>  <r_i_glide_energy>  (113) 
-23.9

>  <r_i_glide_einternal>  (113) 
5.26937

>  <r_i_glide_intrahb_reward>  (113) 
-0

>  <i_i_glide_confnum>  (113) 
2

>  <i_i_glide_posenum>  (113) 
7

>  <r_i_glide_eff_state_penalty>  (113) 
0

>  <ligand_id>  (113) 
28

>  <original_smiles>  (113) 
COC=C1CN2CCCC3CC4C1C1C25CCC3(OC)C41CCC(=O)N5

>  <smiles>  (113) 
[H]C(OC([H])([H])[H])=C1C2([H])C3([H])C([H])([H])C4([H])C([H])([H])C([H])([H])C([H])([H])[N+]([H])(C1([H])[H])C15N([H])C(=O)C([H])([H])C([H])([H])C3(C21[H])C4(OC([H])([H])[H])C([H])([H])C5([H])[H]

$$$$
28:3:0
     RDKit          3D

 57 62  0  0  1  0  0  0  0  0999 V2000
    2.9634   -3.3075    1.9041 C   0  0  0  0  0  0  0  0  0  0  0  0
    2.3832   -2.0137    1.8051 O   0  0  0  0  0  0  0  0  0  0  0  0
    1.4990   -1.7200    2.8094 C   0  0  0  0  0  0  0  0  0  0  0  0
    0.8565   -0.5348    2.8922 C   0  0  0  0  0  0  0  0  0  0  0  0
    0.9556    0.5875    1.8538 C   0  0  0  0  0  0  0  0  0  0  0  0
    1.4207    1.8713    2.4710 N   0  0  2  0  0  0  0  0  0  0  0  0
    2.8989    1.8088    2.7496 C   0  0  0  0  0  0  0  0  0  0  0  0
    3.4324    0.9020    3.9136 C   0  0  0  0  0  0  0  0  0  0  0  0
    3.3172    1.2725    5.4280 C   0  0  0  0  0  0  0  0  0  0  0  0
    2.0768    0.8827    6.3117 C   0  0  2  0  0  0  0  0  0  0  0  0
    1.4838   -0.5122    6.0368 C   0  0  0  0  0  0  0  0  0  0  0  0
    0.0804   -0.2828    5.4925 C   0  0  2  0  0  0  0  0  0  0  0  0
   -0.1455   -0.2133    3.9769 C   0  0  1  0  0  0  0  0  0  0  0  0
   -0.2772    1.2822    4.1569 C   0  0  2  0  0  0  0  0  0  0  0  0
    0.5082    2.4450    3.5391 C   0  0  1  0  0  0  0  0  0  0  0  0
    1.2838    3.4440    4.5011 C   0  0  0  0  0  0  0  0  0  0  0  0
    1.1154    3.2835    6.0083 C   0  0  0  0  0  0  0  0  0  0  0  0
    0.8420    1.8477    6.4397 C   0  0  2  0  0  0  0  0  0  0  0  0
    0.4989    2.0334    7.8210 O   0  0  0  0  0  0  0  0  0  0  0  0
    0.1898    0.9149    8.6454 C   0  0  0  0  0  0  0  0  0  0  0  0
   -0.3219    1.2195    5.6447 C   0  0  2  0  0  0  0  0  0  0  0  0
   -1.7154    1.8323    5.9613 C   0  0  0  0  0  0  0  0  0  0  0  0
   -2.0566    3.2508    5.3147 C   0  0  0  0  0  0  0  0  0  0  0  0
   -1.7331    3.6837    3.8286 C   0  0  0  0  0  0  0  0  0  0  0  0
   -2.5211    4.4548    3.2813 O   0  0  0  0  0  0  0  0  0  0  0  0
   -0.6259    3.3040    3.1341 N   0  0  0  0  0  0  0  0  0  0  0  0
    3.6488   -3.4694    1.0735 H   0  0  0  0  0  0  0  0  0  0  0  0
    2.2082   -4.0920    1.8624 H   0  0  0  0  0  0  0  0  0  0  0  0
    3.5326   -3.4236    2.8264 H   0  0  0  0  0  0  0  0  0  0  0  0
    1.3802   -2.5148    3.5357 H   0  0  0  0  0  0  0  0  0  0  0  0
    1.6074    0.2999    1.0260 H   0  0  0  0  0  0  0  0  0  0  0  0
   -0.0346    0.7454    1.4170 H   0  0  0  0  0  0  0  0  0  0  0  0
    3.3486    1.4024    1.8424 H   0  0  0  0  0  0  0  0  0  0  0  0
    3.3440    2.8037    2.7799 H   0  0  0  0  0  0  0  0  0  0  0  0
    3.2180   -0.1476    3.7618 H   0  0  0  0  0  0  0  0  0  0  0  0
    4.5087    0.9137    3.7365 H   0  0  0  0  0  0  0  0  0  0  0  0
    4.1343    0.7040    5.8799 H   0  0  0  0  0  0  0  0  0  0  0  0
    3.6375    2.2976    5.6077 H   0  0  0  0  0  0  0  0  0  0  0  0
    2.5277    0.8456    7.3013 H   0  0  0  0  0  0  0  0  0  0  0  0
    2.1055   -1.1310    5.3963 H   0  0  0  0  0  0  0  0  0  0  0  0
    1.4162   -1.0625    6.9725 H   0  0  0  0  0  0  0  0  0  0  0  0
   -0.6675   -0.9299    5.9482 H   0  0  0  0  0  0  0  0  0  0  0  0
   -1.0931   -0.6968    3.7277 H   0  0  0  0  0  0  0  0  0  0  0  0
   -1.2847    1.2482    3.7287 H   0  0  0  0  0  0  0  0  0  0  0  0
    2.3497    3.4748    4.3687 H   0  0  0  0  0  0  0  0  0  0  0  0
    1.0556    4.4814    4.2473 H   0  0  0  0  0  0  0  0  0  0  0  0
    2.0008    3.6598    6.5201 H   0  0  0  0  0  0  0  0  0  0  0  0
    0.3252    3.9410    6.3605 H   0  0  0  0  0  0  0  0  0  0  0  0
   -0.1653    1.2858    9.6065 H   0  0  0  0  0  0  0  0  0  0  0  0
    1.0556    0.2878    8.8541 H   0  0  0  0  0  0  0  0  0  0  0  0
   -0.5984    0.2966    8.2211 H   0  0  0  0  0  0  0  0  0  0  0  0
   -2.4900    1.1351    5.6448 H   0  0  0  0  0  0  0  0  0  0  0  0
   -1.8670    1.9196    7.0362 H   0  0  0  0  0  0  0  0  0  0  0  0
   -3.1370    3.3591    5.4122 H   0  0  0  0  0  0  0  0  0  0  0  0
   -1.6964    4.0486    5.9570 H   0  0  0  0  0  0  0  0  0  0  0  0
   -0.5404    3.7285    2.2066 H   0  0  0  0  0  0  0  0  0  0  0  0
    1.3499    2.5544    1.7258 H   0  0  0  0  0  0  0  0  0  0  0  0
  1  2  1  0
  1 27  1  0
  1 28  1  0
  1 29  1  0
  2  3  1  0
  3  4  2  3
  3 30  1  0
  4 13  1  0
  4  5  1  0
  5  6  1  0
  5 31  1  0
  5 32  1  0
  6 15  1  0
  6  7  1  0
  6 57  1  6
  7  8  1  0
  7 33  1  0
  7 34  1  0
  8  9  1  0
  8 35  1  0
  8 36  1  0
  9 10  1  0
  9 37  1  0
  9 38  1  0
 10 18  1  0
 10 11  1  0
 10 39  1  1
 11 12  1  0
 11 40  1  0
 11 41  1  0
 12 21  1  0
 12 13  1  0
 12 42  1  1
 13 14  1  0
 13 43  1  1
 14 21  1  0
 14 15  1  0
 14 44  1  6
 15 26  1  6
 15 16  1  0
 16 17  1  0
 16 45  1  0
 16 46  1  0
 17 18  1  0
 17 47  1  0
 17 48  1  0
 18 19  1  1
 18 21  1  0
 19 20  1  0
 20 49  1  0
 20 50  1  0
 20 51  1  0
 21 22  1  1
 22 23  1  0
 22 52  1  0
 22 53  1  0
 23 24  1  0
 23 54  1  0
 23 55  1  0
 24 25  2  0
 24 26  1  0
 26 56  1  0
M  CHG  1   6   1
M  END
>  <i_m_ct_stereo_status>  (114) 
1

>  <s_m_source_file>  (114) 
/var/tmp/pbs.5076255.sched01/tmpon41x2vr/43t03z2zi4.sdf

>  <i_m_source_file_index>  (114) 
9

>  <i_lp_mmshare_version>  (114) 
48012

>  <i_f3d_flags>  (114) 
0

>  <s_epik_input>  (114) 
W0NIM11PL1tDSF09QygvW0NIMl1OMVtDQEBdMjM0KVtDQEhdNVtDQEBIXTZbQ0BAXShbQ0BASF0yNSkoW0NIMl1bQ0gyXUMoPU8pW05IXTQpW0NAQF0oW0NIMl1bQ0gyXTMpKE9bQ0gzXSlbQ0BASF0oW0NIMl02KVtDSDJdW0NIMl1bQ0gyXTE=

>  <s_epik_cmdline>  (114) 
J2VwaWtfcHl0aG9uJywgJy1waHQnLCAnMi4wJywgJy1waCcsICc3LjAnLCAnLXRuJywgJzgnLCAnLW1hJywgJzIwMCcsICctaW1hZScsICc8aW5maWxlLm1hZT4nLCAnLW9tYWUnLCAnPG91dGZpbGUubWFlPic=

>  <r_epik_Ionization_Penalty>  (114) 
1.4419

>  <r_epik_Ionization_Penalty_Charging>  (114) 
1.4419

>  <r_epik_Ionization_Penalty_Neutral>  (114) 
2.68945e-06

>  <r_epik_State_Penalty>  (114) 
1.52737

>  <r_epik_Charging_Adjusted_Penalty>  (114) 
2.96926

>  <i_epik_Tot_Q>  (114) 
1

>  <i_epik_Tot_abs_Q>  (114) 
1

>  <s_lp_Force_Field>  (114) 
OPLS3e

>  <r_lp_Energy>  (114) 
152.27

>  <b_lp_Chiralities_Consistent>  (114) 
1

>  <s_lp_Variant>  (114) 
28:0-4

>  <s_i_glide_gridfile>  (114) 
pfpi4k_grid

>  <i_i_glide_lignum>  (114) 
9

>  <i_i_glide_rotatable_bonds>  (114) 
2

>  <r_i_docking_score>  (114) 
-3.48897

>  <r_i_glide_ligand_efficiency>  (114) 
-0.134191

>  <r_i_glide_ligand_efficiency_sa>  (114) 
-0.397541

>  <r_i_glide_ligand_efficiency_ln>  (114) 
-0.819374

>  <r_i_glide_gscore>  (114) 
-3.48897

>  <r_i_glide_lipo>  (114) 
0

>  <r_i_glide_hbond>  (114) 
-0.349216

>  <r_i_glide_metal>  (114) 
-0

>  <r_i_glide_rewards>  (114) 
-0.958074

>  <r_i_glide_evdw>  (114) 
-14.7822

>  <r_i_glide_ecoul>  (114) 
-8.93932

>  <r_i_glide_erotb>  (114) 
0.148327

>  <r_i_glide_esite>  (114) 
-0.250002

>  <r_i_glide_emodel>  (114) 
-29.7585

>  <r_i_glide_energy>  (114) 
-23.7215

>  <r_i_glide_einternal>  (114) 
2.58602

>  <r_i_glide_intrahb_reward>  (114) 
-0

>  <i_i_glide_confnum>  (114) 
2

>  <i_i_glide_posenum>  (114) 
11

>  <r_i_glide_eff_state_penalty>  (114) 
0

>  <ligand_id>  (114) 
28

>  <original_smiles>  (114) 
COC=C1CN2CCCC3CC4C1C1C25CCC3(OC)C41CCC(=O)N5

>  <smiles>  (114) 
[H]C(OC([H])([H])[H])=C1C2([H])C3([H])C([H])([H])C4([H])C([H])([H])C([H])([H])C([H])([H])[N+]([H])(C1([H])[H])C15N([H])C(=O)C([H])([H])C([H])([H])C3(C21[H])C4(OC([H])([H])[H])C([H])([H])C5([H])[H]

$$$$
28:3:1
     RDKit          3D

 57 62  0  0  1  0  0  0  0  0999 V2000
    3.5774   -2.9757    2.1032 C   0  0  0  0  0  0  0  0  0  0  0  0
    2.8541   -1.7634    1.9381 O   0  0  0  0  0  0  0  0  0  0  0  0
    1.8828   -1.5616    2.8847 C   0  0  0  0  0  0  0  0  0  0  0  0
    1.0921   -0.4723    2.8911 C   0  0  0  0  0  0  0  0  0  0  0  0
    1.1015    0.6116    1.8101 C   0  0  0  0  0  0  0  0  0  0  0  0
    1.3625    1.9757    2.3893 N   0  0  2  0  0  0  0  0  0  0  0  0
    2.8148    2.1120    2.7552 C   0  0  0  0  0  0  0  0  0  0  0  0
    3.3934    1.3266    3.9777 C   0  0  0  0  0  0  0  0  0  0  0  0
    3.1581    1.7336    5.4614 C   0  0  0  0  0  0  0  0  0  0  0  0
    1.9381    1.2103    6.2826 C   0  0  2  0  0  0  0  0  0  0  0  0
    1.5397   -0.2495    6.0516 C   0  0  0  0  0  0  0  0  0  0  0  0
    0.1618   -0.2077    5.4334 C   0  0  2  0  0  0  0  0  0  0  0  0
    0.0098   -0.2340    3.9211 C   0  0  1  0  0  0  0  0  0  0  0  0
   -0.3109    1.2308    4.0339 C   0  0  2  0  0  0  0  0  0  0  0  0
    0.3303    2.4552    3.3895 C   0  0  1  0  0  0  0  0  0  0  0  0
    0.9052    3.5937    4.3141 C   0  0  0  0  0  0  0  0  0  0  0  0
    0.6835    3.4847    5.8109 C   0  0  0  0  0  0  0  0  0  0  0  0
    0.6049    2.0431    6.3302 C   0  0  2  0  0  0  0  0  0  0  0  0
    0.1843    2.0660    7.7061 O   0  0  0  0  0  0  0  0  0  0  0  0
    0.8882    2.9148    8.6333 C   0  0  0  0  0  0  0  0  0  0  0  0
   -0.4284    1.2300    5.5169 C   0  0  2  0  0  0  0  0  0  0  0  0
   -1.9112    1.6398    5.7387 C   0  0  0  0  0  0  0  0  0  0  0  0
   -2.4090    2.9667    5.0136 C   0  0  0  0  0  0  0  0  0  0  0  0
   -2.0645    3.3741    3.5266 C   0  0  0  0  0  0  0  0  0  0  0  0
   -2.9074    4.0053    2.9106 O   0  0  0  0  0  0  0  0  0  0  0  0
   -0.8772    3.1177    2.8836 N   0  0  0  0  0  0  0  0  0  0  0  0
    4.3298   -3.0795    1.3225 H   0  0  0  0  0  0  0  0  0  0  0  0
    2.9252   -3.8464    2.0389 H   0  0  0  0  0  0  0  0  0  0  0  0
    4.0990   -3.0126    3.0597 H   0  0  0  0  0  0  0  0  0  0  0  0
    1.8398   -2.3418    3.6316 H   0  0  0  0  0  0  0  0  0  0  0  0
    1.8310    0.3816    1.0331 H   0  0  0  0  0  0  0  0  0  0  0  0
    0.1310    0.6254    1.3090 H   0  0  0  0  0  0  0  0  0  0  0  0
    3.3588    1.7272    1.8966 H   0  0  0  0  0  0  0  0  0  0  0  0
    3.1288    3.1569    2.7522 H   0  0  0  0  0  0  0  0  0  0  0  0
    3.3277    0.2541    3.8548 H   0  0  0  0  0  0  0  0  0  0  0  0
    4.4656    1.4663    3.8548 H   0  0  0  0  0  0  0  0  0  0  0  0
    4.0111    1.2899    5.9760 H   0  0  0  0  0  0  0  0  0  0  0  0
    3.3326    2.7972    5.6170 H   0  0  0  0  0  0  0  0  0  0  0  0
    2.3481    1.1652    7.2862 H   0  0  0  0  0  0  0  0  0  0  0  0
    2.2689   -0.8103    5.4761 H   0  0  0  0  0  0  0  0  0  0  0  0
    1.4761   -0.7508    7.0156 H   0  0  0  0  0  0  0  0  0  0  0  0
   -0.5289   -0.9245    5.8550 H   0  0  0  0  0  0  0  0  0  0  0  0
   -0.8645   -0.8450    3.6884 H   0  0  0  0  0  0  0  0  0  0  0  0
   -1.2780    1.0318    3.5705 H   0  0  0  0  0  0  0  0  0  0  0  0
    1.9660    3.7544    4.2389 H   0  0  0  0  0  0  0  0  0  0  0  0
    0.5475    4.5746    3.9891 H   0  0  0  0  0  0  0  0  0  0  0  0
    1.5150    4.0256    6.2447 H   0  0  0  0  0  0  0  0  0  0  0  0
   -0.1941    4.0491    6.1106 H   0  0  0  0  0  0  0  0  0  0  0  0
    0.4805    2.8126    9.6394 H   0  0  0  0  0  0  0  0  0  0  0  0
    0.8145    3.9746    8.3997 H   0  0  0  0  0  0  0  0  0  0  0  0
    1.9508    2.6944    8.7013 H   0  0  0  0  0  0  0  0  0  0  0  0
   -2.5622    0.8298    5.4034 H   0  0  0  0  0  0  0  0  0  0  0  0
   -2.1232    1.7317    6.8003 H   0  0  0  0  0  0  0  0  0  0  0  0
   -3.5021    2.9462    5.0380 H   0  0  0  0  0  0  0  0  0  0  0  0
   -2.1971    3.8355    5.6310 H   0  0  0  0  0  0  0  0  0  0  0  0
   -0.7651    3.5625    1.9840 H   0  0  0  0  0  0  0  0  0  0  0  0
    1.2464    2.6224    1.6255 H   0  0  0  0  0  0  0  0  0  0  0  0
  1  2  1  0
  1 27  1  0
  1 28  1  0
  1 29  1  0
  2  3  1  0
  3  4  2  3
  3 30  1  0
  4 13  1  0
  4  5  1  0
  5  6  1  0
  5 31  1  0
  5 32  1  0
  6 15  1  0
  6  7  1  0
  6 57  1  6
  7  8  1  0
  7 33  1  0
  7 34  1  0
  8  9  1  0
  8 35  1  0
  8 36  1  0
  9 10  1  0
  9 37  1  0
  9 38  1  0
 10 18  1  0
 10 11  1  0
 10 39  1  1
 11 12  1  0
 11 40  1  0
 11 41  1  0
 12 21  1  0
 12 13  1  0
 12 42  1  1
 13 14  1  0
 13 43  1  1
 14 21  1  0
 14 15  1  0
 14 44  1  6
 15 26  1  6
 15 16  1  0
 16 17  1  0
 16 45  1  0
 16 46  1  0
 17 18  1  0
 17 47  1  0
 17 48  1  0
 18 19  1  1
 18 21  1  0
 19 20  1  0
 20 49  1  0
 20 50  1  0
 20 51  1  0
 21 22  1  6
 22 23  1  0
 22 52  1  0
 22 53  1  0
 23 24  1  0
 23 54  1  0
 23 55  1  0
 24 25  2  0
 24 26  1  0
 26 56  1  0
M  CHG  1   6   1
M  END
>  <i_m_ct_stereo_status>  (115) 
1

>  <s_m_source_file>  (115) 
/var/tmp/pbs.5076255.sched01/tmpon41x2vr/43t03z2zi4.sdf

>  <i_m_source_file_index>  (115) 
9

>  <i_lp_mmshare_version>  (115) 
48012

>  <i_f3d_flags>  (115) 
0

>  <s_epik_input>  (115) 
W0NIM11PL1tDSF09QygvW0NIMl1OMVtDQEBdMjM0KVtDQEhdNVtDQEBIXTZbQ0BAXShbQ0BASF0yNSkoW0NIMl1bQ0gyXUMoPU8pW05IXTQpW0NAQF0oW0NIMl1bQ0gyXTMpKE9bQ0gzXSlbQ0BASF0oW0NIMl02KVtDSDJdW0NIMl1bQ0gyXTE=

>  <s_epik_cmdline>  (115) 
J2VwaWtfcHl0aG9uJywgJy1waHQnLCAnMi4wJywgJy1waCcsICc3LjAnLCAnLXRuJywgJzgnLCAnLW1hJywgJzIwMCcsICctaW1hZScsICc8aW5maWxlLm1hZT4nLCAnLW9tYWUnLCAnPG91dGZpbGUubWFlPic=

>  <r_epik_Ionization_Penalty>  (115) 
1.4419

>  <r_epik_Ionization_Penalty_Charging>  (115) 
1.4419

>  <r_epik_Ionization_Penalty_Neutral>  (115) 
2.68945e-06

>  <r_epik_State_Penalty>  (115) 
1.52737

>  <r_epik_Charging_Adjusted_Penalty>  (115) 
2.96926

>  <i_epik_Tot_Q>  (115) 
1

>  <i_epik_Tot_abs_Q>  (115) 
1

>  <s_lp_Force_Field>  (115) 
OPLS3e

>  <r_lp_Energy>  (115) 
152.27

>  <b_lp_Chiralities_Consistent>  (115) 
1

>  <s_lp_Variant>  (115) 
28:0-4

>  <s_i_glide_gridfile>  (115) 
pfpi4k_grid

>  <i_i_glide_lignum>  (115) 
9

>  <i_i_glide_rotatable_bonds>  (115) 
2

>  <r_i_docking_score>  (115) 
-3.35261

>  <r_i_glide_ligand_efficiency>  (115) 
-0.128947

>  <r_i_glide_ligand_efficiency_sa>  (115) 
-0.382004

>  <r_i_glide_ligand_efficiency_ln>  (115) 
-0.787351

>  <r_i_glide_gscore>  (115) 
-3.35261

>  <r_i_glide_lipo>  (115) 
0

>  <r_i_glide_hbond>  (115) 
-0.260632

>  <r_i_glide_metal>  (115) 
-0

>  <r_i_glide_rewards>  (115) 
-0.958074

>  <r_i_glide_evdw>  (115) 
-15.7661

>  <r_i_glide_ecoul>  (115) 
-8.17096

>  <r_i_glide_erotb>  (115) 
0.148327

>  <r_i_glide_esite>  (115) 
-0.268289

>  <r_i_glide_emodel>  (115) 
-27.632

>  <r_i_glide_energy>  (115) 
-23.937

>  <r_i_glide_einternal>  (115) 
5.75447

>  <r_i_glide_intrahb_reward>  (115) 
-0

>  <i_i_glide_confnum>  (115) 
3

>  <i_i_glide_posenum>  (115) 
14

>  <r_i_glide_eff_state_penalty>  (115) 
0

>  <ligand_id>  (115) 
28

>  <original_smiles>  (115) 
COC=C1CN2CCCC3CC4C1C1C25CCC3(OC)C41CCC(=O)N5

>  <smiles>  (115) 
[H]C(OC([H])([H])[H])=C1C2([H])C3([H])C([H])([H])C4([H])C([H])([H])C([H])([H])C([H])([H])[N+]([H])(C1([H])[H])C15N([H])C(=O)C([H])([H])C([H])([H])C3(C21[H])C4(OC([H])([H])[H])C([H])([H])C5([H])[H]

$$$$
28:3:2
     RDKit          3D

 57 62  0  0  1  0  0  0  0  0999 V2000
    3.0092   -3.0641    0.7662 C   0  0  0  0  0  0  0  0  0  0  0  0
    2.9138   -1.7135    1.2034 O   0  0  0  0  0  0  0  0  0  0  0  0
    1.7405   -1.4228    1.8518 C   0  0  0  0  0  0  0  0  0  0  0  0
    1.4128   -0.1710    2.2413 C   0  0  0  0  0  0  0  0  0  0  0  0
    2.2335    1.0729    1.9308 C   0  0  0  0  0  0  0  0  0  0  0  0
    2.6237    1.7962    3.1826 N   0  0  2  0  0  0  0  0  0  0  0  0
    3.7318    1.0644    3.8944 C   0  0  0  0  0  0  0  0  0  0  0  0
    3.4310   -0.2912    4.6154 C   0  0  0  0  0  0  0  0  0  0  0  0
    2.6904   -0.4004    5.9848 C   0  0  0  0  0  0  0  0  0  0  0  0
    1.1304   -0.5161    6.0965 C   0  0  2  0  0  0  0  0  0  0  0  0
    0.4373   -1.3859    5.0385 C   0  0  0  0  0  0  0  0  0  0  0  0
   -0.4369   -0.4545    4.2251 C   0  0  2  0  0  0  0  0  0  0  0  0
    0.1141    0.1684    2.9358 C   0  0  1  0  0  0  0  0  0  0  0  0
    0.2489    1.4499    3.7286 C   0  0  2  0  0  0  0  0  0  0  0  0
    1.4643    2.3399    4.0047 C   0  0  1  0  0  0  0  0  0  0  0  0
    1.8942    2.5957    5.5055 C   0  0  0  0  0  0  0  0  0  0  0  0
    1.0114    2.0636    6.6151 C   0  0  0  0  0  0  0  0  0  0  0  0
    0.2531    0.7790    6.2569 C   0  0  2  0  0  0  0  0  0  0  0  0
   -0.6979    0.5103    7.3104 O   0  0  0  0  0  0  0  0  0  0  0  0
   -0.2115    0.5232    8.6677 C   0  0  0  0  0  0  0  0  0  0  0  0
   -0.5072    0.9438    4.9122 C   0  0  2  0  0  0  0  0  0  0  0  0
   -1.7163    1.9161    4.9696 C   0  0  0  0  0  0  0  0  0  0  0  0
   -1.3818    3.4768    4.9760 C   0  0  0  0  0  0  0  0  0  0  0  0
   -0.3151    4.1988    4.0659 C   0  0  0  0  0  0  0  0  0  0  0  0
   -0.5875    5.3446    3.7134 O   0  0  0  0  0  0  0  0  0  0  0  0
    0.8837    3.6627    3.6793 N   0  0  0  0  0  0  0  0  0  0  0  0
    3.9562   -3.2237    0.2513 H   0  0  0  0  0  0  0  0  0  0  0  0
    2.2131   -3.3180    0.0669 H   0  0  0  0  0  0  0  0  0  0  0  0
    2.9698   -3.7601    1.6038 H   0  0  0  0  0  0  0  0  0  0  0  0
    1.1191   -2.2841    2.0482 H   0  0  0  0  0  0  0  0  0  0  0  0
    3.1180    0.8242    1.3407 H   0  0  0  0  0  0  0  0  0  0  0  0
    1.6287    1.7395    1.3120 H   0  0  0  0  0  0  0  0  0  0  0  0
    4.4569    0.8151    3.1225 H   0  0  0  0  0  0  0  0  0  0  0  0
    4.3235    1.7352    4.5194 H   0  0  0  0  0  0  0  0  0  0  0  0
    3.0855   -1.0597    3.9373 H   0  0  0  0  0  0  0  0  0  0  0  0
    4.4310   -0.6558    4.8444 H   0  0  0  0  0  0  0  0  0  0  0  0
    3.0380   -1.3615    6.3753 H   0  0  0  0  0  0  0  0  0  0  0  0
    3.0998    0.2966    6.7155 H   0  0  0  0  0  0  0  0  0  0  0  0
    1.0170   -1.1018    7.0031 H   0  0  0  0  0  0  0  0  0  0  0  0
    1.1312   -1.9710    4.4422 H   0  0  0  0  0  0  0  0  0  0  0  0
   -0.1957   -2.1141    5.5432 H   0  0  0  0  0  0  0  0  0  0  0  0
   -1.4383   -0.8491    4.0549 H   0  0  0  0  0  0  0  0  0  0  0  0
   -0.6770    0.2162    2.1842 H   0  0  0  0  0  0  0  0  0  0  0  0
   -0.4120    1.9550    3.0178 H   0  0  0  0  0  0  0  0  0  0  0  0
    2.8651    2.2285    5.7773 H   0  0  0  0  0  0  0  0  0  0  0  0
    2.0506    3.6572    5.6922 H   0  0  0  0  0  0  0  0  0  0  0  0
    1.6633    1.9083    7.4716 H   0  0  0  0  0  0  0  0  0  0  0  0
    0.3148    2.8311    6.9466 H   0  0  0  0  0  0  0  0  0  0  0  0
   -0.9944    0.2503    9.3680 H   0  0  0  0  0  0  0  0  0  0  0  0
    0.1284    1.5040    8.9969 H   0  0  0  0  0  0  0  0  0  0  0  0
    0.5931   -0.1864    8.8454 H   0  0  0  0  0  0  0  0  0  0  0  0
   -2.3749    1.7365    4.1146 H   0  0  0  0  0  0  0  0  0  0  0  0
   -2.3428    1.7060    5.8373 H   0  0  0  0  0  0  0  0  0  0  0  0
   -2.3219    3.9699    4.7231 H   0  0  0  0  0  0  0  0  0  0  0  0
   -1.2183    3.8238    5.9921 H   0  0  0  0  0  0  0  0  0  0  0  0
    1.4204    4.2652    3.0721 H   0  0  0  0  0  0  0  0  0  0  0  0
    3.1016    2.6221    2.8478 H   0  0  0  0  0  0  0  0  0  0  0  0
  1  2  1  0
  1 27  1  0
  1 28  1  0
  1 29  1  0
  2  3  1  0
  3  4  2  3
  3 30  1  0
  4 13  1  0
  4  5  1  0
  5  6  1  0
  5 31  1  0
  5 32  1  0
  6 15  1  0
  6  7  1  0
  6 57  1  6
  7  8  1  0
  7 33  1  0
  7 34  1  0
  8  9  1  0
  8 35  1  0
  8 36  1  0
  9 10  1  0
  9 37  1  0
  9 38  1  0
 10 18  1  0
 10 11  1  0
 10 39  1  1
 11 12  1  0
 11 40  1  0
 11 41  1  0
 12 21  1  0
 12 13  1  0
 12 42  1  6
 13 14  1  0
 13 43  1  6
 14 21  1  0
 14 15  1  0
 14 44  1  6
 15 26  1  6
 15 16  1  0
 16 17  1  0
 16 45  1  0
 16 46  1  0
 17 18  1  0
 17 47  1  0
 17 48  1  0
 18 19  1  1
 18 21  1  0
 19 20  1  0
 20 49  1  0
 20 50  1  0
 20 51  1  0
 21 22  1  1
 22 23  1  0
 22 52  1  0
 22 53  1  0
 23 24  1  0
 23 54  1  0
 23 55  1  0
 24 25  2  0
 24 26  1  0
 26 56  1  0
M  CHG  1   6   1
M  END
>  <i_m_ct_stereo_status>  (116) 
1

>  <s_m_source_file>  (116) 
/var/tmp/pbs.5076255.sched01/tmpon41x2vr/43t03z2zi4.sdf

>  <i_m_source_file_index>  (116) 
9

>  <i_lp_mmshare_version>  (116) 
48012

>  <i_f3d_flags>  (116) 
0

>  <s_epik_input>  (116) 
W0NIM11PL1tDSF09QygvW0NIMl1OMVtDQEBdMjM0KVtDQEhdNVtDQEBIXTZbQ0BAXShbQ0BASF0yNSkoW0NIMl1bQ0gyXUMoPU8pW05IXTQpW0NAQF0oW0NIMl1bQ0gyXTMpKE9bQ0gzXSlbQ0BASF0oW0NIMl02KVtDSDJdW0NIMl1bQ0gyXTE=

>  <s_epik_cmdline>  (116) 
J2VwaWtfcHl0aG9uJywgJy1waHQnLCAnMi4wJywgJy1waCcsICc3LjAnLCAnLXRuJywgJzgnLCAnLW1hJywgJzIwMCcsICctaW1hZScsICc8aW5maWxlLm1hZT4nLCAnLW9tYWUnLCAnPG91dGZpbGUubWFlPic=

>  <r_epik_Ionization_Penalty>  (116) 
1.4419

>  <r_epik_Ionization_Penalty_Charging>  (116) 
1.4419

>  <r_epik_Ionization_Penalty_Neutral>  (116) 
2.68945e-06

>  <r_epik_State_Penalty>  (116) 
1.52737

>  <r_epik_Charging_Adjusted_Penalty>  (116) 
2.96926

>  <i_epik_Tot_Q>  (116) 
1

>  <i_epik_Tot_abs_Q>  (116) 
1

>  <s_lp_Force_Field>  (116) 
OPLS3e

>  <r_lp_Energy>  (116) 
152.27

>  <b_lp_Chiralities_Consistent>  (116) 
1

>  <s_lp_Variant>  (116) 
28:0-4

>  <s_i_glide_gridfile>  (116) 
pfpi4k_grid

>  <i_i_glide_lignum>  (116) 
9

>  <i_i_glide_rotatable_bonds>  (116) 
2

>  <r_i_docking_score>  (116) 
-2.97899

>  <r_i_glide_ligand_efficiency>  (116) 
-0.114576

>  <r_i_glide_ligand_efficiency_sa>  (116) 
-0.339432

>  <r_i_glide_ligand_efficiency_ln>  (116) 
-0.699605

>  <r_i_glide_gscore>  (116) 
-2.97899

>  <r_i_glide_lipo>  (116) 
-0.000140889

>  <r_i_glide_hbond>  (116) 
-0.138447

>  <r_i_glide_metal>  (116) 
-0

>  <r_i_glide_rewards>  (116) 
-0.958074

>  <r_i_glide_evdw>  (116) 
-17.5901

>  <r_i_glide_ecoul>  (116) 
-6.42392

>  <r_i_glide_erotb>  (116) 
0.148327

>  <r_i_glide_esite>  (116) 
-0.187556

>  <r_i_glide_emodel>  (116) 
-26.8814

>  <r_i_glide_energy>  (116) 
-24.0141

>  <r_i_glide_einternal>  (116) 
5.89021

>  <r_i_glide_intrahb_reward>  (116) 
-0

>  <i_i_glide_confnum>  (116) 
2

>  <i_i_glide_posenum>  (116) 
7

>  <r_i_glide_eff_state_penalty>  (116) 
0

>  <ligand_id>  (116) 
28

>  <original_smiles>  (116) 
COC=C1CN2CCCC3CC4C1C1C25CCC3(OC)C41CCC(=O)N5

>  <smiles>  (116) 
[H]C(OC([H])([H])[H])=C1C2([H])C3([H])C([H])([H])C4([H])C([H])([H])C([H])([H])C([H])([H])[N+]([H])(C1([H])[H])C15N([H])C(=O)C([H])([H])C([H])([H])C3(C21[H])C4(OC([H])([H])[H])C([H])([H])C5([H])[H]

$$$$
32:0:0
     RDKit          3D

 30 34  0  0  1  0  0  0  0  0999 V2000
    3.8085   -1.4582   -4.6981 O   0  0  0  0  0  0  0  0  0  0  0  0
    3.7367   -2.4772   -3.7164 C   0  0  2  0  0  0  0  0  0  0  0  0
    2.4013   -2.2970   -3.0166 C   0  0  0  0  0  0  0  0  0  0  0  0
    2.2475   -3.1983   -1.7973 C   0  0  0  0  0  0  0  0  0  0  0  0
    3.2494   -2.9171   -0.6537 C   0  0  1  0  0  0  0  0  0  0  0  0
    4.3226   -3.9385   -0.5034 C   0  0  2  0  0  0  0  0  0  0  0  0
    5.1155   -3.6412    0.8797 C   0  0  0  0  0  0  0  0  0  0  0  0
    5.8649   -2.2389    0.8959 C   0  0  0  0  0  0  0  0  0  0  0  0
    5.9214   -1.4633   -0.2863 C   0  0  0  0  0  0  0  0  0  0  0  0
    5.0637   -1.2108   -1.7415 C   0  0  2  0  0  0  0  0  0  0  0  0
    4.2467   -1.7778   -0.8073 C   0  0  2  0  0  0  0  0  0  0  0  0
    5.8776   -2.4396   -1.2536 C   0  0  1  0  0  0  0  0  0  0  0  0
    5.1607   -3.5696   -1.7702 C   0  0  2  0  0  0  0  0  0  0  0  0
    4.9707   -2.4080   -2.7870 C   0  0  1  0  0  0  0  0  0  0  0  0
    2.9502   -1.3687   -5.0956 H   0  0  0  0  0  0  0  0  0  0  0  0
    3.7456   -3.4419   -4.2327 H   0  0  0  0  0  0  0  0  0  0  0  0
    2.2520   -1.2539   -2.7210 H   0  0  0  0  0  0  0  0  0  0  0  0
    1.6101   -2.5362   -3.7267 H   0  0  0  0  0  0  0  0  0  0  0  0
    1.2384   -3.0571   -1.4173 H   0  0  0  0  0  0  0  0  0  0  0  0
    2.2640   -4.2369   -2.1001 H   0  0  0  0  0  0  0  0  0  0  0  0
    2.6949   -2.8268    0.2838 H   0  0  0  0  0  0  0  0  0  0  0  0
    3.9317   -4.9588   -0.5399 H   0  0  0  0  0  0  0  0  0  0  0  0
    4.4255   -3.6660    1.7202 H   0  0  0  0  0  0  0  0  0  0  0  0
    5.8677   -4.4132    1.0490 H   0  0  0  0  0  0  0  0  0  0  0  0
    6.3289   -1.9154    1.8083 H   0  0  0  0  0  0  0  0  0  0  0  0
    4.7622   -0.2119   -2.0609 H   0  0  0  0  0  0  0  0  0  0  0  0
    3.8903   -0.8867   -0.2282 H   0  0  0  0  0  0  0  0  0  0  0  0
    6.7477   -3.0167   -0.8918 H   0  0  0  0  0  0  0  0  0  0  0  0
    5.8079   -4.3596   -2.1471 H   0  0  0  0  0  0  0  0  0  0  0  0
    5.8163   -2.4048   -3.4875 H   0  0  0  0  0  0  0  0  0  0  0  0
  1  2  1  0
  1 15  1  0
  2 14  1  0
  2  3  1  0
  2 16  1  6
  3  4  1  0
  3 17  1  0
  3 18  1  0
  4  5  1  0
  4 19  1  0
  4 20  1  0
  5 11  1  0
  5  6  1  0
  5 21  1  1
  6 13  1  0
  6  7  1  0
  6 22  1  6
  7  8  1  0
  7 23  1  0
  7 24  1  0
  8  9  2  0
  8 25  1  0
  9 12  1  0
  9 10  1  0
 10 14  1  0
 10 11  1  0
 10 26  1  6
 11 12  1  0
 11 27  1  1
 12 13  1  0
 12 28  1  6
 13 14  1  0
 13 29  1  6
 14 30  1  6
M  END
>  <i_m_ct_stereo_status>  (117) 
1

>  <s_m_source_file>  (117) 
/var/tmp/pbs.5076255.sched01/tmpon41x2vr/43t03z2zi4.sdf

>  <i_m_source_file_index>  (117) 
13

>  <i_lp_mmshare_version>  (117) 
48012

>  <i_f3d_flags>  (117) 
0

>  <s_epik_input>  (117) 
W0NIMl0xW0NIMl1bQ0BASF0oW09IXSlbQ0BIXTJbQ0BASF0oW0NIXTM0KUMoPVtDSF1bQ0gyXTUpW0NASF00W0NASF0yW0NAQEhdNVtDQEhdMTM=

>  <s_epik_cmdline>  (117) 
J2VwaWtfcHl0aG9uJywgJy1waHQnLCAnMi4wJywgJy1waCcsICc3LjAnLCAnLXRuJywgJzgnLCAnLW1hJywgJzIwMCcsICctaW1hZScsICc8aW5maWxlLm1hZT4nLCAnLW9tYWUnLCAnPG91dGZpbGUubWFlPic=

>  <r_lp_tautomer_probability>  (117) 
1

>  <r_epik_Ionization_Penalty>  (117) 
1.72468e-06

>  <r_epik_Ionization_Penalty_Charging>  (117) 
0

>  <r_epik_Ionization_Penalty_Neutral>  (117) 
1.72468e-06

>  <r_epik_State_Penalty>  (117) 
-0

>  <r_epik_Charging_Adjusted_Penalty>  (117) 
0

>  <i_epik_Tot_Q>  (117) 
0

>  <i_epik_Tot_abs_Q>  (117) 
0

>  <s_lp_Force_Field>  (117) 
OPLS3e

>  <r_lp_Energy>  (117) 
379.642

>  <b_lp_Chiralities_Consistent>  (117) 
1

>  <s_lp_Variant>  (117) 
32:0-1

>  <s_i_glide_gridfile>  (117) 
pfpi4k_grid

>  <i_i_glide_lignum>  (117) 
13

>  <i_i_glide_rotatable_bonds>  (117) 
1

>  <r_i_docking_score>  (117) 
-4.97114

>  <r_i_glide_ligand_efficiency>  (117) 
-0.355082

>  <r_i_glide_ligand_efficiency_sa>  (117) 
-0.855797

>  <r_i_glide_ligand_efficiency_ln>  (117) 
-1.36605

>  <r_i_glide_gscore>  (117) 
-4.97114

>  <r_i_glide_lipo>  (117) 
-0.602404

>  <r_i_glide_hbond>  (117) 
-0.534731

>  <r_i_glide_metal>  (117) 
-0

>  <r_i_glide_rewards>  (117) 
-2.12546

>  <r_i_glide_evdw>  (117) 
-17.4166

>  <r_i_glide_ecoul>  (117) 
-5.58476

>  <r_i_glide_erotb>  (117) 
0

>  <r_i_glide_esite>  (117) 
0

>  <r_i_glide_emodel>  (117) 
-29.4162

>  <r_i_glide_energy>  (117) 
-23.0014

>  <r_i_glide_einternal>  (117) 
0.658743

>  <r_i_glide_intrahb_reward>  (117) 
-0

>  <i_i_glide_confnum>  (117) 
2

>  <i_i_glide_posenum>  (117) 
37

>  <r_i_glide_eff_state_penalty>  (117) 
0

>  <ligand_id>  (117) 
32

>  <original_smiles>  (117) 
OC1CCC2C3CC=C4C5C2C4C3C15

>  <smiles>  (117) 
[H]OC1([H])C([H])([H])C([H])([H])C2([H])C3([H])C4([H])C5=C([H])C([H])([H])C2([H])C([H])(C53[H])C14[H]

$$$$
32:0:1
     RDKit          3D

 30 34  0  0  1  0  0  0  0  0999 V2000
    4.2034    0.1198   -3.3999 O   0  0  0  0  0  0  0  0  0  0  0  0
    4.2565   -1.2633   -3.1222 C   0  0  2  0  0  0  0  0  0  0  0  0
    2.8201   -1.7529   -3.0097 C   0  0  0  0  0  0  0  0  0  0  0  0
    2.7374   -3.1959   -2.5437 C   0  0  0  0  0  0  0  0  0  0  0  0
    3.3103   -3.4573   -1.1309 C   0  0  1  0  0  0  0  0  0  0  0  0
    4.6220   -4.1765   -1.1016 C   0  0  2  0  0  0  0  0  0  0  0  0
    4.9244   -4.6170    0.4303 C   0  0  0  0  0  0  0  0  0  0  0  0
    5.1008   -3.3890    1.4155 C   0  0  0  0  0  0  0  0  0  0  0  0
    5.1363   -2.0717    0.9060 C   0  0  0  0  0  0  0  0  0  0  0  0
    4.5849   -1.1665   -0.4378 C   0  0  2  0  0  0  0  0  0  0  0  0
    3.8465   -2.2988   -0.3063 C   0  0  2  0  0  0  0  0  0  0  0  0
    5.6587   -2.2819   -0.3555 C   0  0  1  0  0  0  0  0  0  0  0  0
    5.5382   -3.0063   -1.5928 C   0  0  2  0  0  0  0  0  0  0  0  0
    5.1523   -1.5232   -1.8821 C   0  0  1  0  0  0  0  0  0  0  0  0
    3.5176    0.5109   -2.8704 H   0  0  0  0  0  0  0  0  0  0  0  0
    4.7273   -1.7391   -3.9812 H   0  0  0  0  0  0  0  0  0  0  0  0
    2.2507   -1.1252   -2.3229 H   0  0  0  0  0  0  0  0  0  0  0  0
    2.3362   -1.6644   -3.9848 H   0  0  0  0  0  0  0  0  0  0  0  0
    1.6847   -3.4869   -2.5541 H   0  0  0  0  0  0  0  0  0  0  0  0
    3.2220   -3.8476   -3.2740 H   0  0  0  0  0  0  0  0  0  0  0  0
    2.5758   -4.0390   -0.5703 H   0  0  0  0  0  0  0  0  0  0  0  0
    4.6446   -5.0336   -1.7735 H   0  0  0  0  0  0  0  0  0  0  0  0
    4.1166   -5.2494    0.8041 H   0  0  0  0  0  0  0  0  0  0  0  0
    5.8494   -5.1968    0.4650 H   0  0  0  0  0  0  0  0  0  0  0  0
    5.2022   -3.5794    2.4706 H   0  0  0  0  0  0  0  0  0  0  0  0
    4.0200   -0.2441   -0.3100 H   0  0  0  0  0  0  0  0  0  0  0  0
    3.0707   -1.9945    0.4416 H   0  0  0  0  0  0  0  0  0  0  0  0
    6.5761   -2.8071   -0.0277 H   0  0  0  0  0  0  0  0  0  0  0  0
    6.5002   -3.3087   -2.0134 H   0  0  0  0  0  0  0  0  0  0  0  0
    6.0529   -0.9386   -2.0970 H   0  0  0  0  0  0  0  0  0  0  0  0
  1  2  1  0
  1 15  1  0
  2 14  1  0
  2  3  1  0
  2 16  1  6
  3  4  1  0
  3 17  1  0
  3 18  1  0
  4  5  1  0
  4 19  1  0
  4 20  1  0
  5 11  1  0
  5  6  1  0
  5 21  1  1
  6 13  1  0
  6  7  1  0
  6 22  1  6
  7  8  1  0
  7 23  1  0
  7 24  1  0
  8  9  2  0
  8 25  1  0
  9 12  1  0
  9 10  1  0
 10 14  1  0
 10 11  1  0
 10 26  1  1
 11 12  1  0
 11 27  1  1
 12 13  1  0
 12 28  1  6
 13 14  1  0
 13 29  1  6
 14 30  1  6
M  END
>  <i_m_ct_stereo_status>  (118) 
1

>  <s_m_source_file>  (118) 
/var/tmp/pbs.5076255.sched01/tmpon41x2vr/43t03z2zi4.sdf

>  <i_m_source_file_index>  (118) 
13

>  <i_lp_mmshare_version>  (118) 
48012

>  <i_f3d_flags>  (118) 
0

>  <s_epik_input>  (118) 
W0NIMl0xW0NIMl1bQ0BASF0oW09IXSlbQ0BIXTJbQ0BASF0oW0NIXTM0KUMoPVtDSF1bQ0gyXTUpW0NASF00W0NASF0yW0NAQEhdNVtDQEhdMTM=

>  <s_epik_cmdline>  (118) 
J2VwaWtfcHl0aG9uJywgJy1waHQnLCAnMi4wJywgJy1waCcsICc3LjAnLCAnLXRuJywgJzgnLCAnLW1hJywgJzIwMCcsICctaW1hZScsICc8aW5maWxlLm1hZT4nLCAnLW9tYWUnLCAnPG91dGZpbGUubWFlPic=

>  <r_lp_tautomer_probability>  (118) 
1

>  <r_epik_Ionization_Penalty>  (118) 
1.72468e-06

>  <r_epik_Ionization_Penalty_Charging>  (118) 
0

>  <r_epik_Ionization_Penalty_Neutral>  (118) 
1.72468e-06

>  <r_epik_State_Penalty>  (118) 
-0

>  <r_epik_Charging_Adjusted_Penalty>  (118) 
0

>  <i_epik_Tot_Q>  (118) 
0

>  <i_epik_Tot_abs_Q>  (118) 
0

>  <s_lp_Force_Field>  (118) 
OPLS3e

>  <r_lp_Energy>  (118) 
379.642

>  <b_lp_Chiralities_Consistent>  (118) 
1

>  <s_lp_Variant>  (118) 
32:0-1

>  <s_i_glide_gridfile>  (118) 
pfpi4k_grid

>  <i_i_glide_lignum>  (118) 
13

>  <i_i_glide_rotatable_bonds>  (118) 
1

>  <r_i_docking_score>  (118) 
-3.65705

>  <r_i_glide_ligand_efficiency>  (118) 
-0.261218

>  <r_i_glide_ligand_efficiency_sa>  (118) 
-0.629572

>  <r_i_glide_ligand_efficiency_ln>  (118) 
-1.00494

>  <r_i_glide_gscore>  (118) 
-3.65705

>  <r_i_glide_lipo>  (118) 
-0.298191

>  <r_i_glide_hbond>  (118) 
-0.0678063

>  <r_i_glide_metal>  (118) 
-0

>  <r_i_glide_rewards>  (118) 
-2.12546

>  <r_i_glide_evdw>  (118) 
-17.7729

>  <r_i_glide_ecoul>  (118) 
-1.84631

>  <r_i_glide_erotb>  (118) 
0

>  <r_i_glide_esite>  (118) 
0

>  <r_i_glide_emodel>  (118) 
-24.2316

>  <r_i_glide_energy>  (118) 
-19.6192

>  <r_i_glide_einternal>  (118) 
0.529229

>  <r_i_glide_intrahb_reward>  (118) 
-0

>  <i_i_glide_confnum>  (118) 
2

>  <i_i_glide_posenum>  (118) 
1

>  <r_i_glide_eff_state_penalty>  (118) 
0

>  <ligand_id>  (118) 
32

>  <original_smiles>  (118) 
OC1CCC2C3CC=C4C5C2C4C3C15

>  <smiles>  (118) 
[H]OC1([H])C([H])([H])C([H])([H])C2([H])C3([H])C4([H])C5=C([H])C([H])([H])C2([H])C([H])(C53[H])C14[H]

$$$$
32:0:2
     RDKit          3D

 30 34  0  0  1  0  0  0  0  0999 V2000
    6.4087   -4.2875    1.6750 O   0  0  0  0  0  0  0  0  0  0  0  0
    6.3381   -3.1362    0.8559 C   0  0  2  0  0  0  0  0  0  0  0  0
    5.6167   -2.0396    1.6473 C   0  0  0  0  0  0  0  0  0  0  0  0
    5.3251   -0.8100    0.7897 C   0  0  0  0  0  0  0  0  0  0  0  0
    4.3622   -1.0703   -0.3894 C   0  0  1  0  0  0  0  0  0  0  0  0
    4.9969   -1.0914   -1.7403 C   0  0  2  0  0  0  0  0  0  0  0  0
    3.8242   -1.0959   -2.8607 C   0  0  0  0  0  0  0  0  0  0  0  0
    2.9181   -2.3841   -2.8139 C   0  0  0  0  0  0  0  0  0  0  0  0
    3.2608   -3.4503   -1.9562 C   0  0  0  0  0  0  0  0  0  0  0  0
    4.1075   -3.7694   -0.5122 C   0  0  2  0  0  0  0  0  0  0  0  0
    3.7659   -2.4576   -0.5672 C   0  0  2  0  0  0  0  0  0  0  0  0
    4.6325   -3.3361   -1.8962 C   0  0  1  0  0  0  0  0  0  0  0  0
    5.7434   -2.4700   -1.6367 C   0  0  2  0  0  0  0  0  0  0  0  0
    5.6805   -3.5260   -0.4895 C   0  0  1  0  0  0  0  0  0  0  0  0
    5.5285   -4.5731    1.8599 H   0  0  0  0  0  0  0  0  0  0  0  0
    7.3650   -2.8233    0.6576 H   0  0  0  0  0  0  0  0  0  0  0  0
    4.6887   -2.4049    2.0925 H   0  0  0  0  0  0  0  0  0  0  0  0
    6.2499   -1.7350    2.4808 H   0  0  0  0  0  0  0  0  0  0  0  0
    4.8793   -0.0499    1.4328 H   0  0  0  0  0  0  0  0  0  0  0  0
    6.2578   -0.3693    0.4348 H   0  0  0  0  0  0  0  0  0  0  0  0
    3.5765   -0.3128   -0.3392 H   0  0  0  0  0  0  0  0  0  0  0  0
    5.6868   -0.2576   -1.8873 H   0  0  0  0  0  0  0  0  0  0  0  0
    3.1749   -0.2320   -2.7314 H   0  0  0  0  0  0  0  0  0  0  0  0
    4.2606   -1.0365   -3.8576 H   0  0  0  0  0  0  0  0  0  0  0  0
    2.0459   -2.4334   -3.4398 H   0  0  0  0  0  0  0  0  0  0  0  0
    3.6480   -4.3359    0.3003 H   0  0  0  0  0  0  0  0  0  0  0  0
    2.7105   -2.4585   -0.1738 H   0  0  0  0  0  0  0  0  0  0  0  0
    4.7942   -3.3923   -2.9896 H   0  0  0  0  0  0  0  0  0  0  0  0
    6.5722   -2.6187   -2.3325 H   0  0  0  0  0  0  0  0  0  0  0  0
    6.2099   -4.4459   -0.7816 H   0  0  0  0  0  0  0  0  0  0  0  0
  1  2  1  0
  1 15  1  0
  2 14  1  0
  2  3  1  0
  2 16  1  6
  3  4  1  0
  3 17  1  0
  3 18  1  0
  4  5  1  0
  4 19  1  0
  4 20  1  0
  5 11  1  0
  5  6  1  0
  5 21  1  6
  6 13  1  0
  6  7  1  0
  6 22  1  6
  7  8  1  0
  7 23  1  0
  7 24  1  0
  8  9  2  0
  8 25  1  0
  9 12  1  0
  9 10  1  0
 10 14  1  0
 10 11  1  0
 10 26  1  1
 11 12  1  0
 11 27  1  6
 12 13  1  0
 12 28  1  1
 13 14  1  0
 13 29  1  6
 14 30  1  6
M  END
>  <i_m_ct_stereo_status>  (119) 
1

>  <s_m_source_file>  (119) 
/var/tmp/pbs.5076255.sched01/tmpon41x2vr/43t03z2zi4.sdf

>  <i_m_source_file_index>  (119) 
13

>  <i_lp_mmshare_version>  (119) 
48012

>  <i_f3d_flags>  (119) 
0

>  <s_epik_input>  (119) 
W0NIMl0xW0NIMl1bQ0BASF0oW09IXSlbQ0BIXTJbQ0BASF0oW0NIXTM0KUMoPVtDSF1bQ0gyXTUpW0NASF00W0NASF0yW0NAQEhdNVtDQEhdMTM=

>  <s_epik_cmdline>  (119) 
J2VwaWtfcHl0aG9uJywgJy1waHQnLCAnMi4wJywgJy1waCcsICc3LjAnLCAnLXRuJywgJzgnLCAnLW1hJywgJzIwMCcsICctaW1hZScsICc8aW5maWxlLm1hZT4nLCAnLW9tYWUnLCAnPG91dGZpbGUubWFlPic=

>  <r_lp_tautomer_probability>  (119) 
1

>  <r_epik_Ionization_Penalty>  (119) 
1.72468e-06

>  <r_epik_Ionization_Penalty_Charging>  (119) 
0

>  <r_epik_Ionization_Penalty_Neutral>  (119) 
1.72468e-06

>  <r_epik_State_Penalty>  (119) 
-0

>  <r_epik_Charging_Adjusted_Penalty>  (119) 
0

>  <i_epik_Tot_Q>  (119) 
0

>  <i_epik_Tot_abs_Q>  (119) 
0

>  <s_lp_Force_Field>  (119) 
OPLS3e

>  <r_lp_Energy>  (119) 
379.642

>  <b_lp_Chiralities_Consistent>  (119) 
1

>  <s_lp_Variant>  (119) 
32:0-1

>  <s_i_glide_gridfile>  (119) 
pfpi4k_grid

>  <i_i_glide_lignum>  (119) 
13

>  <i_i_glide_rotatable_bonds>  (119) 
1

>  <r_i_docking_score>  (119) 
-3.42465

>  <r_i_glide_ligand_efficiency>  (119) 
-0.244618

>  <r_i_glide_ligand_efficiency_sa>  (119) 
-0.589564

>  <r_i_glide_ligand_efficiency_ln>  (119) 
-0.941082

>  <r_i_glide_gscore>  (119) 
-3.42465

>  <r_i_glide_lipo>  (119) 
-0.405478

>  <r_i_glide_hbond>  (119) 
0

>  <r_i_glide_metal>  (119) 
-0

>  <r_i_glide_rewards>  (119) 
-2.12546

>  <r_i_glide_evdw>  (119) 
-20.0197

>  <r_i_glide_ecoul>  (119) 
0.715171

>  <r_i_glide_erotb>  (119) 
0

>  <r_i_glide_esite>  (119) 
0

>  <r_i_glide_emodel>  (119) 
-23.9325

>  <r_i_glide_energy>  (119) 
-19.3046

>  <r_i_glide_einternal>  (119) 
0.00195456

>  <r_i_glide_intrahb_reward>  (119) 
-0

>  <i_i_glide_confnum>  (119) 
2

>  <i_i_glide_posenum>  (119) 
2

>  <r_i_glide_eff_state_penalty>  (119) 
0

>  <ligand_id>  (119) 
32

>  <original_smiles>  (119) 
OC1CCC2C3CC=C4C5C2C4C3C15

>  <smiles>  (119) 
[H]OC1([H])C([H])([H])C([H])([H])C2([H])C3([H])C4([H])C5=C([H])C([H])([H])C2([H])C([H])(C53[H])C14[H]

$$$$
33:0:0
     RDKit          3D

 28 31  0  0  1  0  0  0  0  0999 V2000
    3.0149   -1.2177   -3.9570 C   0  0  0  0  0  0  0  0  0  0  0  0
    3.1465   -2.6185   -3.8931 C   0  0  0  0  0  0  0  0  0  0  0  0
    4.0990   -3.1900   -3.0290 C   0  0  0  0  0  0  0  0  0  0  0  0
    4.9023   -2.3726   -2.2150 C   0  0  0  0  0  0  0  0  0  0  0  0
    5.8720   -2.9395   -1.3631 N   0  0  0  0  0  0  0  0  0  0  0  0
    7.1741   -2.5589   -1.4832 N   0  0  0  0  0  0  0  0  0  0  0  0
    7.8390   -3.2211   -0.5474 C   0  0  0  0  0  0  0  0  0  0  0  0
    6.9724   -4.0270    0.2429 C   0  0  0  0  0  0  0  0  0  0  0  0
    5.7433   -3.8254   -0.3141 C   0  0  0  0  0  0  0  0  0  0  0  0
    4.5545   -4.4413    0.2600 C   0  0  0  0  0  0  0  0  0  0  0  0
    3.3045   -4.5429   -0.1700 N   0  0  0  0  0  0  0  0  0  0  0  0
    2.6805   -5.2851    0.8269 N   0  0  0  0  0  0  0  0  0  0  0  0
    3.4946   -5.5387    1.8158 N   0  0  0  0  0  0  0  0  0  0  0  0
    4.6873   -5.0189    1.4531 N   0  0  0  0  0  0  0  0  0  0  0  0
    5.8773   -4.9868    2.2979 C   0  0  0  0  0  0  0  0  0  0  0  0
    7.1824   -4.9264    1.4394 C   0  0  0  0  0  0  0  0  0  0  0  0
    4.7643   -0.9732   -2.2838 C   0  0  0  0  0  0  0  0  0  0  0  0
    3.8274   -0.3962   -3.1597 C   0  0  0  0  0  0  0  0  0  0  0  0
    2.2744   -0.7755   -4.6092 H   0  0  0  0  0  0  0  0  0  0  0  0
    2.5054   -3.2523   -4.4881 H   0  0  0  0  0  0  0  0  0  0  0  0
    4.2197   -4.2572   -2.9858 H   0  0  0  0  0  0  0  0  0  0  0  0
    8.9113   -3.0883   -0.4774 H   0  0  0  0  0  0  0  0  0  0  0  0
    5.8063   -4.0764    2.9008 H   0  0  0  0  0  0  0  0  0  0  0  0
    5.8707   -5.8389    2.9835 H   0  0  0  0  0  0  0  0  0  0  0  0
    7.4168   -5.9352    1.1031 H   0  0  0  0  0  0  0  0  0  0  0  0
    8.0242   -4.6010    2.0545 H   0  0  0  0  0  0  0  0  0  0  0  0
    5.3848   -0.3381   -1.6727 H   0  0  0  0  0  0  0  0  0  0  0  0
    3.7252    0.6756   -3.2045 H   0  0  0  0  0  0  0  0  0  0  0  0
  1 18  2  0
  1  2  1  0
  1 19  1  0
  2  3  2  0
  2 20  1  0
  3  4  1  0
  3 21  1  0
  4  5  1  0
  4 17  2  0
  5  9  1  0
  5  6  1  0
  6  7  2  0
  7  8  1  0
  7 22  1  0
  8 16  1  0
  8  9  2  0
  9 10  1  0
 10 14  1  0
 10 11  2  0
 11 12  1  0
 12 13  2  0
 13 14  1  0
 14 15  1  0
 15 16  1  0
 15 23  1  0
 15 24  1  0
 16 25  1  0
 16 26  1  0
 17 18  1  0
 17 27  1  0
 18 28  1  0
M  END
>  <i_m_ct_stereo_status>  (120) 
1

>  <s_m_source_file>  (120) 
/var/tmp/pbs.5076255.sched01/tmpon41x2vr/43t03z2zi4.sdf

>  <i_m_source_file_index>  (120) 
14

>  <i_lp_mmshare_version>  (120) 
48012

>  <i_f3d_flags>  (120) 
0

>  <s_epik_input>  (120) 
W2NIXTFbY0hdW2NIXVtjSF1bY0hdYzEtbihuW2NIXTIpYyhjMjMpYzRuKG5ubjQpW0NIMl1bQ0gyXTM=

>  <s_epik_cmdline>  (120) 
J2VwaWtfcHl0aG9uJywgJy1waHQnLCAnMi4wJywgJy1waCcsICc3LjAnLCAnLXRuJywgJzgnLCAnLW1hJywgJzIwMCcsICctaW1hZScsICc8aW5maWxlLm1hZT4nLCAnLW9tYWUnLCAnPG91dGZpbGUubWFlPic=

>  <r_lp_tautomer_probability>  (120) 
1

>  <r_epik_Ionization_Penalty>  (120) 
1.1704e-07

>  <r_epik_Ionization_Penalty_Charging>  (120) 
0

>  <r_epik_Ionization_Penalty_Neutral>  (120) 
1.1704e-07

>  <r_epik_State_Penalty>  (120) 
-0

>  <r_epik_Charging_Adjusted_Penalty>  (120) 
0

>  <i_epik_Tot_Q>  (120) 
0

>  <i_epik_Tot_abs_Q>  (120) 
0

>  <s_lp_Force_Field>  (120) 
OPLS3e

>  <r_lp_Energy>  (120) 
26.2227

>  <b_lp_Chiralities_Consistent>  (120) 
1

>  <s_lp_Variant>  (120) 
33:0-1

>  <s_i_glide_gridfile>  (120) 
pfpi4k_grid

>  <i_i_glide_lignum>  (120) 
14

>  <i_i_glide_rotatable_bonds>  (120) 
1

>  <r_i_docking_score>  (120) 
-4.47533

>  <r_i_glide_ligand_efficiency>  (120) 
-0.248629

>  <r_i_glide_ligand_efficiency_sa>  (120) 
-0.651593

>  <r_i_glide_ligand_efficiency_ln>  (120) 
-1.15036

>  <r_i_glide_gscore>  (120) 
-4.47533

>  <r_i_glide_lipo>  (120) 
-0.990402

>  <r_i_glide_hbond>  (120) 
-0.157673

>  <r_i_glide_metal>  (120) 
-0

>  <r_i_glide_rewards>  (120) 
-1.91471

>  <r_i_glide_evdw>  (120) 
-26.0471

>  <r_i_glide_ecoul>  (120) 
-2.32659

>  <r_i_glide_erotb>  (120) 
0.30402

>  <r_i_glide_esite>  (120) 
-0.0652213

>  <r_i_glide_emodel>  (120) 
-37.1236

>  <r_i_glide_energy>  (120) 
-28.3737

>  <r_i_glide_einternal>  (120) 
0.818849

>  <r_i_glide_intrahb_reward>  (120) 
-0

>  <i_i_glide_confnum>  (120) 
6

>  <i_i_glide_posenum>  (120) 
6

>  <r_i_glide_eff_state_penalty>  (120) 
0

>  <ligand_id>  (120) 
33

>  <original_smiles>  (120) 
c1ccc(-n2ncc3c2-c2nnnn2CC3)cc1

>  <smiles>  (120) 
[H]c1nn(-c2c([H])c([H])c([H])c([H])c2[H])c2c1C([H])([H])C([H])([H])n1nnnc1-2

$$$$
33:0:1
     RDKit          3D

 28 31  0  0  1  0  0  0  0  0999 V2000
   -2.5298    3.5910    9.5980 C   0  0  0  0  0  0  0  0  0  0  0  0
   -1.2584    4.0625    9.2137 C   0  0  0  0  0  0  0  0  0  0  0  0
   -0.8510    3.9719    7.8674 C   0  0  0  0  0  0  0  0  0  0  0  0
   -1.7111    3.3992    6.9056 C   0  0  0  0  0  0  0  0  0  0  0  0
   -1.3135    3.3382    5.5566 N   0  0  0  0  0  0  0  0  0  0  0  0
   -1.0251    4.4825    4.8843 N   0  0  0  0  0  0  0  0  0  0  0  0
   -0.6300    4.1014    3.6746 C   0  0  0  0  0  0  0  0  0  0  0  0
   -0.6434    2.6863    3.5318 C   0  0  0  0  0  0  0  0  0  0  0  0
   -1.0952    2.2481    4.7348 C   0  0  0  0  0  0  0  0  0  0  0  0
   -1.1996    0.8292    5.0142 C   0  0  0  0  0  0  0  0  0  0  0  0
   -1.7849    0.1545    5.9991 N   0  0  0  0  0  0  0  0  0  0  0  0
   -1.5349   -1.1696    5.6648 N   0  0  0  0  0  0  0  0  0  0  0  0
   -0.8205   -1.2678    4.5769 N   0  0  0  0  0  0  0  0  0  0  0  0
   -0.6195   -0.0024    4.1499 N   0  0  0  0  0  0  0  0  0  0  0  0
    0.1969    0.3763    2.9938 C   0  0  0  0  0  0  0  0  0  0  0  0
   -0.2660    1.7404    2.4077 C   0  0  0  0  0  0  0  0  0  0  0  0
   -2.9853    2.9395    7.2879 C   0  0  0  0  0  0  0  0  0  0  0  0
   -3.3910    3.0377    8.6335 C   0  0  0  0  0  0  0  0  0  0  0  0
   -2.8452    3.6531   10.6299 H   0  0  0  0  0  0  0  0  0  0  0  0
   -0.5958    4.4882    9.9537 H   0  0  0  0  0  0  0  0  0  0  0  0
    0.1181    4.3473    7.5707 H   0  0  0  0  0  0  0  0  0  0  0  0
   -0.3535    4.8518    2.9439 H   0  0  0  0  0  0  0  0  0  0  0  0
    1.2251    0.4731    3.3459 H   0  0  0  0  0  0  0  0  0  0  0  0
    0.1921   -0.4088    2.2377 H   0  0  0  0  0  0  0  0  0  0  0  0
   -1.1320    1.5755    1.7677 H   0  0  0  0  0  0  0  0  0  0  0  0
    0.5135    2.1548    1.7645 H   0  0  0  0  0  0  0  0  0  0  0  0
   -3.6539    2.5426    6.5394 H   0  0  0  0  0  0  0  0  0  0  0  0
   -4.3754    2.7049    8.9250 H   0  0  0  0  0  0  0  0  0  0  0  0
  1 18  2  0
  1  2  1  0
  1 19  1  0
  2  3  2  0
  2 20  1  0
  3  4  1  0
  3 21  1  0
  4  5  1  0
  4 17  2  0
  5  9  1  0
  5  6  1  0
  6  7  2  0
  7  8  1  0
  7 22  1  0
  8 16  1  0
  8  9  2  0
  9 10  1  0
 10 14  1  0
 10 11  2  0
 11 12  1  0
 12 13  2  0
 13 14  1  0
 14 15  1  0
 15 16  1  0
 15 23  1  0
 15 24  1  0
 16 25  1  0
 16 26  1  0
 17 18  1  0
 17 27  1  0
 18 28  1  0
M  END
>  <i_m_ct_stereo_status>  (121) 
1

>  <s_m_source_file>  (121) 
/var/tmp/pbs.5076255.sched01/tmpon41x2vr/43t03z2zi4.sdf

>  <i_m_source_file_index>  (121) 
14

>  <i_lp_mmshare_version>  (121) 
48012

>  <i_f3d_flags>  (121) 
0

>  <s_epik_input>  (121) 
W2NIXTFbY0hdW2NIXVtjSF1bY0hdYzEtbihuW2NIXTIpYyhjMjMpYzRuKG5ubjQpW0NIMl1bQ0gyXTM=

>  <s_epik_cmdline>  (121) 
J2VwaWtfcHl0aG9uJywgJy1waHQnLCAnMi4wJywgJy1waCcsICc3LjAnLCAnLXRuJywgJzgnLCAnLW1hJywgJzIwMCcsICctaW1hZScsICc8aW5maWxlLm1hZT4nLCAnLW9tYWUnLCAnPG91dGZpbGUubWFlPic=

>  <r_lp_tautomer_probability>  (121) 
1

>  <r_epik_Ionization_Penalty>  (121) 
1.1704e-07

>  <r_epik_Ionization_Penalty_Charging>  (121) 
0

>  <r_epik_Ionization_Penalty_Neutral>  (121) 
1.1704e-07

>  <r_epik_State_Penalty>  (121) 
-0

>  <r_epik_Charging_Adjusted_Penalty>  (121) 
0

>  <i_epik_Tot_Q>  (121) 
0

>  <i_epik_Tot_abs_Q>  (121) 
0

>  <s_lp_Force_Field>  (121) 
OPLS3e

>  <r_lp_Energy>  (121) 
26.2227

>  <b_lp_Chiralities_Consistent>  (121) 
1

>  <s_lp_Variant>  (121) 
33:0-1

>  <s_i_glide_gridfile>  (121) 
pfpi4k_grid

>  <i_i_glide_lignum>  (121) 
14

>  <i_i_glide_rotatable_bonds>  (121) 
1

>  <r_i_docking_score>  (121) 
-3.91802

>  <r_i_glide_ligand_efficiency>  (121) 
-0.217668

>  <r_i_glide_ligand_efficiency_sa>  (121) 
-0.570451

>  <r_i_glide_ligand_efficiency_ln>  (121) 
-1.00711

>  <r_i_glide_gscore>  (121) 
-3.91802

>  <r_i_glide_lipo>  (121) 
-0.228523

>  <r_i_glide_hbond>  (121) 
0

>  <r_i_glide_metal>  (121) 
-0

>  <r_i_glide_rewards>  (121) 
-1.78467

>  <r_i_glide_evdw>  (121) 
-22.0691

>  <r_i_glide_ecoul>  (121) 
-5.78831

>  <r_i_glide_erotb>  (121) 
0.30402

>  <r_i_glide_esite>  (121) 
-0.237144

>  <r_i_glide_emodel>  (121) 
-35.3418

>  <r_i_glide_energy>  (121) 
-27.8574

>  <r_i_glide_einternal>  (121) 
1.03709

>  <r_i_glide_intrahb_reward>  (121) 
-0

>  <i_i_glide_confnum>  (121) 
2

>  <i_i_glide_posenum>  (121) 
38

>  <r_i_glide_eff_state_penalty>  (121) 
0

>  <ligand_id>  (121) 
33

>  <original_smiles>  (121) 
c1ccc(-n2ncc3c2-c2nnnn2CC3)cc1

>  <smiles>  (121) 
[H]c1nn(-c2c([H])c([H])c([H])c([H])c2[H])c2c1C([H])([H])C([H])([H])n1nnnc1-2

$$$$
33:0:2
     RDKit          3D

 28 31  0  0  1  0  0  0  0  0999 V2000
    3.7652   -2.1787   -0.4078 C   0  0  0  0  0  0  0  0  0  0  0  0
    4.7036   -3.0076   -1.0526 C   0  0  0  0  0  0  0  0  0  0  0  0
    4.8797   -4.3358   -0.6181 C   0  0  0  0  0  0  0  0  0  0  0  0
    4.1129   -4.8459    0.4541 C   0  0  0  0  0  0  0  0  0  0  0  0
    4.3002   -6.1772    0.8915 N   0  0  0  0  0  0  0  0  0  0  0  0
    5.5590   -6.6775    1.0038 N   0  0  0  0  0  0  0  0  0  0  0  0
    5.4335   -7.9087    1.4831 C   0  0  0  0  0  0  0  0  0  0  0  0
    4.0708   -8.2483    1.6911 C   0  0  0  0  0  0  0  0  0  0  0  0
    3.3891   -7.1400    1.2962 C   0  0  0  0  0  0  0  0  0  0  0  0
    1.9361   -7.0944    1.3869 C   0  0  0  0  0  0  0  0  0  0  0  0
    1.0309   -6.2635    0.8755 N   0  0  0  0  0  0  0  0  0  0  0  0
   -0.1747   -6.7826    1.3279 N   0  0  0  0  0  0  0  0  0  0  0  0
    0.0087   -7.8273    2.0867 N   0  0  0  0  0  0  0  0  0  0  0  0
    1.3416   -8.0553    2.0925 N   0  0  0  0  0  0  0  0  0  0  0  0
    2.0104   -9.1062    2.8569 C   0  0  0  0  0  0  0  0  0  0  0  0
    3.3782   -9.4892    2.2136 C   0  0  0  0  0  0  0  0  0  0  0  0
    3.1954   -4.0015    1.1103 C   0  0  0  0  0  0  0  0  0  0  0  0
    3.0153   -2.6756    0.6736 C   0  0  0  0  0  0  0  0  0  0  0  0
    3.6047   -1.1656   -0.7476 H   0  0  0  0  0  0  0  0  0  0  0  0
    5.2801   -2.6335   -1.8850 H   0  0  0  0  0  0  0  0  0  0  0  0
    5.5950   -4.9712   -1.1125 H   0  0  0  0  0  0  0  0  0  0  0  0
    6.3221   -8.4990    1.6588 H   0  0  0  0  0  0  0  0  0  0  0  0
    2.1927   -8.7020    3.8548 H   0  0  0  0  0  0  0  0  0  0  0  0
    1.3557   -9.9728    2.9633 H   0  0  0  0  0  0  0  0  0  0  0  0
    3.1962  -10.1770    1.3871 H   0  0  0  0  0  0  0  0  0  0  0  0
    4.0021  -10.0279    2.9302 H   0  0  0  0  0  0  0  0  0  0  0  0
    2.6257   -4.3670    1.9511 H   0  0  0  0  0  0  0  0  0  0  0  0
    2.2894   -2.0428    1.1627 H   0  0  0  0  0  0  0  0  0  0  0  0
  1 18  2  0
  1  2  1  0
  1 19  1  0
  2  3  2  0
  2 20  1  0
  3  4  1  0
  3 21  1  0
  4  5  1  0
  4 17  2  0
  5  9  1  0
  5  6  1  0
  6  7  2  0
  7  8  1  0
  7 22  1  0
  8 16  1  0
  8  9  2  0
  9 10  1  0
 10 14  1  0
 10 11  2  0
 11 12  1  0
 12 13  2  0
 13 14  1  0
 14 15  1  0
 15 16  1  0
 15 23  1  0
 15 24  1  0
 16 25  1  0
 16 26  1  0
 17 18  1  0
 17 27  1  0
 18 28  1  0
M  END
>  <i_m_ct_stereo_status>  (122) 
1

>  <s_m_source_file>  (122) 
/var/tmp/pbs.5076255.sched01/tmpon41x2vr/43t03z2zi4.sdf

>  <i_m_source_file_index>  (122) 
14

>  <i_lp_mmshare_version>  (122) 
48012

>  <i_f3d_flags>  (122) 
0

>  <s_epik_input>  (122) 
W2NIXTFbY0hdW2NIXVtjSF1bY0hdYzEtbihuW2NIXTIpYyhjMjMpYzRuKG5ubjQpW0NIMl1bQ0gyXTM=

>  <s_epik_cmdline>  (122) 
J2VwaWtfcHl0aG9uJywgJy1waHQnLCAnMi4wJywgJy1waCcsICc3LjAnLCAnLXRuJywgJzgnLCAnLW1hJywgJzIwMCcsICctaW1hZScsICc8aW5maWxlLm1hZT4nLCAnLW9tYWUnLCAnPG91dGZpbGUubWFlPic=

>  <r_lp_tautomer_probability>  (122) 
1

>  <r_epik_Ionization_Penalty>  (122) 
1.1704e-07

>  <r_epik_Ionization_Penalty_Charging>  (122) 
0

>  <r_epik_Ionization_Penalty_Neutral>  (122) 
1.1704e-07

>  <r_epik_State_Penalty>  (122) 
-0

>  <r_epik_Charging_Adjusted_Penalty>  (122) 
0

>  <i_epik_Tot_Q>  (122) 
0

>  <i_epik_Tot_abs_Q>  (122) 
0

>  <s_lp_Force_Field>  (122) 
OPLS3e

>  <r_lp_Energy>  (122) 
26.2227

>  <b_lp_Chiralities_Consistent>  (122) 
1

>  <s_lp_Variant>  (122) 
33:0-1

>  <s_i_glide_gridfile>  (122) 
pfpi4k_grid

>  <i_i_glide_lignum>  (122) 
14

>  <i_i_glide_rotatable_bonds>  (122) 
1

>  <r_i_docking_score>  (122) 
-3.8327

>  <r_i_glide_ligand_efficiency>  (122) 
-0.212928

>  <r_i_glide_ligand_efficiency_sa>  (122) 
-0.558029

>  <r_i_glide_ligand_efficiency_ln>  (122) 
-0.985176

>  <r_i_glide_gscore>  (122) 
-3.8327

>  <r_i_glide_lipo>  (122) 
-0.236712

>  <r_i_glide_hbond>  (122) 
0

>  <r_i_glide_metal>  (122) 
-0

>  <r_i_glide_rewards>  (122) 
-1.91728

>  <r_i_glide_evdw>  (122) 
-22.5558

>  <r_i_glide_ecoul>  (122) 
-3.54498

>  <r_i_glide_erotb>  (122) 
0.30402

>  <r_i_glide_esite>  (122) 
-0.323189

>  <r_i_glide_emodel>  (122) 
-33.9627

>  <r_i_glide_energy>  (122) 
-26.1008

>  <r_i_glide_einternal>  (122) 
0.0229935

>  <r_i_glide_intrahb_reward>  (122) 
-0

>  <i_i_glide_confnum>  (122) 
1

>  <i_i_glide_posenum>  (122) 
10

>  <r_i_glide_eff_state_penalty>  (122) 
0

>  <ligand_id>  (122) 
33

>  <original_smiles>  (122) 
c1ccc(-n2ncc3c2-c2nnnn2CC3)cc1

>  <smiles>  (122) 
[H]c1nn(-c2c([H])c([H])c([H])c([H])c2[H])c2c1C([H])([H])C([H])([H])n1nnnc1-2

$$$$
34:0:0
     RDKit          3D

 34 35  0  0  1  0  0  0  0  0999 V2000
    5.5950   -0.0272    4.4461 C   0  0  0  0  0  0  0  0  0  0  0  0
    4.3448    0.1472    3.7960 O   0  0  0  0  0  0  0  0  0  0  0  0
    3.9266   -0.7816    2.9040 C   0  0  0  0  0  0  0  0  0  0  0  0
    4.5387   -1.8234    2.6504 O   0  0  0  0  0  0  0  0  0  0  0  0
    2.5755   -0.4192    2.2260 C   0  0  1  0  0  0  0  0  0  0  0  0
    2.7411    0.9146    1.4784 C   0  0  0  0  0  0  0  0  0  0  0  0
    2.2334   -1.4159    1.2815 O   0  0  0  0  0  0  0  0  0  0  0  0
    1.4287   -0.3792    3.2734 C   0  0  0  0  0  0  0  0  0  0  0  0
    0.4246    0.5498    2.8645 O   0  0  0  0  0  0  0  0  0  0  0  0
   -0.3665    1.1963    3.7916 C   0  0  0  0  0  0  0  0  0  0  0  0
   -1.3303    2.0814    3.2741 C   0  0  0  0  0  0  0  0  0  0  0  0
   -2.1930    2.7839    4.1343 C   0  0  0  0  0  0  0  0  0  0  0  0
   -2.1095    2.6356    5.5315 C   0  0  0  0  0  0  0  0  0  0  0  0
   -2.9124    3.2605    6.4854 N   0  0  0  0  0  0  0  0  0  0  0  0
   -2.5501    2.8844    7.7179 C   0  0  0  0  0  0  0  0  0  0  0  0
   -3.2263    3.3898    8.9460 C   0  0  0  0  0  0  0  0  0  0  0  0
   -1.2037    1.7425    7.8109 S   0  0  0  0  0  0  0  0  0  0  0  0
   -1.1236    1.7507    6.0492 C   0  0  0  0  0  0  0  0  0  0  0  0
   -0.2669    1.0400    5.1914 C   0  0  0  0  0  0  0  0  0  0  0  0
    5.7885    0.8125    5.1118 H   0  0  0  0  0  0  0  0  0  0  0  0
    6.4045   -0.0717    3.7164 H   0  0  0  0  0  0  0  0  0  0  0  0
    5.6155   -0.9418    5.0417 H   0  0  0  0  0  0  0  0  0  0  0  0
    2.9438    1.7431    2.1576 H   0  0  0  0  0  0  0  0  0  0  0  0
    1.8357    1.1645    0.9269 H   0  0  0  0  0  0  0  0  0  0  0  0
    3.5640    0.8605    0.7657 H   0  0  0  0  0  0  0  0  0  0  0  0
    1.6033   -1.0549    0.6495 H   0  0  0  0  0  0  0  0  0  0  0  0
    0.9504   -1.3591    3.3866 H   0  0  0  0  0  0  0  0  0  0  0  0
    1.8636   -0.1186    4.2358 H   0  0  0  0  0  0  0  0  0  0  0  0
   -1.4150    2.2152    2.2059 H   0  0  0  0  0  0  0  0  0  0  0  0
   -2.9497    3.4325    3.7127 H   0  0  0  0  0  0  0  0  0  0  0  0
   -4.0035    4.0911    8.6614 H   0  0  0  0  0  0  0  0  0  0  0  0
   -2.5090    3.9063    9.5854 H   0  0  0  0  0  0  0  0  0  0  0  0
   -3.6772    2.5631    9.4972 H   0  0  0  0  0  0  0  0  0  0  0  0
    0.4479    0.3954    5.6600 H   0  0  0  0  0  0  0  0  0  0  0  0
  1  2  1  0
  1 20  1  0
  1 21  1  0
  1 22  1  0
  2  3  1  0
  3  4  2  0
  3  5  1  0
  5  6  1  0
  5  7  1  6
  5  8  1  0
  6 23  1  0
  6 24  1  0
  6 25  1  0
  7 26  1  0
  8  9  1  0
  8 27  1  0
  8 28  1  0
  9 10  1  0
 10 19  2  0
 10 11  1  0
 11 12  2  0
 11 29  1  0
 12 13  1  0
 12 30  1  0
 13 18  2  0
 13 14  1  0
 14 15  2  0
 15 16  1  0
 15 17  1  0
 16 31  1  0
 16 32  1  0
 16 33  1  0
 17 18  1  0
 18 19  1  0
 19 34  1  0
M  END
>  <i_m_ct_stereo_status>  (123) 
1

>  <s_m_source_file>  (123) 
/var/tmp/pbs.5076255.sched01/tmpon41x2vr/43t03z2zi4.sdf

>  <i_m_source_file_index>  (123) 
15

>  <i_lp_mmshare_version>  (123) 
48012

>  <i_f3d_flags>  (123) 
0

>  <s_epik_input>  (123) 
W0NIM11PQyg9TylbQ0BAXShbQ0gzXSkoW09IXSlbQ0gyXU9jKFtjSF1bY0hdMSlbY0hdYyhjMTIpc2MobjIpW0NIM10=

>  <s_epik_cmdline>  (123) 
J2VwaWtfcHl0aG9uJywgJy1waHQnLCAnMi4wJywgJy1waCcsICc3LjAnLCAnLXRuJywgJzgnLCAnLW1hJywgJzIwMCcsICctaW1hZScsICc8aW5maWxlLm1hZT4nLCAnLW9tYWUnLCAnPG91dGZpbGUubWFlPic=

>  <r_lp_tautomer_probability>  (123) 
1

>  <r_epik_Ionization_Penalty>  (123) 
1.49291e-05

>  <r_epik_Ionization_Penalty_Charging>  (123) 
0

>  <r_epik_Ionization_Penalty_Neutral>  (123) 
1.49291e-05

>  <r_epik_State_Penalty>  (123) 
-0

>  <r_epik_Charging_Adjusted_Penalty>  (123) 
0

>  <i_epik_Tot_Q>  (123) 
0

>  <i_epik_Tot_abs_Q>  (123) 
0

>  <s_epik_Chemistry_Notes>  (123) 
This compound has an ester and may undergo hydrolysis at high or low pH.

>  <s_lp_Force_Field>  (123) 
OPLS3e

>  <r_lp_Energy>  (123) 
15.8112

>  <b_lp_Chiralities_Consistent>  (123) 
1

>  <s_lp_Variant>  (123) 
34:0-1

>  <s_i_glide_gridfile>  (123) 
pfpi4k_grid

>  <i_i_glide_lignum>  (123) 
15

>  <i_i_glide_rotatable_bonds>  (123) 
6

>  <r_i_docking_score>  (123) 
-2.4946

>  <r_i_glide_ligand_efficiency>  (123) 
-0.131295

>  <r_i_glide_ligand_efficiency_sa>  (123) 
-0.350347

>  <r_i_glide_ligand_efficiency_ln>  (123) 
-0.632434

>  <r_i_glide_gscore>  (123) 
-2.4946

>  <r_i_glide_lipo>  (123) 
-0.299081

>  <r_i_glide_hbond>  (123) 
0

>  <r_i_glide_metal>  (123) 
-0

>  <r_i_glide_rewards>  (123) 
-1.51723

>  <r_i_glide_evdw>  (123) 
-20.3043

>  <r_i_glide_ecoul>  (123) 
-3.84388

>  <r_i_glide_erotb>  (123) 
0.91351

>  <r_i_glide_esite>  (123) 
0

>  <r_i_glide_emodel>  (123) 
-24.9771

>  <r_i_glide_energy>  (123) 
-24.1482

>  <r_i_glide_einternal>  (123) 
6.14407

>  <r_i_glide_intrahb_reward>  (123) 
-0

>  <i_i_glide_confnum>  (123) 
1

>  <i_i_glide_posenum>  (123) 
23

>  <r_i_glide_eff_state_penalty>  (123) 
0

>  <ligand_id>  (123) 
34

>  <original_smiles>  (123) 
COC(=O)C(C)(O)COc1ccc2nc(C)sc2c1

>  <smiles>  (123) 
[H]OC(C(=O)OC([H])([H])[H])(C([H])([H])[H])C([H])([H])Oc1c([H])c([H])c2nc(C([H])([H])[H])sc2c1[H]

$$$$
34:0:1
     RDKit          3D

 34 35  0  0  1  0  0  0  0  0999 V2000
    3.9584    1.4338    4.3292 C   0  0  0  0  0  0  0  0  0  0  0  0
    4.4963    0.1455    3.9887 O   0  0  0  0  0  0  0  0  0  0  0  0
    3.9092   -0.7678    3.1434 C   0  0  0  0  0  0  0  0  0  0  0  0
    4.4574   -1.8468    2.8750 O   0  0  0  0  0  0  0  0  0  0  0  0
    2.5252   -0.3967    2.5227 C   0  0  1  0  0  0  0  0  0  0  0  0
    2.6252    0.8326    1.5651 C   0  0  0  0  0  0  0  0  0  0  0  0
    2.1004   -1.4411    1.6863 O   0  0  0  0  0  0  0  0  0  0  0  0
    1.4061   -0.3049    3.6091 C   0  0  0  0  0  0  0  0  0  0  0  0
    0.4402    0.6574    3.1880 O   0  0  0  0  0  0  0  0  0  0  0  0
   -0.3674    1.2729    4.1046 C   0  0  0  0  0  0  0  0  0  0  0  0
   -1.3346    2.1553    3.5719 C   0  0  0  0  0  0  0  0  0  0  0  0
   -2.2266    2.8364    4.4271 C   0  0  0  0  0  0  0  0  0  0  0  0
   -2.1697    2.6668    5.8189 C   0  0  0  0  0  0  0  0  0  0  0  0
   -2.9862    3.3031    6.7526 N   0  0  0  0  0  0  0  0  0  0  0  0
   -2.6811    2.8885    7.9940 C   0  0  0  0  0  0  0  0  0  0  0  0
   -3.4387    3.3926    9.1725 C   0  0  0  0  0  0  0  0  0  0  0  0
   -1.3414    1.7466    8.1139 S   0  0  0  0  0  0  0  0  0  0  0  0
   -1.1991    1.7794    6.3533 C   0  0  0  0  0  0  0  0  0  0  0  0
   -0.3074    1.0933    5.5132 C   0  0  0  0  0  0  0  0  0  0  0  0
    4.5507    1.9575    5.0680 H   0  0  0  0  0  0  0  0  0  0  0  0
    2.9437    1.4178    4.7288 H   0  0  0  0  0  0  0  0  0  0  0  0
    3.9534    2.1077    3.4803 H   0  0  0  0  0  0  0  0  0  0  0  0
    2.8117    1.8009    2.0335 H   0  0  0  0  0  0  0  0  0  0  0  0
    1.6663    1.0523    1.0996 H   0  0  0  0  0  0  0  0  0  0  0  0
    3.4179    0.6987    0.8208 H   0  0  0  0  0  0  0  0  0  0  0  0
    1.4876   -1.0700    1.0405 H   0  0  0  0  0  0  0  0  0  0  0  0
    0.9428   -1.2659    3.8209 H   0  0  0  0  0  0  0  0  0  0  0  0
    1.8084   -0.0813    4.5908 H   0  0  0  0  0  0  0  0  0  0  0  0
   -1.3944    2.3073    2.5052 H   0  0  0  0  0  0  0  0  0  0  0  0
   -2.9674    3.4877    3.9993 H   0  0  0  0  0  0  0  0  0  0  0  0
   -4.2161    4.0949    8.8717 H   0  0  0  0  0  0  0  0  0  0  0  0
   -2.7557    3.9072    9.8490 H   0  0  0  0  0  0  0  0  0  0  0  0
   -3.9112    2.5613    9.6995 H   0  0  0  0  0  0  0  0  0  0  0  0
    0.4141    0.4448    5.9895 H   0  0  0  0  0  0  0  0  0  0  0  0
  1  2  1  0
  1 20  1  0
  1 21  1  0
  1 22  1  0
  2  3  1  0
  3  4  2  0
  3  5  1  0
  5  6  1  0
  5  7  1  6
  5  8  1  0
  6 23  1  0
  6 24  1  0
  6 25  1  0
  7 26  1  0
  8  9  1  0
  8 27  1  0
  8 28  1  0
  9 10  1  0
 10 19  2  0
 10 11  1  0
 11 12  2  0
 11 29  1  0
 12 13  1  0
 12 30  1  0
 13 18  2  0
 13 14  1  0
 14 15  2  0
 15 16  1  0
 15 17  1  0
 16 31  1  0
 16 32  1  0
 16 33  1  0
 17 18  1  0
 18 19  1  0
 19 34  1  0
M  END
>  <i_m_ct_stereo_status>  (124) 
1

>  <s_m_source_file>  (124) 
/var/tmp/pbs.5076255.sched01/tmpon41x2vr/43t03z2zi4.sdf

>  <i_m_source_file_index>  (124) 
15

>  <i_lp_mmshare_version>  (124) 
48012

>  <i_f3d_flags>  (124) 
0

>  <s_epik_input>  (124) 
W0NIM11PQyg9TylbQ0BAXShbQ0gzXSkoW09IXSlbQ0gyXU9jKFtjSF1bY0hdMSlbY0hdYyhjMTIpc2MobjIpW0NIM10=

>  <s_epik_cmdline>  (124) 
J2VwaWtfcHl0aG9uJywgJy1waHQnLCAnMi4wJywgJy1waCcsICc3LjAnLCAnLXRuJywgJzgnLCAnLW1hJywgJzIwMCcsICctaW1hZScsICc8aW5maWxlLm1hZT4nLCAnLW9tYWUnLCAnPG91dGZpbGUubWFlPic=

>  <r_lp_tautomer_probability>  (124) 
1

>  <r_epik_Ionization_Penalty>  (124) 
1.49291e-05

>  <r_epik_Ionization_Penalty_Charging>  (124) 
0

>  <r_epik_Ionization_Penalty_Neutral>  (124) 
1.49291e-05

>  <r_epik_State_Penalty>  (124) 
-0

>  <r_epik_Charging_Adjusted_Penalty>  (124) 
0

>  <i_epik_Tot_Q>  (124) 
0

>  <i_epik_Tot_abs_Q>  (124) 
0

>  <s_epik_Chemistry_Notes>  (124) 
This compound has an ester and may undergo hydrolysis at high or low pH.

>  <s_lp_Force_Field>  (124) 
OPLS3e

>  <r_lp_Energy>  (124) 
15.8112

>  <b_lp_Chiralities_Consistent>  (124) 
1

>  <s_lp_Variant>  (124) 
34:0-1

>  <s_i_glide_gridfile>  (124) 
pfpi4k_grid

>  <i_i_glide_lignum>  (124) 
15

>  <i_i_glide_rotatable_bonds>  (124) 
6

>  <r_i_docking_score>  (124) 
-2.30063

>  <r_i_glide_ligand_efficiency>  (124) 
-0.121086

>  <r_i_glide_ligand_efficiency_sa>  (124) 
-0.323106

>  <r_i_glide_ligand_efficiency_ln>  (124) 
-0.583259

>  <r_i_glide_gscore>  (124) 
-2.30063

>  <r_i_glide_lipo>  (124) 
-0.23084

>  <r_i_glide_hbond>  (124) 
0

>  <r_i_glide_metal>  (124) 
-0

>  <r_i_glide_rewards>  (124) 
-1.51345

>  <r_i_glide_evdw>  (124) 
-20.5151

>  <r_i_glide_ecoul>  (124) 
-2.96064

>  <r_i_glide_erotb>  (124) 
0.91351

>  <r_i_glide_esite>  (124) 
0

>  <r_i_glide_emodel>  (124) 
-21.3612

>  <r_i_glide_energy>  (124) 
-23.4758

>  <r_i_glide_einternal>  (124) 
10.7082

>  <r_i_glide_intrahb_reward>  (124) 
-0

>  <i_i_glide_confnum>  (124) 
1

>  <i_i_glide_posenum>  (124) 
28

>  <r_i_glide_eff_state_penalty>  (124) 
0

>  <ligand_id>  (124) 
34

>  <original_smiles>  (124) 
COC(=O)C(C)(O)COc1ccc2nc(C)sc2c1

>  <smiles>  (124) 
[H]OC(C(=O)OC([H])([H])[H])(C([H])([H])[H])C([H])([H])Oc1c([H])c([H])c2nc(C([H])([H])[H])sc2c1[H]

$$$$
34:0:2
     RDKit          3D

 34 35  0  0  1  0  0  0  0  0999 V2000
    5.2241   -0.1972    3.5308 C   0  0  0  0  0  0  0  0  0  0  0  0
    3.8857    0.2470    3.6903 O   0  0  0  0  0  0  0  0  0  0  0  0
    3.0846    0.3565    2.6069 C   0  0  0  0  0  0  0  0  0  0  0  0
    3.4503    0.1516    1.4471 O   0  0  0  0  0  0  0  0  0  0  0  0
    1.6355    0.7840    2.9439 C   0  0  1  0  0  0  0  0  0  0  0  0
    0.6638    0.3368    1.8324 C   0  0  0  0  0  0  0  0  0  0  0  0
    1.2287    0.1318    4.1334 O   0  0  0  0  0  0  0  0  0  0  0  0
    1.5647    2.3167    3.1872 C   0  0  0  0  0  0  0  0  0  0  0  0
    0.2047    2.7527    3.2917 O   0  0  0  0  0  0  0  0  0  0  0  0
   -0.4421    2.7690    4.5087 C   0  0  0  0  0  0  0  0  0  0  0  0
   -1.8388    2.9673    4.4836 C   0  0  0  0  0  0  0  0  0  0  0  0
   -2.5858    3.0127    5.6767 C   0  0  0  0  0  0  0  0  0  0  0  0
   -1.9577    2.8590    6.9278 C   0  0  0  0  0  0  0  0  0  0  0  0
   -2.5771    2.8634    8.1682 N   0  0  0  0  0  0  0  0  0  0  0  0
   -1.6706    2.7048    9.1354 C   0  0  0  0  0  0  0  0  0  0  0  0
   -2.0450    2.6894   10.5774 C   0  0  0  0  0  0  0  0  0  0  0  0
    0.0036    2.5001    8.6112 S   0  0  0  0  0  0  0  0  0  0  0  0
   -0.5509    2.6621    6.9459 C   0  0  0  0  0  0  0  0  0  0  0  0
    0.2000    2.6171    5.7600 C   0  0  0  0  0  0  0  0  0  0  0  0
    5.7254   -0.2221    4.4979 H   0  0  0  0  0  0  0  0  0  0  0  0
    5.7848    0.4703    2.8775 H   0  0  0  0  0  0  0  0  0  0  0  0
    5.2586   -1.2021    3.1080 H   0  0  0  0  0  0  0  0  0  0  0  0
    0.9057    0.8160    0.8838 H   0  0  0  0  0  0  0  0  0  0  0  0
   -0.3729    0.5931    2.0568 H   0  0  0  0  0  0  0  0  0  0  0  0
    0.7036   -0.7430    1.6776 H   0  0  0  0  0  0  0  0  0  0  0  0
    0.3608    0.4519    4.3405 H   0  0  0  0  0  0  0  0  0  0  0  0
    2.1968    2.6435    4.0144 H   0  0  0  0  0  0  0  0  0  0  0  0
    1.9642    2.8280    2.3066 H   0  0  0  0  0  0  0  0  0  0  0  0
   -2.3465    3.0751    3.5312 H   0  0  0  0  0  0  0  0  0  0  0  0
   -3.6543    3.1576    5.6439 H   0  0  0  0  0  0  0  0  0  0  0  0
   -3.1200    2.8419   10.6839 H   0  0  0  0  0  0  0  0  0  0  0  0
   -1.5269    3.4827   11.1189 H   0  0  0  0  0  0  0  0  0  0  0  0
   -1.7830    1.7304   11.0260 H   0  0  0  0  0  0  0  0  0  0  0  0
    1.2618    2.4626    5.8447 H   0  0  0  0  0  0  0  0  0  0  0  0
  1  2  1  0
  1 20  1  0
  1 21  1  0
  1 22  1  0
  2  3  1  0
  3  4  2  0
  3  5  1  0
  5  6  1  0
  5  7  1  1
  5  8  1  0
  6 23  1  0
  6 24  1  0
  6 25  1  0
  7 26  1  0
  8  9  1  0
  8 27  1  0
  8 28  1  0
  9 10  1  0
 10 19  2  0
 10 11  1  0
 11 12  2  0
 11 29  1  0
 12 13  1  0
 12 30  1  0
 13 18  2  0
 13 14  1  0
 14 15  2  0
 15 16  1  0
 15 17  1  0
 16 31  1  0
 16 32  1  0
 16 33  1  0
 17 18  1  0
 18 19  1  0
 19 34  1  0
M  END
>  <i_m_ct_stereo_status>  (125) 
1

>  <s_m_source_file>  (125) 
/var/tmp/pbs.5076255.sched01/tmpon41x2vr/43t03z2zi4.sdf

>  <i_m_source_file_index>  (125) 
15

>  <i_lp_mmshare_version>  (125) 
48012

>  <i_f3d_flags>  (125) 
0

>  <s_epik_input>  (125) 
W0NIM11PQyg9TylbQ0BAXShbQ0gzXSkoW09IXSlbQ0gyXU9jKFtjSF1bY0hdMSlbY0hdYyhjMTIpc2MobjIpW0NIM10=

>  <s_epik_cmdline>  (125) 
J2VwaWtfcHl0aG9uJywgJy1waHQnLCAnMi4wJywgJy1waCcsICc3LjAnLCAnLXRuJywgJzgnLCAnLW1hJywgJzIwMCcsICctaW1hZScsICc8aW5maWxlLm1hZT4nLCAnLW9tYWUnLCAnPG91dGZpbGUubWFlPic=

>  <r_lp_tautomer_probability>  (125) 
1

>  <r_epik_Ionization_Penalty>  (125) 
1.49291e-05

>  <r_epik_Ionization_Penalty_Charging>  (125) 
0

>  <r_epik_Ionization_Penalty_Neutral>  (125) 
1.49291e-05

>  <r_epik_State_Penalty>  (125) 
-0

>  <r_epik_Charging_Adjusted_Penalty>  (125) 
0

>  <i_epik_Tot_Q>  (125) 
0

>  <i_epik_Tot_abs_Q>  (125) 
0

>  <s_epik_Chemistry_Notes>  (125) 
This compound has an ester and may undergo hydrolysis at high or low pH.

>  <s_lp_Force_Field>  (125) 
OPLS3e

>  <r_lp_Energy>  (125) 
15.8112

>  <b_lp_Chiralities_Consistent>  (125) 
1

>  <s_lp_Variant>  (125) 
34:0-1

>  <s_i_glide_gridfile>  (125) 
pfpi4k_grid

>  <i_i_glide_lignum>  (125) 
15

>  <i_i_glide_rotatable_bonds>  (125) 
6

>  <r_i_docking_score>  (125) 
-1.98801

>  <r_i_glide_ligand_efficiency>  (125) 
-0.104632

>  <r_i_glide_ligand_efficiency_sa>  (125) 
-0.279201

>  <r_i_glide_ligand_efficiency_ln>  (125) 
-0.504004

>  <r_i_glide_gscore>  (125) 
-1.98801

>  <r_i_glide_lipo>  (125) 
-0.212875

>  <r_i_glide_hbond>  (125) 
0

>  <r_i_glide_metal>  (125) 
-0

>  <r_i_glide_rewards>  (125) 
-1.55292

>  <r_i_glide_evdw>  (125) 
-20.8847

>  <r_i_glide_ecoul>  (125) 
-0.609993

>  <r_i_glide_erotb>  (125) 
0.91351

>  <r_i_glide_esite>  (125) 
0

>  <r_i_glide_emodel>  (125) 
-21.2619

>  <r_i_glide_energy>  (125) 
-21.4947

>  <r_i_glide_einternal>  (125) 
7.14186

>  <r_i_glide_intrahb_reward>  (125) 
-0

>  <i_i_glide_confnum>  (125) 
3

>  <i_i_glide_posenum>  (125) 
36

>  <r_i_glide_eff_state_penalty>  (125) 
0

>  <ligand_id>  (125) 
34

>  <original_smiles>  (125) 
COC(=O)C(C)(O)COc1ccc2nc(C)sc2c1

>  <smiles>  (125) 
[H]OC(C(=O)OC([H])([H])[H])(C([H])([H])[H])C([H])([H])Oc1c([H])c([H])c2nc(C([H])([H])[H])sc2c1[H]

$$$$
35:0:0
     RDKit          3D

 58 62  0  0  1  0  0  0  0  0999 V2000
    4.4851   -9.3683    2.5931 C   0  0  0  0  0  0  0  0  0  0  0  0
    3.4090   -8.2479    2.6684 C   0  0  2  0  0  0  0  0  0  0  0  0
    2.9716   -8.0812    4.1516 C   0  0  0  0  0  0  0  0  0  0  0  0
    2.3386   -9.3556    4.7499 C   0  0  0  0  0  0  0  0  0  0  0  0
    1.4106  -10.1104    3.7806 C   0  0  0  0  0  0  0  0  0  0  0  0
    0.7060  -11.0204    4.2008 O   0  0  0  0  0  0  0  0  0  0  0  0
    1.4387   -9.7908    2.4796 N   0  0  0  0  0  0  0  0  0  0  0  0
    2.1413   -8.6658    1.8642 C   0  0  1  0  0  0  0  0  0  0  0  0
    1.1273   -7.5181    1.6726 C   0  0  0  0  0  0  0  0  0  0  0  0
    1.7701   -6.2469    1.1096 C   0  0  0  0  0  0  0  0  0  0  0  0
    2.9576   -5.7813    1.9681 C   0  0  2  0  0  0  0  0  0  0  0  0
    3.5194   -4.4753    1.4176 C   0  0  0  0  0  0  0  0  0  0  0  0
    4.6937   -4.4154    0.7393 C   0  0  0  0  0  0  0  0  0  0  0  0
    5.5329   -5.6683    0.5002 C   0  0  0  0  0  0  0  0  0  0  0  0
    4.8218   -6.9912    0.8144 C   0  0  0  0  0  0  0  0  0  0  0  0
    4.0172   -6.9006    2.1260 C   0  0  2  0  0  0  0  0  0  0  0  0
    5.2821   -3.0522    0.2765 C   0  0  1  0  0  0  0  0  0  0  0  0
    6.1565   -2.5450    1.4514 C   0  0  0  0  0  0  0  0  0  0  0  0
    6.2260   -3.1308   -0.9665 C   0  0  0  0  0  0  0  0  0  0  0  0
    5.5239   -3.4591   -2.2945 C   0  0  0  0  0  0  0  0  0  0  0  0
    4.3920   -2.4810   -2.5523 C   0  0  0  0  0  0  0  0  0  0  0  0
    4.2728   -1.8802   -3.6220 O   0  0  0  0  0  0  0  0  0  0  0  0
    3.4133   -2.3108   -1.3973 C   0  0  0  0  0  0  0  0  0  0  0  0
    4.1117   -2.0372   -0.0391 C   0  0  2  0  0  0  0  0  0  0  0  0
    4.6227   -0.7164   -0.0836 O   0  0  0  0  0  0  0  0  0  0  0  0
    3.0406   -2.1117    1.0300 C   0  0  0  0  0  0  0  0  0  0  0  0
    2.7958   -3.2471    1.6994 C   0  0  0  0  0  0  0  0  0  0  0  0
    5.4107   -9.0509    3.0743 H   0  0  0  0  0  0  0  0  0  0  0  0
    4.7082   -9.6445    1.5615 H   0  0  0  0  0  0  0  0  0  0  0  0
    4.1707  -10.2935    3.0716 H   0  0  0  0  0  0  0  0  0  0  0  0
    3.8150   -7.7645    4.7675 H   0  0  0  0  0  0  0  0  0  0  0  0
    2.2283   -7.2900    4.2447 H   0  0  0  0  0  0  0  0  0  0  0  0
    3.1232  -10.0480    5.0592 H   0  0  0  0  0  0  0  0  0  0  0  0
    1.7847   -9.1146    5.6572 H   0  0  0  0  0  0  0  0  0  0  0  0
    0.8545  -10.3400    1.8634 H   0  0  0  0  0  0  0  0  0  0  0  0
    2.4561   -9.0094    0.8797 H   0  0  0  0  0  0  0  0  0  0  0  0
    0.3396   -7.8487    0.9948 H   0  0  0  0  0  0  0  0  0  0  0  0
    0.6314   -7.2887    2.6179 H   0  0  0  0  0  0  0  0  0  0  0  0
    2.0945   -6.4031    0.0822 H   0  0  0  0  0  0  0  0  0  0  0  0
    1.0197   -5.4601    1.0665 H   0  0  0  0  0  0  0  0  0  0  0  0
    2.5794   -5.5348    2.9598 H   0  0  0  0  0  0  0  0  0  0  0  0
    5.8294   -5.7109   -0.5420 H   0  0  0  0  0  0  0  0  0  0  0  0
    6.4335   -5.5929    1.1121 H   0  0  0  0  0  0  0  0  0  0  0  0
    4.1746   -7.2531   -0.0222 H   0  0  0  0  0  0  0  0  0  0  0  0
    5.5813   -7.7695    0.8621 H   0  0  0  0  0  0  0  0  0  0  0  0
    4.7324   -6.5672    2.8791 H   0  0  0  0  0  0  0  0  0  0  0  0
    6.6411   -1.5917    1.2395 H   0  0  0  0  0  0  0  0  0  0  0  0
    6.9503   -3.2572    1.6717 H   0  0  0  0  0  0  0  0  0  0  0  0
    5.5743   -2.4143    2.3630 H   0  0  0  0  0  0  0  0  0  0  0  0
    6.7152   -2.1627   -1.0913 H   0  0  0  0  0  0  0  0  0  0  0  0
    7.0475   -3.8265   -0.7929 H   0  0  0  0  0  0  0  0  0  0  0  0
    6.2332   -3.4284   -3.1200 H   0  0  0  0  0  0  0  0  0  0  0  0
    5.1006   -4.4627   -2.2671 H   0  0  0  0  0  0  0  0  0  0  0  0
    2.6978   -1.5252   -1.6356 H   0  0  0  0  0  0  0  0  0  0  0  0
    2.8483   -3.2394   -1.3299 H   0  0  0  0  0  0  0  0  0  0  0  0
    3.9045   -0.1340   -0.2799 H   0  0  0  0  0  0  0  0  0  0  0  0
    2.4824   -1.2108    1.2480 H   0  0  0  0  0  0  0  0  0  0  0  0
    2.0408   -3.2481    2.4708 H   0  0  0  0  0  0  0  0  0  0  0  0
  2  1  1  1
  1 28  1  0
  1 29  1  0
  1 30  1  0
  2  8  1  0
  2 16  1  0
  2  3  1  0
  3  4  1  0
  3 31  1  0
  3 32  1  0
  4  5  1  0
  4 33  1  0
  4 34  1  0
  5  6  2  0
  5  7  1  0
  7  8  1  0
  7 35  1  0
  8  9  1  0
  8 36  1  6
  9 10  1  0
  9 37  1  0
  9 38  1  0
 10 11  1  0
 10 39  1  0
 10 40  1  0
 11 16  1  0
 11 12  1  0
 11 41  1  1
 12 27  1  0
 12 13  2  0
 13 14  1  0
 13 17  1  0
 14 15  1  0
 14 42  1  0
 14 43  1  0
 15 16  1  0
 15 44  1  0
 15 45  1  0
 16 46  1  1
 17 24  1  0
 17 18  1  1
 17 19  1  0
 18 47  1  0
 18 48  1  0
 18 49  1  0
 19 20  1  0
 19 50  1  0
 19 51  1  0
 20 21  1  0
 20 52  1  0
 20 53  1  0
 21 22  2  0
 21 23  1  0
 23 24  1  0
 23 54  1  0
 23 55  1  0
 24 25  1  6
 24 26  1  0
 25 56  1  0
 26 27  2  0
 26 57  1  0
 27 58  1  0
M  END
>  <i_m_ct_stereo_status>  (126) 
1

>  <s_m_source_file>  (126) 
/var/tmp/pbs.5076255.sched01/tmpon41x2vr/43t03z2zi4.sdf

>  <i_m_source_file_index>  (126) 
16

>  <i_lp_mmshare_version>  (126) 
48012

>  <i_f3d_flags>  (126) 
0

>  <s_epik_input>  (126) 
W0NIMl0xW0NIMl1DKD1PKVtOSF1bQ0BIXShbQ0BdMTJbQ0gzXSlbQ0gyXVtDSDJdW0NAQEhdM0M0PUMoW0NIMl1bQ0gyXVtDQEhdMjMpW0NAXTUoW0NIM10pW0NAXShbT0hdKShbQ0hdPVtDSF00KVtDSDJdQyg9TylbQ0gyXVtDSDJdNQ==

>  <s_epik_cmdline>  (126) 
J2VwaWtfcHl0aG9uJywgJy1waHQnLCAnMi4wJywgJy1waCcsICc3LjAnLCAnLXRuJywgJzgnLCAnLW1hJywgJzIwMCcsICctaW1hZScsICc8aW5maWxlLm1hZT4nLCAnLW9tYWUnLCAnPG91dGZpbGUubWFlPic=

>  <r_lp_tautomer_probability>  (126) 
1

>  <r_epik_Ionization_Penalty>  (126) 
2.23329e-07

>  <r_epik_Ionization_Penalty_Charging>  (126) 
0

>  <r_epik_Ionization_Penalty_Neutral>  (126) 
2.23329e-07

>  <r_epik_State_Penalty>  (126) 
-0

>  <r_epik_Charging_Adjusted_Penalty>  (126) 
0

>  <i_epik_Tot_Q>  (126) 
0

>  <i_epik_Tot_abs_Q>  (126) 
0

>  <s_lp_Force_Field>  (126) 
OPLS3e

>  <r_lp_Energy>  (126) 
48.2479

>  <b_lp_Chiralities_Consistent>  (126) 
1

>  <s_lp_Variant>  (126) 
35:0-1

>  <s_i_glide_gridfile>  (126) 
pfpi4k_grid

>  <i_i_glide_lignum>  (126) 
16

>  <i_i_glide_rotatable_bonds>  (126) 
1

>  <r_i_docking_score>  (126) 
-3.77754

>  <r_i_glide_ligand_efficiency>  (126) 
-0.139909

>  <r_i_glide_ligand_efficiency_sa>  (126) 
-0.419726

>  <r_i_glide_ligand_efficiency_ln>  (126) 
-0.879349

>  <r_i_glide_gscore>  (126) 
-3.77754

>  <r_i_glide_lipo>  (126) 
-0.664594

>  <r_i_glide_hbond>  (126) 
-0.0252437

>  <r_i_glide_metal>  (126) 
-0

>  <r_i_glide_rewards>  (126) 
-1.03953

>  <r_i_glide_evdw>  (126) 
-34.7048

>  <r_i_glide_ecoul>  (126) 
-2.08617

>  <r_i_glide_erotb>  (126) 
0

>  <r_i_glide_esite>  (126) 
0

>  <r_i_glide_emodel>  (126) 
-44.716

>  <r_i_glide_energy>  (126) 
-36.791

>  <r_i_glide_einternal>  (126) 
0.0178119

>  <r_i_glide_intrahb_reward>  (126) 
-0

>  <i_i_glide_confnum>  (126) 
1

>  <i_i_glide_posenum>  (126) 
1

>  <r_i_glide_eff_state_penalty>  (126) 
0

>  <ligand_id>  (126) 
35

>  <original_smiles>  (126) 
CC12CCC(=O)NC1CCC1C3=C(CCC12)C1(C)CCC(=O)CC1(O)C=C3

>  <smiles>  (126) 
[H]OC12C([H])=C([H])C3=C(C([H])([H])C([H])([H])C4([H])C3([H])C([H])([H])C([H])([H])C3([H])N([H])C(=O)C([H])([H])C([H])([H])C34C([H])([H])[H])C1(C([H])([H])[H])C([H])([H])C([H])([H])C(=O)C2([H])[H]

$$$$
35:0:1
     RDKit          3D

 58 62  0  0  1  0  0  0  0  0999 V2000
   -1.2537    0.5160    5.6668 C   0  0  0  0  0  0  0  0  0  0  0  0
   -0.1298    0.8612    4.6487 C   0  0  2  0  0  0  0  0  0  0  0  0
    0.5965    2.1475    5.1364 C   0  0  0  0  0  0  0  0  0  0  0  0
   -0.3282    3.3808    5.2189 C   0  0  0  0  0  0  0  0  0  0  0  0
   -1.3261    3.4925    4.0547 C   0  0  0  0  0  0  0  0  0  0  0  0
   -1.9492    4.5387    3.9034 O   0  0  0  0  0  0  0  0  0  0  0  0
   -1.5391    2.4183    3.2747 N   0  0  0  0  0  0  0  0  0  0  0  0
   -0.7486    1.1863    3.2557 C   0  0  1  0  0  0  0  0  0  0  0  0
    0.3037    1.2993    2.1313 C   0  0  0  0  0  0  0  0  0  0  0  0
    1.2370    0.0872    2.0794 C   0  0  0  0  0  0  0  0  0  0  0  0
    1.9230   -0.1681    3.4323 C   0  0  2  0  0  0  0  0  0  0  0  0
    2.9004   -1.3325    3.3131 C   0  0  0  0  0  0  0  0  0  0  0  0
    2.6440   -2.5602    3.8372 C   0  0  0  0  0  0  0  0  0  0  0  0
    1.3466   -2.8460    4.5972 C   0  0  0  0  0  0  0  0  0  0  0  0
    0.2772   -1.7530    4.4650 C   0  0  0  0  0  0  0  0  0  0  0  0
    0.8874   -0.3374    4.5730 C   0  0  2  0  0  0  0  0  0  0  0  0
    3.7142   -3.6861    3.7856 C   0  0  1  0  0  0  0  0  0  0  0  0
    4.5705   -3.5236    5.0682 C   0  0  0  0  0  0  0  0  0  0  0  0
    3.1300   -5.1358    3.8216 C   0  0  0  0  0  0  0  0  0  0  0  0
    2.3682   -5.5561    2.5534 C   0  0  0  0  0  0  0  0  0  0  0  0
    3.2497   -5.3624    1.3292 C   0  0  0  0  0  0  0  0  0  0  0  0
    3.4366   -6.2563    0.5057 O   0  0  0  0  0  0  0  0  0  0  0  0
    3.8838   -3.9864    1.1941 C   0  0  0  0  0  0  0  0  0  0  0  0
    4.6041   -3.5250    2.4856 C   0  0  2  0  0  0  0  0  0  0  0  0
    5.7952   -4.2881    2.5891 O   0  0  0  0  0  0  0  0  0  0  0  0
    4.9821   -2.0773    2.2737 C   0  0  0  0  0  0  0  0  0  0  0  0
    4.1832   -1.0781    2.6776 C   0  0  0  0  0  0  0  0  0  0  0  0
   -0.8293    0.1997    6.6211 H   0  0  0  0  0  0  0  0  0  0  0  0
   -1.9012   -0.2770    5.2937 H   0  0  0  0  0  0  0  0  0  0  0  0
   -1.9172    1.3552    5.8704 H   0  0  0  0  0  0  0  0  0  0  0  0
    1.0757    1.9834    6.1031 H   0  0  0  0  0  0  0  0  0  0  0  0
    1.4032    2.4145    4.4544 H   0  0  0  0  0  0  0  0  0  0  0  0
   -0.8989    3.3489    6.1484 H   0  0  0  0  0  0  0  0  0  0  0  0
    0.2647    4.2941    5.2665 H   0  0  0  0  0  0  0  0  0  0  0  0
   -2.2305    2.5122    2.5442 H   0  0  0  0  0  0  0  0  0  0  0  0
   -1.4310    0.3802    2.9863 H   0  0  0  0  0  0  0  0  0  0  0  0
   -0.2013    1.3940    1.1701 H   0  0  0  0  0  0  0  0  0  0  0  0
    0.8926    2.2120    2.2382 H   0  0  0  0  0  0  0  0  0  0  0  0
    0.6774   -0.7969    1.7595 H   0  0  0  0  0  0  0  0  0  0  0  0
    1.9872    0.2503    1.2977 H   0  0  0  0  0  0  0  0  0  0  0  0
    2.5397    0.7000    3.6600 H   0  0  0  0  0  0  0  0  0  0  0  0
    0.8978   -3.7800    4.2648 H   0  0  0  0  0  0  0  0  0  0  0  0
    1.6002   -2.9645    5.6511 H   0  0  0  0  0  0  0  0  0  0  0  0
   -0.2092   -1.8660    3.4992 H   0  0  0  0  0  0  0  0  0  0  0  0
   -0.4808   -1.9383    5.2210 H   0  0  0  0  0  0  0  0  0  0  0  0
    1.4408   -0.3324    5.5145 H   0  0  0  0  0  0  0  0  0  0  0  0
    5.3493   -4.2824    5.1495 H   0  0  0  0  0  0  0  0  0  0  0  0
    3.9549   -3.6092    5.9626 H   0  0  0  0  0  0  0  0  0  0  0  0
    5.0610   -2.5517    5.1068 H   0  0  0  0  0  0  0  0  0  0  0  0
    3.9521   -5.8413    3.9561 H   0  0  0  0  0  0  0  0  0  0  0  0
    2.5014   -5.2883    4.7003 H   0  0  0  0  0  0  0  0  0  0  0  0
    2.0614   -6.5999    2.6192 H   0  0  0  0  0  0  0  0  0  0  0  0
    1.4684   -4.9563    2.4268 H   0  0  0  0  0  0  0  0  0  0  0  0
    4.5669   -3.9814    0.3452 H   0  0  0  0  0  0  0  0  0  0  0  0
    3.0763   -3.2937    0.9549 H   0  0  0  0  0  0  0  0  0  0  0  0
    5.5677   -5.2019    2.6597 H   0  0  0  0  0  0  0  0  0  0  0  0
    5.9319   -1.8742    1.8000 H   0  0  0  0  0  0  0  0  0  0  0  0
    4.5063   -0.0594    2.5281 H   0  0  0  0  0  0  0  0  0  0  0  0
  2  1  1  1
  1 28  1  0
  1 29  1  0
  1 30  1  0
  2  8  1  0
  2 16  1  0
  2  3  1  0
  3  4  1  0
  3 31  1  0
  3 32  1  0
  4  5  1  0
  4 33  1  0
  4 34  1  0
  5  6  2  0
  5  7  1  0
  7  8  1  0
  7 35  1  0
  8  9  1  0
  8 36  1  6
  9 10  1  0
  9 37  1  0
  9 38  1  0
 10 11  1  0
 10 39  1  0
 10 40  1  0
 11 16  1  0
 11 12  1  0
 11 41  1  1
 12 27  1  0
 12 13  2  0
 13 14  1  0
 13 17  1  0
 14 15  1  0
 14 42  1  0
 14 43  1  0
 15 16  1  0
 15 44  1  0
 15 45  1  0
 16 46  1  1
 17 24  1  0
 17 18  1  1
 17 19  1  0
 18 47  1  0
 18 48  1  0
 18 49  1  0
 19 20  1  0
 19 50  1  0
 19 51  1  0
 20 21  1  0
 20 52  1  0
 20 53  1  0
 21 22  2  0
 21 23  1  0
 23 24  1  0
 23 54  1  0
 23 55  1  0
 24 25  1  1
 24 26  1  0
 25 56  1  0
 26 27  2  0
 26 57  1  0
 27 58  1  0
M  END
>  <i_m_ct_stereo_status>  (127) 
1

>  <s_m_source_file>  (127) 
/var/tmp/pbs.5076255.sched01/tmpon41x2vr/43t03z2zi4.sdf

>  <i_m_source_file_index>  (127) 
16

>  <i_lp_mmshare_version>  (127) 
48012

>  <i_f3d_flags>  (127) 
0

>  <s_epik_input>  (127) 
W0NIMl0xW0NIMl1DKD1PKVtOSF1bQ0BIXShbQ0BdMTJbQ0gzXSlbQ0gyXVtDSDJdW0NAQEhdM0M0PUMoW0NIMl1bQ0gyXVtDQEhdMjMpW0NAXTUoW0NIM10pW0NAXShbT0hdKShbQ0hdPVtDSF00KVtDSDJdQyg9TylbQ0gyXVtDSDJdNQ==

>  <s_epik_cmdline>  (127) 
J2VwaWtfcHl0aG9uJywgJy1waHQnLCAnMi4wJywgJy1waCcsICc3LjAnLCAnLXRuJywgJzgnLCAnLW1hJywgJzIwMCcsICctaW1hZScsICc8aW5maWxlLm1hZT4nLCAnLW9tYWUnLCAnPG91dGZpbGUubWFlPic=

>  <r_lp_tautomer_probability>  (127) 
1

>  <r_epik_Ionization_Penalty>  (127) 
2.23329e-07

>  <r_epik_Ionization_Penalty_Charging>  (127) 
0

>  <r_epik_Ionization_Penalty_Neutral>  (127) 
2.23329e-07

>  <r_epik_State_Penalty>  (127) 
-0

>  <r_epik_Charging_Adjusted_Penalty>  (127) 
0

>  <i_epik_Tot_Q>  (127) 
0

>  <i_epik_Tot_abs_Q>  (127) 
0

>  <s_lp_Force_Field>  (127) 
OPLS3e

>  <r_lp_Energy>  (127) 
48.2479

>  <b_lp_Chiralities_Consistent>  (127) 
1

>  <s_lp_Variant>  (127) 
35:0-1

>  <s_i_glide_gridfile>  (127) 
pfpi4k_grid

>  <i_i_glide_lignum>  (127) 
16

>  <i_i_glide_rotatable_bonds>  (127) 
1

>  <r_i_docking_score>  (127) 
-3.18308

>  <r_i_glide_ligand_efficiency>  (127) 
-0.117892

>  <r_i_glide_ligand_efficiency_sa>  (127) 
-0.353675

>  <r_i_glide_ligand_efficiency_ln>  (127) 
-0.740968

>  <r_i_glide_gscore>  (127) 
-3.18308

>  <r_i_glide_lipo>  (127) 
-0.14261

>  <r_i_glide_hbond>  (127) 
-0.149354

>  <r_i_glide_metal>  (127) 
-0

>  <r_i_glide_rewards>  (127) 
-0.892739

>  <r_i_glide_evdw>  (127) 
-25.4286

>  <r_i_glide_ecoul>  (127) 
-4.21077

>  <r_i_glide_erotb>  (127) 
0

>  <r_i_glide_esite>  (127) 
-0.0953305

>  <r_i_glide_emodel>  (127) 
-36.2518

>  <r_i_glide_energy>  (127) 
-29.6394

>  <r_i_glide_einternal>  (127) 
0.131458

>  <r_i_glide_intrahb_reward>  (127) 
-0

>  <i_i_glide_confnum>  (127) 
2

>  <i_i_glide_posenum>  (127) 
12

>  <r_i_glide_eff_state_penalty>  (127) 
0

>  <ligand_id>  (127) 
35

>  <original_smiles>  (127) 
CC12CCC(=O)NC1CCC1C3=C(CCC12)C1(C)CCC(=O)CC1(O)C=C3

>  <smiles>  (127) 
[H]OC12C([H])=C([H])C3=C(C([H])([H])C([H])([H])C4([H])C3([H])C([H])([H])C([H])([H])C3([H])N([H])C(=O)C([H])([H])C([H])([H])C34C([H])([H])[H])C1(C([H])([H])[H])C([H])([H])C([H])([H])C(=O)C2([H])[H]

$$$$
35:0:2
     RDKit          3D

 58 62  0  0  1  0  0  0  0  0999 V2000
   -1.0774    0.6824    5.5489 C   0  0  0  0  0  0  0  0  0  0  0  0
    0.0336    0.9805    4.5032 C   0  0  2  0  0  0  0  0  0  0  0  0
    0.7890    2.2688    4.9428 C   0  0  0  0  0  0  0  0  0  0  0  0
   -0.1157    3.5186    5.0031 C   0  0  0  0  0  0  0  0  0  0  0  0
   -1.1423    3.6010    3.8586 C   0  0  0  0  0  0  0  0  0  0  0  0
   -1.7812    4.6314    3.6870 O   0  0  0  0  0  0  0  0  0  0  0  0
   -1.3757    2.5116    3.1093 N   0  0  0  0  0  0  0  0  0  0  0  0
   -0.6039    1.2713    3.1121 C   0  0  1  0  0  0  0  0  0  0  0  0
    0.4322    1.3468    1.9727 C   0  0  0  0  0  0  0  0  0  0  0  0
    1.3481    0.1204    1.9384 C   0  0  0  0  0  0  0  0  0  0  0  0
    2.0521   -0.1082    3.2847 C   0  0  2  0  0  0  0  0  0  0  0  0
    3.0050   -1.2927    3.1772 C   0  0  0  0  0  0  0  0  0  0  0  0
    2.7340   -2.5006    3.7345 C   0  0  0  0  0  0  0  0  0  0  0  0
    1.4425   -2.7476    4.5187 C   0  0  0  0  0  0  0  0  0  0  0  0
    0.3877   -1.6424    4.3736 C   0  0  0  0  0  0  0  0  0  0  0  0
    1.0283   -0.2366    4.4399 C   0  0  2  0  0  0  0  0  0  0  0  0
    3.7829   -3.6485    3.6971 C   0  0  1  0  0  0  0  0  0  0  0  0
    4.6682   -3.4673    4.9592 C   0  0  0  0  0  0  0  0  0  0  0  0
    3.1783   -5.0870    3.7824 C   0  0  0  0  0  0  0  0  0  0  0  0
    2.3924   -5.5291    2.5374 C   0  0  0  0  0  0  0  0  0  0  0  0
    3.2559   -5.3801    1.2946 C   0  0  0  0  0  0  0  0  0  0  0  0
    3.4080   -6.2921    0.4848 O   0  0  0  0  0  0  0  0  0  0  0  0
    3.9045   -4.0191    1.1098 C   0  0  0  0  0  0  0  0  0  0  0  0
    4.6489   -3.5376    2.3769 C   0  0  2  0  0  0  0  0  0  0  0  0
    5.8138   -4.3361    2.4767 O   0  0  0  0  0  0  0  0  0  0  0  0
    5.0561   -2.1027    2.1226 C   0  0  0  0  0  0  0  0  0  0  0  0
    4.2822   -1.0773    2.5136 C   0  0  0  0  0  0  0  0  0  0  0  0
   -0.6418    0.3843    6.5036 H   0  0  0  0  0  0  0  0  0  0  0  0
   -1.7436   -0.1097    5.2068 H   0  0  0  0  0  0  0  0  0  0  0  0
   -1.7231    1.5378    5.7395 H   0  0  0  0  0  0  0  0  0  0  0  0
    1.2822    2.1226    5.9062 H   0  0  0  0  0  0  0  0  0  0  0  0
    1.5893    2.5040    4.2410 H   0  0  0  0  0  0  0  0  0  0  0  0
   -0.6677    3.5230    5.9436 H   0  0  0  0  0  0  0  0  0  0  0  0
    0.4924    4.4240    5.0153 H   0  0  0  0  0  0  0  0  0  0  0  0
   -2.0692    2.6097    2.3841 H   0  0  0  0  0  0  0  0  0  0  0  0
   -1.3099    0.4759    2.8740 H   0  0  0  0  0  0  0  0  0  0  0  0
   -0.0891    1.4234    1.0184 H   0  0  0  0  0  0  0  0  0  0  0  0
    1.0323    2.2530    2.0468 H   0  0  0  0  0  0  0  0  0  0  0  0
    0.7665   -0.7629    1.6713 H   0  0  0  0  0  0  0  0  0  0  0  0
    2.0819    0.2481    1.1391 H   0  0  0  0  0  0  0  0  0  0  0  0
    2.6875    0.7536    3.4784 H   0  0  0  0  0  0  0  0  0  0  0  0
    0.9782   -3.6845    4.2200 H   0  0  0  0  0  0  0  0  0  0  0  0
    1.7141   -2.8415    5.5712 H   0  0  0  0  0  0  0  0  0  0  0  0
   -0.1392   -1.7702    3.4292 H   0  0  0  0  0  0  0  0  0  0  0  0
   -0.3521   -1.7945    5.1552 H   0  0  0  0  0  0  0  0  0  0  0  0
    1.5959   -0.2179    5.3718 H   0  0  0  0  0  0  0  0  0  0  0  0
    5.4306   -4.2404    5.0542 H   0  0  0  0  0  0  0  0  0  0  0  0
    4.0653   -3.5178    5.8648 H   0  0  0  0  0  0  0  0  0  0  0  0
    5.1760   -2.5033    4.9656 H   0  0  0  0  0  0  0  0  0  0  0  0
    3.9947   -5.7995    3.9157 H   0  0  0  0  0  0  0  0  0  0  0  0
    2.5639   -5.2090    4.6751 H   0  0  0  0  0  0  0  0  0  0  0  0
    2.0713   -6.5658    2.6354 H   0  0  0  0  0  0  0  0  0  0  0  0
    1.5015   -4.9179    2.4065 H   0  0  0  0  0  0  0  0  0  0  0  0
    4.5811   -4.0498    0.2569 H   0  0  0  0  0  0  0  0  0  0  0  0
    3.1047   -3.3214    0.8625 H   0  0  0  0  0  0  0  0  0  0  0  0
    6.2120   -4.1650    3.3148 H   0  0  0  0  0  0  0  0  0  0  0  0
    5.9997   -1.9292    1.6244 H   0  0  0  0  0  0  0  0  0  0  0  0
    4.6161   -0.0676    2.3278 H   0  0  0  0  0  0  0  0  0  0  0  0
  2  1  1  1
  1 28  1  0
  1 29  1  0
  1 30  1  0
  2  8  1  0
  2 16  1  0
  2  3  1  0
  3  4  1  0
  3 31  1  0
  3 32  1  0
  4  5  1  0
  4 33  1  0
  4 34  1  0
  5  6  2  0
  5  7  1  0
  7  8  1  0
  7 35  1  0
  8  9  1  0
  8 36  1  6
  9 10  1  0
  9 37  1  0
  9 38  1  0
 10 11  1  0
 10 39  1  0
 10 40  1  0
 11 16  1  0
 11 12  1  0
 11 41  1  1
 12 27  1  0
 12 13  2  0
 13 14  1  0
 13 17  1  0
 14 15  1  0
 14 42  1  0
 14 43  1  0
 15 16  1  0
 15 44  1  0
 15 45  1  0
 16 46  1  1
 17 24  1  0
 17 18  1  1
 17 19  1  0
 18 47  1  0
 18 48  1  0
 18 49  1  0
 19 20  1  0
 19 50  1  0
 19 51  1  0
 20 21  1  0
 20 52  1  0
 20 53  1  0
 21 22  2  0
 21 23  1  0
 23 24  1  0
 23 54  1  0
 23 55  1  0
 24 25  1  1
 24 26  1  0
 25 56  1  0
 26 27  2  0
 26 57  1  0
 27 58  1  0
M  END
>  <i_m_ct_stereo_status>  (128) 
1

>  <s_m_source_file>  (128) 
/var/tmp/pbs.5076255.sched01/tmpon41x2vr/43t03z2zi4.sdf

>  <i_m_source_file_index>  (128) 
16

>  <i_lp_mmshare_version>  (128) 
48012

>  <i_f3d_flags>  (128) 
0

>  <s_epik_input>  (128) 
W0NIMl0xW0NIMl1DKD1PKVtOSF1bQ0BIXShbQ0BdMTJbQ0gzXSlbQ0gyXVtDSDJdW0NAQEhdM0M0PUMoW0NIMl1bQ0gyXVtDQEhdMjMpW0NAXTUoW0NIM10pW0NAXShbT0hdKShbQ0hdPVtDSF00KVtDSDJdQyg9TylbQ0gyXVtDSDJdNQ==

>  <s_epik_cmdline>  (128) 
J2VwaWtfcHl0aG9uJywgJy1waHQnLCAnMi4wJywgJy1waCcsICc3LjAnLCAnLXRuJywgJzgnLCAnLW1hJywgJzIwMCcsICctaW1hZScsICc8aW5maWxlLm1hZT4nLCAnLW9tYWUnLCAnPG91dGZpbGUubWFlPic=

>  <r_lp_tautomer_probability>  (128) 
1

>  <r_epik_Ionization_Penalty>  (128) 
2.23329e-07

>  <r_epik_Ionization_Penalty_Charging>  (128) 
0

>  <r_epik_Ionization_Penalty_Neutral>  (128) 
2.23329e-07

>  <r_epik_State_Penalty>  (128) 
-0

>  <r_epik_Charging_Adjusted_Penalty>  (128) 
0

>  <i_epik_Tot_Q>  (128) 
0

>  <i_epik_Tot_abs_Q>  (128) 
0

>  <s_lp_Force_Field>  (128) 
OPLS3e

>  <r_lp_Energy>  (128) 
48.2479

>  <b_lp_Chiralities_Consistent>  (128) 
1

>  <s_lp_Variant>  (128) 
35:0-1

>  <s_i_glide_gridfile>  (128) 
pfpi4k_grid

>  <i_i_glide_lignum>  (128) 
16

>  <i_i_glide_rotatable_bonds>  (128) 
1

>  <r_i_docking_score>  (128) 
-3.18124

>  <r_i_glide_ligand_efficiency>  (128) 
-0.117824

>  <r_i_glide_ligand_efficiency_sa>  (128) 
-0.353471

>  <r_i_glide_ligand_efficiency_ln>  (128) 
-0.74054

>  <r_i_glide_gscore>  (128) 
-3.18124

>  <r_i_glide_lipo>  (128) 
-0.1529

>  <r_i_glide_hbond>  (128) 
-0.16

>  <r_i_glide_metal>  (128) 
-0

>  <r_i_glide_rewards>  (128) 
-0.890423

>  <r_i_glide_evdw>  (128) 
-25.0273

>  <r_i_glide_ecoul>  (128) 
-4.03293

>  <r_i_glide_erotb>  (128) 
0

>  <r_i_glide_esite>  (128) 
-0.121613

>  <r_i_glide_emodel>  (128) 
-35.7026

>  <r_i_glide_energy>  (128) 
-29.0602

>  <r_i_glide_einternal>  (128) 
0.0560246

>  <r_i_glide_intrahb_reward>  (128) 
-0

>  <i_i_glide_confnum>  (128) 
2

>  <i_i_glide_posenum>  (128) 
19

>  <r_i_glide_eff_state_penalty>  (128) 
0

>  <ligand_id>  (128) 
35

>  <original_smiles>  (128) 
CC12CCC(=O)NC1CCC1C3=C(CCC12)C1(C)CCC(=O)CC1(O)C=C3

>  <smiles>  (128) 
[H]OC12C([H])=C([H])C3=C(C([H])([H])C([H])([H])C4([H])C3([H])C([H])([H])C([H])([H])C3([H])N([H])C(=O)C([H])([H])C([H])([H])C34C([H])([H])[H])C1(C([H])([H])[H])C([H])([H])C([H])([H])C(=O)C2([H])[H]

$$$$
36:0:0
     RDKit          3D

 62 66  0  0  1  0  0  0  0  0999 V2000
    2.6239   -5.0615    2.0973 C   0  0  0  0  0  0  0  0  0  0  0  0
    2.8777   -4.0687    3.2119 C   0  0  0  0  0  0  0  0  0  0  0  0
    2.0702   -3.9456    4.1402 O   0  0  0  0  0  0  0  0  0  0  0  0
    4.0311   -3.3841    3.0463 O   0  0  0  0  0  0  0  0  0  0  0  0
    4.5246   -2.3337    3.9083 C   0  0  2  0  0  0  0  0  0  0  0  0
    4.3684   -2.6649    5.4062 C   0  0  0  0  0  0  0  0  0  0  0  0
    3.1773   -1.8003    5.8416 C   0  0  0  0  0  0  0  0  0  0  0  0
    2.6291   -1.0859    4.5702 C   0  0  1  0  0  0  0  0  0  0  0  0
    1.6731    0.1011    4.8086 C   0  0  0  0  0  0  0  0  0  0  0  0
    1.2093    0.3346    6.0505 C   0  0  0  0  0  0  0  0  0  0  0  0
    0.1480    1.3469    6.4254 C   0  0  0  0  0  0  0  0  0  0  0  0
    0.1594    2.5145    5.4342 C   0  0  1  0  0  0  0  0  0  0  0  0
    1.4062    3.1516    5.6302 O   0  0  0  0  0  0  0  0  0  0  0  0
    0.0744    1.9537    4.0188 C   0  0  0  0  0  0  0  0  0  0  0  0
   -0.9933    2.3076    3.2419 C   0  0  0  0  0  0  0  0  0  0  0  0
   -2.0833    3.1394    3.7401 C   0  0  2  0  0  0  0  0  0  0  0  0
   -3.3592    3.3329    2.9789 C   0  0  0  0  0  0  0  0  0  0  0  0
   -2.3446    4.3520    3.0462 O   0  0  0  0  0  0  0  0  0  0  0  0
   -2.1753    3.2400    5.1517 O   0  0  0  0  0  0  0  0  0  0  0  0
   -0.9222    3.6035    5.7227 C   0  0  1  0  0  0  0  0  0  0  0  0
   -1.1183    3.9295    7.2071 C   0  0  0  0  0  0  0  0  0  0  0  0
    1.0809    0.8596    3.5607 C   0  0  2  0  0  0  0  0  0  0  0  0
    0.2872   -0.1880    2.7269 C   0  0  0  0  0  0  0  0  0  0  0  0
    2.1479    1.5369    2.6695 C   0  0  1  0  0  0  0  0  0  0  0  0
    2.9891    2.3664    3.4338 O   0  0  0  0  0  0  0  0  0  0  0  0
    3.0158    0.6756    1.7276 C   0  0  0  0  0  0  0  0  0  0  0  0
    3.6103   -0.6614    2.1913 C   0  0  1  0  0  0  0  0  0  0  0  0
    4.7866   -0.8377    1.4178 O   0  0  0  0  0  0  0  0  0  0  0  0
    3.8927   -0.9158    3.6999 C   0  0  2  0  0  0  0  0  0  0  0  0
    4.8572    0.1798    4.3035 C   0  0  0  0  0  0  0  0  0  0  0  0
    3.4355   -5.8065    2.0374 H   0  0  0  0  0  0  0  0  0  0  0  0
    2.4937   -4.5428    1.1322 H   0  0  0  0  0  0  0  0  0  0  0  0
    1.6885   -5.5799    2.3429 H   0  0  0  0  0  0  0  0  0  0  0  0
    5.5859   -2.2653    3.7099 H   0  0  0  0  0  0  0  0  0  0  0  0
    4.2308   -3.7329    5.5685 H   0  0  0  0  0  0  0  0  0  0  0  0
    5.2574   -2.4329    5.9906 H   0  0  0  0  0  0  0  0  0  0  0  0
    2.4031   -2.4125    6.2804 H   0  0  0  0  0  0  0  0  0  0  0  0
    3.5380   -1.1070    6.6167 H   0  0  0  0  0  0  0  0  0  0  0  0
    2.0265   -1.8186    4.0724 H   0  0  0  0  0  0  0  0  0  0  0  0
    1.4934   -0.2855    6.8967 H   0  0  0  0  0  0  0  0  0  0  0  0
   -0.8330    0.8557    6.4622 H   0  0  0  0  0  0  0  0  0  0  0  0
    0.3949    1.6922    7.4245 H   0  0  0  0  0  0  0  0  0  0  0  0
    2.0432    2.6312    5.1567 H   0  0  0  0  0  0  0  0  0  0  0  0
   -1.1305    1.9781    2.2287 H   0  0  0  0  0  0  0  0  0  0  0  0
   -3.4667    2.8754    1.9889 H   0  0  0  0  0  0  0  0  0  0  0  0
   -4.2658    3.5888    3.5069 H   0  0  0  0  0  0  0  0  0  0  0  0
   -0.6021    4.5158    5.2227 H   0  0  0  0  0  0  0  0  0  0  0  0
   -0.1687    4.1834    7.6839 H   0  0  0  0  0  0  0  0  0  0  0  0
   -1.5659    3.0980    7.7528 H   0  0  0  0  0  0  0  0  0  0  0  0
   -1.7761    4.7868    7.3236 H   0  0  0  0  0  0  0  0  0  0  0  0
   -0.5649   -0.5744    3.2894 H   0  0  0  0  0  0  0  0  0  0  0  0
    0.8456   -1.0643    2.4174 H   0  0  0  0  0  0  0  0  0  0  0  0
   -0.0879    0.2079    1.7837 H   0  0  0  0  0  0  0  0  0  0  0  0
    1.6055    2.2078    1.9952 H   0  0  0  0  0  0  0  0  0  0  0  0
    3.6414    2.7077    2.8462 H   0  0  0  0  0  0  0  0  0  0  0  0
    2.4005    0.4548    0.8535 H   0  0  0  0  0  0  0  0  0  0  0  0
    3.8308    1.2931    1.3576 H   0  0  0  0  0  0  0  0  0  0  0  0
    2.9299   -1.4370    1.8512 H   0  0  0  0  0  0  0  0  0  0  0  0
    4.5398   -0.8447    0.5094 H   0  0  0  0  0  0  0  0  0  0  0  0
    4.3145    0.9054    4.9082 H   0  0  0  0  0  0  0  0  0  0  0  0
    5.4007    0.7374    3.5330 H   0  0  0  0  0  0  0  0  0  0  0  0
    5.6110   -0.2459    4.9708 H   0  0  0  0  0  0  0  0  0  0  0  0
  1  2  1  0
  1 31  1  0
  1 32  1  0
  1 33  1  0
  2  3  2  0
  2  4  1  0
  4  5  1  0
  5 29  1  0
  5  6  1  0
  5 34  1  1
  6  7  1  0
  6 35  1  0
  6 36  1  0
  7  8  1  0
  7 37  1  0
  7 38  1  0
  8 29  1  0
  8  9  1  0
  8 39  1  6
  9 22  1  0
  9 10  2  0
 10 11  1  0
 10 40  1  0
 11 12  1  0
 11 41  1  0
 11 42  1  0
 12 20  1  0
 12 13  1  6
 12 14  1  0
 13 43  1  0
 14 15  2  0
 14 22  1  0
 15 16  1  0
 15 44  1  0
 16 18  1  6
 16 17  1  0
 16 19  1  0
 17 18  1  0
 17 45  1  0
 17 46  1  0
 19 20  1  0
 20 21  1  0
 20 47  1  6
 21 48  1  0
 21 49  1  0
 21 50  1  0
 22 23  1  6
 22 24  1  0
 23 51  1  0
 23 52  1  0
 23 53  1  0
 24 25  1  0
 24 26  1  0
 24 54  1  6
 25 55  1  0
 26 27  1  0
 26 56  1  0
 26 57  1  0
 27 28  1  0
 27 29  1  0
 27 58  1  6
 28 59  1  0
 29 30  1  1
 30 60  1  0
 30 61  1  0
 30 62  1  0
M  END
>  <i_m_ct_stereo_status>  (129) 
1

>  <s_m_source_file>  (129) 
/var/tmp/pbs.5076255.sched01/tmpon41x2vr/43t03z2zi4.sdf

>  <i_m_source_file_index>  (129) 
17

>  <i_lp_mmshare_version>  (129) 
48012

>  <i_f3d_flags>  (129) 
0

>  <s_epik_input>  (129) 
W0NIM11bQ0BdMTJbQ0BASF0oW09IXSlbQ0gyXVtDQEBIXShbT0hdKVtDQF0oW0NIM10pKFtDQEBIXShbQ0gyXVtDSDJdMylPQyg9TylbQ0gzXSlbQ0BASF0zQzE9W0NIXVtDSDJdW0NAXShbT0hdKShbQ0BASF0oTzQpW0NIM10pQzI9W0NIXVtDQEBdNDVbQ0gyXU81

>  <s_epik_cmdline>  (129) 
J2VwaWtfcHl0aG9uJywgJy1waHQnLCAnMi4wJywgJy1waCcsICc3LjAnLCAnLXRuJywgJzgnLCAnLW1hJywgJzIwMCcsICctaW1hZScsICc8aW5maWxlLm1hZT4nLCAnLW9tYWUnLCAnPG91dGZpbGUubWFlPic=

>  <r_lp_tautomer_probability>  (129) 
1

>  <r_epik_Ionization_Penalty>  (129) 
8.25474e-07

>  <r_epik_Ionization_Penalty_Charging>  (129) 
0

>  <r_epik_Ionization_Penalty_Neutral>  (129) 
8.25474e-07

>  <r_epik_State_Penalty>  (129) 
-0

>  <r_epik_Charging_Adjusted_Penalty>  (129) 
0

>  <i_epik_Tot_Q>  (129) 
0

>  <i_epik_Tot_abs_Q>  (129) 
0

>  <s_epik_Chemistry_Notes>  (129) 
This compound has an ester and may undergo hydrolysis at high or low pH.

>  <s_lp_Force_Field>  (129) 
OPLS3e

>  <r_lp_Energy>  (129) 
45.4078

>  <b_lp_Chiralities_Consistent>  (129) 
1

>  <s_lp_Variant>  (129) 
36:0-1

>  <s_i_glide_gridfile>  (129) 
pfpi4k_grid

>  <i_i_glide_lignum>  (129) 
17

>  <i_i_glide_rotatable_bonds>  (129) 
5

>  <r_i_docking_score>  (129) 
-3.46643

>  <r_i_glide_ligand_efficiency>  (129) 
-0.115548

>  <r_i_glide_ligand_efficiency_sa>  (129) 
-0.359034

>  <r_i_glide_ligand_efficiency_ln>  (129) 
-0.787612

>  <r_i_glide_gscore>  (129) 
-3.46643

>  <r_i_glide_lipo>  (129) 
-0.302563

>  <r_i_glide_hbond>  (129) 
-0.116014

>  <r_i_glide_metal>  (129) 
-0

>  <r_i_glide_rewards>  (129) 
-1.04207

>  <r_i_glide_evdw>  (129) 
-23.6951

>  <r_i_glide_ecoul>  (129) 
-5.90561

>  <r_i_glide_erotb>  (129) 
0.11194

>  <r_i_glide_esite>  (129) 
-0.0471258

>  <r_i_glide_emodel>  (129) 
-33.1446

>  <r_i_glide_energy>  (129) 
-29.6007

>  <r_i_glide_einternal>  (129) 
14.6318

>  <r_i_glide_intrahb_reward>  (129) 
-0.5

>  <i_i_glide_confnum>  (129) 
3

>  <i_i_glide_posenum>  (129) 
7

>  <r_i_glide_eff_state_penalty>  (129) 
0

>  <ligand_id>  (129) 
36

>  <original_smiles>  (129) 
CC(=O)OC1CCC2C3=CCC4(O)C(=CC5(CO5)OC4C)C3(C)C(O)CC(O)C12C

>  <smiles>  (129) 
[H]OC1([H])C([H])([H])C([H])(O[H])C2(C([H])([H])[H])C([H])(OC(=O)C([H])([H])[H])C([H])([H])C([H])([H])C2([H])C2=C([H])C([H])([H])C3(O[H])C(=C([H])C4(OC4([H])[H])OC3([H])C([H])([H])[H])C21C([H])([H])[H]

$$$$
36:0:1
     RDKit          3D

 62 66  0  0  1  0  0  0  0  0999 V2000
    4.0743   -4.9826    1.3434 C   0  0  0  0  0  0  0  0  0  0  0  0
    4.8600   -3.9307    2.1090 C   0  0  0  0  0  0  0  0  0  0  0  0
    6.0343   -3.6821    1.8197 O   0  0  0  0  0  0  0  0  0  0  0  0
    4.1181   -3.3306    3.0650 O   0  0  0  0  0  0  0  0  0  0  0  0
    4.6618   -2.2833    3.8728 C   0  0  2  0  0  0  0  0  0  0  0  0
    4.3840   -2.6963    5.3273 C   0  0  0  0  0  0  0  0  0  0  0  0
    3.2106   -1.8242    5.7998 C   0  0  0  0  0  0  0  0  0  0  0  0
    2.6650   -1.1221    4.5366 C   0  0  1  0  0  0  0  0  0  0  0  0
    1.7024    0.0690    4.8051 C   0  0  0  0  0  0  0  0  0  0  0  0
    1.2609    0.3241    6.0496 C   0  0  0  0  0  0  0  0  0  0  0  0
    0.2441    1.3770    6.4361 C   0  0  0  0  0  0  0  0  0  0  0  0
    0.2125    2.5312    5.4324 C   0  0  1  0  0  0  0  0  0  0  0  0
    1.4296    3.2254    5.5974 O   0  0  0  0  0  0  0  0  0  0  0  0
    0.0890    1.9508    4.0166 C   0  0  0  0  0  0  0  0  0  0  0  0
   -0.9507    2.3189    3.2618 C   0  0  0  0  0  0  0  0  0  0  0  0
   -2.0621    3.1480    3.7702 C   0  0  2  0  0  0  0  0  0  0  0  0
   -3.3373    3.2990    3.0141 C   0  0  0  0  0  0  0  0  0  0  0  0
   -2.3667    4.3580    3.0703 O   0  0  0  0  0  0  0  0  0  0  0  0
   -2.1322    3.2595    5.1939 O   0  0  0  0  0  0  0  0  0  0  0  0
   -0.8673    3.6304    5.7265 C   0  0  1  0  0  0  0  0  0  0  0  0
   -1.0361    3.9851    7.2098 C   0  0  0  0  0  0  0  0  0  0  0  0
    1.0891    0.8266    3.5874 C   0  0  2  0  0  0  0  0  0  0  0  0
    0.2954   -0.2108    2.7558 C   0  0  0  0  0  0  0  0  0  0  0  0
    2.1335    1.5137    2.6595 C   0  0  1  0  0  0  0  0  0  0  0  0
    2.9594    2.4080    3.3648 O   0  0  0  0  0  0  0  0  0  0  0  0
    2.9958    0.6521    1.7157 C   0  0  0  0  0  0  0  0  0  0  0  0
    3.6167   -0.6764    2.1766 C   0  0  1  0  0  0  0  0  0  0  0  0
    4.7839   -0.7979    1.3852 O   0  0  0  0  0  0  0  0  0  0  0  0
    3.9438   -0.9106    3.6796 C   0  0  2  0  0  0  0  0  0  0  0  0
    4.8694    0.1858    4.2671 C   0  0  0  0  0  0  0  0  0  0  0  0
    3.1584   -4.5539    0.9413 H   0  0  0  0  0  0  0  0  0  0  0  0
    3.8201   -5.8099    2.0099 H   0  0  0  0  0  0  0  0  0  0  0  0
    4.6679   -5.3724    0.5141 H   0  0  0  0  0  0  0  0  0  0  0  0
    5.7386   -2.1897    3.7240 H   0  0  0  0  0  0  0  0  0  0  0  0
    4.1687   -3.7656    5.4115 H   0  0  0  0  0  0  0  0  0  0  0  0
    5.2604   -2.5089    5.9573 H   0  0  0  0  0  0  0  0  0  0  0  0
    2.4592   -2.4329    6.3046 H   0  0  0  0  0  0  0  0  0  0  0  0
    3.5990   -1.1049    6.5252 H   0  0  0  0  0  0  0  0  0  0  0  0
    2.0721   -1.8884    4.0474 H   0  0  0  0  0  0  0  0  0  0  0  0
    1.5794   -0.2602    6.8909 H   0  0  0  0  0  0  0  0  0  0  0  0
   -0.7398    0.9076    6.5008 H   0  0  0  0  0  0  0  0  0  0  0  0
    0.4991    1.7431    7.4285 H   0  0  0  0  0  0  0  0  0  0  0  0
    1.6127    3.6813    4.7848 H   0  0  0  0  0  0  0  0  0  0  0  0
   -1.1181    1.9545    2.2590 H   0  0  0  0  0  0  0  0  0  0  0  0
   -3.4441    2.8589    2.0271 H   0  0  0  0  0  0  0  0  0  0  0  0
   -4.2373    3.3437    3.6147 H   0  0  0  0  0  0  0  0  0  0  0  0
   -0.5638    4.5514    5.2136 H   0  0  0  0  0  0  0  0  0  0  0  0
   -0.0821    4.2405    7.6689 H   0  0  0  0  0  0  0  0  0  0  0  0
   -1.4747    3.1603    7.7738 H   0  0  0  0  0  0  0  0  0  0  0  0
   -1.6905    4.8462    7.3298 H   0  0  0  0  0  0  0  0  0  0  0  0
   -0.5552   -0.5764    3.3333 H   0  0  0  0  0  0  0  0  0  0  0  0
    0.8647   -1.0852    2.4803 H   0  0  0  0  0  0  0  0  0  0  0  0
   -0.0838    0.1814    1.8102 H   0  0  0  0  0  0  0  0  0  0  0  0
    1.5913    2.1743    1.9714 H   0  0  0  0  0  0  0  0  0  0  0  0
    3.6947    2.6443    2.7991 H   0  0  0  0  0  0  0  0  0  0  0  0
    2.3802    0.4224    0.8439 H   0  0  0  0  0  0  0  0  0  0  0  0
    3.7782    1.3004    1.3148 H   0  0  0  0  0  0  0  0  0  0  0  0
    2.9423   -1.4644    1.8470 H   0  0  0  0  0  0  0  0  0  0  0  0
    4.5201   -0.8777    0.4779 H   0  0  0  0  0  0  0  0  0  0  0  0
    4.3223    0.9167    4.8636 H   0  0  0  0  0  0  0  0  0  0  0  0
    5.4034    0.7199    3.4933 H   0  0  0  0  0  0  0  0  0  0  0  0
    5.6309   -0.2247    4.9306 H   0  0  0  0  0  0  0  0  0  0  0  0
  1  2  1  0
  1 31  1  0
  1 32  1  0
  1 33  1  0
  2  3  2  0
  2  4  1  0
  4  5  1  0
  5 29  1  0
  5  6  1  0
  5 34  1  1
  6  7  1  0
  6 35  1  0
  6 36  1  0
  7  8  1  0
  7 37  1  0
  7 38  1  0
  8 29  1  0
  8  9  1  0
  8 39  1  6
  9 22  1  0
  9 10  2  0
 10 11  1  0
 10 40  1  0
 11 12  1  0
 11 41  1  0
 11 42  1  0
 12 20  1  0
 12 13  1  6
 12 14  1  0
 13 43  1  0
 14 15  2  0
 14 22  1  0
 15 16  1  0
 15 44  1  0
 16 18  1  6
 16 17  1  0
 16 19  1  0
 17 18  1  0
 17 45  1  0
 17 46  1  0
 19 20  1  0
 20 21  1  0
 20 47  1  6
 21 48  1  0
 21 49  1  0
 21 50  1  0
 22 23  1  6
 22 24  1  0
 23 51  1  0
 23 52  1  0
 23 53  1  0
 24 25  1  0
 24 26  1  0
 24 54  1  6
 25 55  1  0
 26 27  1  0
 26 56  1  0
 26 57  1  0
 27 28  1  0
 27 29  1  0
 27 58  1  6
 28 59  1  0
 29 30  1  1
 30 60  1  0
 30 61  1  0
 30 62  1  0
M  END
>  <i_m_ct_stereo_status>  (130) 
1

>  <s_m_source_file>  (130) 
/var/tmp/pbs.5076255.sched01/tmpon41x2vr/43t03z2zi4.sdf

>  <i_m_source_file_index>  (130) 
17

>  <i_lp_mmshare_version>  (130) 
48012

>  <i_f3d_flags>  (130) 
0

>  <s_epik_input>  (130) 
W0NIM11bQ0BdMTJbQ0BASF0oW09IXSlbQ0gyXVtDQEBIXShbT0hdKVtDQF0oW0NIM10pKFtDQEBIXShbQ0gyXVtDSDJdMylPQyg9TylbQ0gzXSlbQ0BASF0zQzE9W0NIXVtDSDJdW0NAXShbT0hdKShbQ0BASF0oTzQpW0NIM10pQzI9W0NIXVtDQEBdNDVbQ0gyXU81

>  <s_epik_cmdline>  (130) 
J2VwaWtfcHl0aG9uJywgJy1waHQnLCAnMi4wJywgJy1waCcsICc3LjAnLCAnLXRuJywgJzgnLCAnLW1hJywgJzIwMCcsICctaW1hZScsICc8aW5maWxlLm1hZT4nLCAnLW9tYWUnLCAnPG91dGZpbGUubWFlPic=

>  <r_lp_tautomer_probability>  (130) 
1

>  <r_epik_Ionization_Penalty>  (130) 
8.25474e-07

>  <r_epik_Ionization_Penalty_Charging>  (130) 
0

>  <r_epik_Ionization_Penalty_Neutral>  (130) 
8.25474e-07

>  <r_epik_State_Penalty>  (130) 
-0

>  <r_epik_Charging_Adjusted_Penalty>  (130) 
0

>  <i_epik_Tot_Q>  (130) 
0

>  <i_epik_Tot_abs_Q>  (130) 
0

>  <s_epik_Chemistry_Notes>  (130) 
This compound has an ester and may undergo hydrolysis at high or low pH.

>  <s_lp_Force_Field>  (130) 
OPLS3e

>  <r_lp_Energy>  (130) 
45.4078

>  <b_lp_Chiralities_Consistent>  (130) 
1

>  <s_lp_Variant>  (130) 
36:0-1

>  <s_i_glide_gridfile>  (130) 
pfpi4k_grid

>  <i_i_glide_lignum>  (130) 
17

>  <i_i_glide_rotatable_bonds>  (130) 
5

>  <r_i_docking_score>  (130) 
-3.27101

>  <r_i_glide_ligand_efficiency>  (130) 
-0.109034

>  <r_i_glide_ligand_efficiency_sa>  (130) 
-0.338793

>  <r_i_glide_ligand_efficiency_ln>  (130) 
-0.74321

>  <r_i_glide_gscore>  (130) 
-3.27101

>  <r_i_glide_lipo>  (130) 
-0.32858

>  <r_i_glide_hbond>  (130) 
-0.122418

>  <r_i_glide_metal>  (130) 
-0

>  <r_i_glide_rewards>  (130) 
-0.58015

>  <r_i_glide_evdw>  (130) 
-25.6579

>  <r_i_glide_ecoul>  (130) 
-6.81658

>  <r_i_glide_erotb>  (130) 
0.11194

>  <r_i_glide_esite>  (130) 
-0.046426

>  <r_i_glide_emodel>  (130) 
-37.7722

>  <r_i_glide_energy>  (130) 
-32.4744

>  <r_i_glide_einternal>  (130) 
1.79225

>  <r_i_glide_intrahb_reward>  (130) 
-0

>  <i_i_glide_confnum>  (130) 
3

>  <i_i_glide_posenum>  (130) 
23

>  <r_i_glide_eff_state_penalty>  (130) 
0

>  <ligand_id>  (130) 
36

>  <original_smiles>  (130) 
CC(=O)OC1CCC2C3=CCC4(O)C(=CC5(CO5)OC4C)C3(C)C(O)CC(O)C12C

>  <smiles>  (130) 
[H]OC1([H])C([H])([H])C([H])(O[H])C2(C([H])([H])[H])C([H])(OC(=O)C([H])([H])[H])C([H])([H])C([H])([H])C2([H])C2=C([H])C([H])([H])C3(O[H])C(=C([H])C4(OC4([H])[H])OC3([H])C([H])([H])[H])C21C([H])([H])[H]

$$$$
36:0:2
     RDKit          3D

 62 66  0  0  1  0  0  0  0  0999 V2000
    2.4984   -4.6440    1.5311 C   0  0  0  0  0  0  0  0  0  0  0  0
    2.5176   -3.7519    2.7764 C   0  0  0  0  0  0  0  0  0  0  0  0
    1.5673   -3.7472    3.5378 O   0  0  0  0  0  0  0  0  0  0  0  0
    3.6767   -3.0674    2.8758 O   0  0  0  0  0  0  0  0  0  0  0  0
    3.9997   -2.1460    3.9424 C   0  0  2  0  0  0  0  0  0  0  0  0
    3.5993   -2.6717    5.3281 C   0  0  0  0  0  0  0  0  0  0  0  0
    2.3461   -1.8580    5.6803 C   0  0  0  0  0  0  0  0  0  0  0  0
    2.0003   -0.9814    4.4383 C   0  0  1  0  0  0  0  0  0  0  0  0
    1.0064    0.1794    4.6900 C   0  0  0  0  0  0  0  0  0  0  0  0
    0.3518    0.2512    5.8558 C   0  0  0  0  0  0  0  0  0  0  0  0
   -0.7737    1.2111    6.1818 C   0  0  0  0  0  0  0  0  0  0  0  0
   -0.6132    2.5182    5.3930 C   0  0  1  0  0  0  0  0  0  0  0  0
    0.5658    3.1090    5.8873 O   0  0  0  0  0  0  0  0  0  0  0  0
   -0.4703    2.1420    3.9082 C   0  0  0  0  0  0  0  0  0  0  0  0
   -1.3710    2.5862    3.0297 C   0  0  0  0  0  0  0  0  0  0  0  0
   -2.5525    3.3684    3.4114 C   0  0  2  0  0  0  0  0  0  0  0  0
   -3.6960    3.6306    2.4775 C   0  0  0  0  0  0  0  0  0  0  0  0
   -2.7178    4.6386    2.8246 O   0  0  0  0  0  0  0  0  0  0  0  0
   -2.8604    3.3363    4.7933 O   0  0  0  0  0  0  0  0  0  0  0  0
   -1.7391    3.5736    5.6312 C   0  0  1  0  0  0  0  0  0  0  0  0
   -2.1730    3.6715    7.1109 C   0  0  0  0  0  0  0  0  0  0  0  0
    0.6009    1.0909    3.4848 C   0  0  2  0  0  0  0  0  0  0  0  0
   -0.0122    0.1896    2.3975 C   0  0  0  0  0  0  0  0  0  0  0  0
    1.7908    1.8773    2.8891 C   0  0  1  0  0  0  0  0  0  0  0  0
    2.4936    2.6191    3.8804 O   0  0  0  0  0  0  0  0  0  0  0  0
    2.7600    1.0934    1.9678 C   0  0  0  0  0  0  0  0  0  0  0  0
    3.3418   -0.2744    2.3374 C   0  0  1  0  0  0  0  0  0  0  0  0
    4.6386   -0.3242    1.7590 O   0  0  0  0  0  0  0  0  0  0  0  0
    3.3927   -0.7054    3.8283 C   0  0  2  0  0  0  0  0  0  0  0  0
    4.2298    0.2940    4.7085 C   0  0  0  0  0  0  0  0  0  0  0  0
    3.3305   -5.3666    1.5264 H   0  0  0  0  0  0  0  0  0  0  0  0
    2.5169   -4.0442    0.6130 H   0  0  0  0  0  0  0  0  0  0  0  0
    1.5664   -5.2021    1.5483 H   0  0  0  0  0  0  0  0  0  0  0  0
    5.0763   -2.0578    3.9245 H   0  0  0  0  0  0  0  0  0  0  0  0
    3.4412   -3.7485    5.3153 H   0  0  0  0  0  0  0  0  0  0  0  0
    4.3806   -2.5189    6.0773 H   0  0  0  0  0  0  0  0  0  0  0  0
    1.5104   -2.5172    5.8899 H   0  0  0  0  0  0  0  0  0  0  0  0
    2.5606   -1.2853    6.5804 H   0  0  0  0  0  0  0  0  0  0  0  0
    1.5063   -1.6103    3.7608 H   0  0  0  0  0  0  0  0  0  0  0  0
    0.4945   -0.4818    6.6347 H   0  0  0  0  0  0  0  0  0  0  0  0
   -1.7453    0.7358    5.9849 H   0  0  0  0  0  0  0  0  0  0  0  0
   -0.6987    1.4183    7.2516 H   0  0  0  0  0  0  0  0  0  0  0  0
    1.2808    2.6475    5.4504 H   0  0  0  0  0  0  0  0  0  0  0  0
   -1.3175    2.3939    1.9708 H   0  0  0  0  0  0  0  0  0  0  0  0
   -3.6931    3.2551    1.4429 H   0  0  0  0  0  0  0  0  0  0  0  0
   -4.6743    3.7824    2.9220 H   0  0  0  0  0  0  0  0  0  0  0  0
   -1.3360    4.5342    5.3275 H   0  0  0  0  0  0  0  0  0  0  0  0
   -1.3069    3.8343    7.7572 H   0  0  0  0  0  0  0  0  0  0  0  0
   -2.6887    2.7711    7.4428 H   0  0  0  0  0  0  0  0  0  0  0  0
   -2.8472    4.5017    7.3039 H   0  0  0  0  0  0  0  0  0  0  0  0
   -0.8585   -0.3764    2.8009 H   0  0  0  0  0  0  0  0  0  0  0  0
    0.6141   -0.6079    2.0532 H   0  0  0  0  0  0  0  0  0  0  0  0
   -0.2268    0.7193    1.4756 H   0  0  0  0  0  0  0  0  0  0  0  0
    1.3831    2.6497    2.2191 H   0  0  0  0  0  0  0  0  0  0  0  0
    3.1251    2.0234    4.2631 H   0  0  0  0  0  0  0  0  0  0  0  0
    2.3254    1.0232    0.9679 H   0  0  0  0  0  0  0  0  0  0  0  0
    3.6155    1.7352    1.8329 H   0  0  0  0  0  0  0  0  0  0  0  0
    2.7495   -0.9979    1.7869 H   0  0  0  0  0  0  0  0  0  0  0  0
    4.5560   -0.1830    0.8244 H   0  0  0  0  0  0  0  0  0  0  0  0
    3.5995    0.9286    5.3388 H   0  0  0  0  0  0  0  0  0  0  0  0
    4.8904    0.9565    4.1251 H   0  0  0  0  0  0  0  0  0  0  0  0
    4.8765   -0.2229    5.4242 H   0  0  0  0  0  0  0  0  0  0  0  0
  1  2  1  0
  1 31  1  0
  1 32  1  0
  1 33  1  0
  2  3  2  0
  2  4  1  0
  4  5  1  0
  5 29  1  0
  5  6  1  0
  5 34  1  1
  6  7  1  0
  6 35  1  0
  6 36  1  0
  7  8  1  0
  7 37  1  0
  7 38  1  0
  8 29  1  0
  8  9  1  0
  8 39  1  6
  9 22  1  0
  9 10  2  0
 10 11  1  0
 10 40  1  0
 11 12  1  0
 11 41  1  0
 11 42  1  0
 12 20  1  0
 12 13  1  1
 12 14  1  0
 13 43  1  0
 14 15  2  0
 14 22  1  0
 15 16  1  0
 15 44  1  0
 16 18  1  1
 16 17  1  0
 16 19  1  0
 17 18  1  0
 17 45  1  0
 17 46  1  0
 19 20  1  0
 20 21  1  0
 20 47  1  6
 21 48  1  0
 21 49  1  0
 21 50  1  0
 22 23  1  6
 22 24  1  0
 23 51  1  0
 23 52  1  0
 23 53  1  0
 24 25  1  0
 24 26  1  0
 24 54  1  6
 25 55  1  0
 26 27  1  0
 26 56  1  0
 26 57  1  0
 27 28  1  0
 27 29  1  0
 27 58  1  6
 28 59  1  0
 29 30  1  1
 30 60  1  0
 30 61  1  0
 30 62  1  0
M  END
>  <i_m_ct_stereo_status>  (131) 
1

>  <s_m_source_file>  (131) 
/var/tmp/pbs.5076255.sched01/tmpon41x2vr/43t03z2zi4.sdf

>  <i_m_source_file_index>  (131) 
17

>  <i_lp_mmshare_version>  (131) 
48012

>  <i_f3d_flags>  (131) 
0

>  <s_epik_input>  (131) 
W0NIM11bQ0BdMTJbQ0BASF0oW09IXSlbQ0gyXVtDQEBIXShbT0hdKVtDQF0oW0NIM10pKFtDQEBIXShbQ0gyXVtDSDJdMylPQyg9TylbQ0gzXSlbQ0BASF0zQzE9W0NIXVtDSDJdW0NAXShbT0hdKShbQ0BASF0oTzQpW0NIM10pQzI9W0NIXVtDQEBdNDVbQ0gyXU81

>  <s_epik_cmdline>  (131) 
J2VwaWtfcHl0aG9uJywgJy1waHQnLCAnMi4wJywgJy1waCcsICc3LjAnLCAnLXRuJywgJzgnLCAnLW1hJywgJzIwMCcsICctaW1hZScsICc8aW5maWxlLm1hZT4nLCAnLW9tYWUnLCAnPG91dGZpbGUubWFlPic=

>  <r_lp_tautomer_probability>  (131) 
1

>  <r_epik_Ionization_Penalty>  (131) 
8.25474e-07

>  <r_epik_Ionization_Penalty_Charging>  (131) 
0

>  <r_epik_Ionization_Penalty_Neutral>  (131) 
8.25474e-07

>  <r_epik_State_Penalty>  (131) 
-0

>  <r_epik_Charging_Adjusted_Penalty>  (131) 
0

>  <i_epik_Tot_Q>  (131) 
0

>  <i_epik_Tot_abs_Q>  (131) 
0

>  <s_epik_Chemistry_Notes>  (131) 
This compound has an ester and may undergo hydrolysis at high or low pH.

>  <s_lp_Force_Field>  (131) 
OPLS3e

>  <r_lp_Energy>  (131) 
45.4078

>  <b_lp_Chiralities_Consistent>  (131) 
1

>  <s_lp_Variant>  (131) 
36:0-1

>  <s_i_glide_gridfile>  (131) 
pfpi4k_grid

>  <i_i_glide_lignum>  (131) 
17

>  <i_i_glide_rotatable_bonds>  (131) 
5

>  <r_i_docking_score>  (131) 
-3.05631

>  <r_i_glide_ligand_efficiency>  (131) 
-0.101877

>  <r_i_glide_ligand_efficiency_sa>  (131) 
-0.316555

>  <r_i_glide_ligand_efficiency_ln>  (131) 
-0.694427

>  <r_i_glide_gscore>  (131) 
-3.05631

>  <r_i_glide_lipo>  (131) 
-0.334282

>  <r_i_glide_hbond>  (131) 
-0.16

>  <r_i_glide_metal>  (131) 
-0

>  <r_i_glide_rewards>  (131) 
-1.04207

>  <r_i_glide_evdw>  (131) 
-21.3917

>  <r_i_glide_ecoul>  (131) 
-3.35397

>  <r_i_glide_erotb>  (131) 
0.11194

>  <r_i_glide_esite>  (131) 
-0.0592163

>  <r_i_glide_emodel>  (131) 
-27.3504

>  <r_i_glide_energy>  (131) 
-24.7456

>  <r_i_glide_einternal>  (131) 
14.3754

>  <r_i_glide_intrahb_reward>  (131) 
-0.5

>  <i_i_glide_confnum>  (131) 
3

>  <i_i_glide_posenum>  (131) 
24

>  <r_i_glide_eff_state_penalty>  (131) 
0

>  <ligand_id>  (131) 
36

>  <original_smiles>  (131) 
CC(=O)OC1CCC2C3=CCC4(O)C(=CC5(CO5)OC4C)C3(C)C(O)CC(O)C12C

>  <smiles>  (131) 
[H]OC1([H])C([H])([H])C([H])(O[H])C2(C([H])([H])[H])C([H])(OC(=O)C([H])([H])[H])C([H])([H])C([H])([H])C2([H])C2=C([H])C([H])([H])C3(O[H])C(=C([H])C4(OC4([H])[H])OC3([H])C([H])([H])[H])C21C([H])([H])[H]

$$$$
37:0:0
     RDKit          3D

 46 51  0  0  1  0  0  0  0  0999 V2000
   -9.0357   -3.6731   -5.6058 C   0  0  0  0  0  0  0  0  0  0  0  0
   -8.0025   -4.6978   -5.3995 N   0  0  0  0  0  0  0  0  0  0  0  0
   -7.2059   -4.4746   -4.1928 C   0  0  0  0  0  0  0  0  0  0  0  0
   -7.7976   -5.6951   -6.2941 C   0  0  0  0  0  0  0  0  0  0  0  0
   -8.3371   -5.6730   -7.3974 O   0  0  0  0  0  0  0  0  0  0  0  0
   -6.9328   -6.9112   -5.8563 C   0  0  0  0  0  0  0  0  0  0  0  0
   -6.6812   -8.0674   -6.8528 C   0  0  2  0  0  0  0  0  0  0  0  0
   -7.8376   -8.4001   -7.7812 C   0  0  1  0  0  0  0  0  0  0  0  0
   -8.0589   -8.1636   -9.1456 O   0  0  0  0  0  0  0  0  0  0  0  0
   -7.2270   -9.3079   -8.8727 C   0  0  2  0  0  0  0  0  0  0  0  0
   -7.4055  -10.6526   -8.1855 C   0  0  1  0  0  0  0  0  0  0  0  0
   -6.2594  -11.6695   -8.4784 C   0  0  2  0  0  0  0  0  0  0  0  0
   -6.0017  -12.7974   -7.4683 C   0  0  1  0  0  0  0  0  0  0  0  0
   -4.5387  -13.1728   -7.1412 C   0  0  0  0  0  0  0  0  0  0  0  0
   -3.9280  -11.7482   -7.0921 C   0  0  2  0  0  0  0  0  0  0  0  0
   -3.8939  -10.8096   -5.7842 C   0  0  0  0  0  0  0  0  0  0  0  0
   -4.8494   -9.4625   -5.6631 C   0  0  0  0  0  0  0  0  0  0  0  0
   -6.3489   -9.3413   -6.1128 N   0  0  2  0  0  0  0  0  0  0  0  0
   -7.1506  -10.5442   -6.6444 C   0  0  2  0  0  0  0  0  0  0  0  0
   -6.2051  -11.5979   -6.6003 C   0  0  2  0  0  0  0  0  0  0  0  0
   -5.1117  -11.1676   -7.6492 C   0  0  2  0  0  0  0  0  0  0  0  0
   -9.6786   -3.8481   -6.4703 H   0  0  0  0  0  0  0  0  0  0  0  0
   -8.5845   -2.6889   -5.7250 H   0  0  0  0  0  0  0  0  0  0  0  0
   -9.6896   -3.6305   -4.7352 H   0  0  0  0  0  0  0  0  0  0  0  0
   -6.4202   -5.1953   -3.9828 H   0  0  0  0  0  0  0  0  0  0  0  0
   -7.8501   -4.4689   -3.3180 H   0  0  0  0  0  0  0  0  0  0  0  0
   -6.7158   -3.5046   -4.2721 H   0  0  0  0  0  0  0  0  0  0  0  0
   -5.9449   -6.5647   -5.5737 H   0  0  0  0  0  0  0  0  0  0  0  0
   -7.3856   -7.2969   -4.9452 H   0  0  0  0  0  0  0  0  0  0  0  0
   -5.8416   -7.7631   -7.4760 H   0  0  0  0  0  0  0  0  0  0  0  0
   -8.7700   -8.6661   -7.2879 H   0  0  0  0  0  0  0  0  0  0  0  0
   -6.2209   -9.1022   -9.2150 H   0  0  0  0  0  0  0  0  0  0  0  0
   -8.3841  -11.0767   -8.4188 H   0  0  0  0  0  0  0  0  0  0  0  0
   -6.0117  -11.8964   -9.5126 H   0  0  0  0  0  0  0  0  0  0  0  0
   -6.7753  -13.5620   -7.4060 H   0  0  0  0  0  0  0  0  0  0  0  0
   -4.4462  -13.7134   -6.1960 H   0  0  0  0  0  0  0  0  0  0  0  0
   -4.1088  -13.7794   -7.9390 H   0  0  0  0  0  0  0  0  0  0  0  0
   -3.0728  -11.6268   -7.7560 H   0  0  0  0  0  0  0  0  0  0  0  0
   -4.0156  -11.4321   -4.8976 H   0  0  0  0  0  0  0  0  0  0  0  0
   -2.8715  -10.4596   -5.6746 H   0  0  0  0  0  0  0  0  0  0  0  0
   -4.8152   -9.1615   -4.6215 H   0  0  0  0  0  0  0  0  0  0  0  0
   -4.2941   -8.6674   -6.1547 H   0  0  0  0  0  0  0  0  0  0  0  0
   -8.0417  -10.7445   -6.0624 H   0  0  0  0  0  0  0  0  0  0  0  0
   -5.9819  -11.9212   -5.5709 H   0  0  0  0  0  0  0  0  0  0  0  0
   -4.9294  -10.1403   -7.9595 H   0  0  0  0  0  0  0  0  0  0  0  0
   -6.8022   -9.2128   -5.2198 H   0  0  0  0  0  0  0  0  0  0  0  0
  1  2  1  0
  1 22  1  0
  1 23  1  0
  1 24  1  0
  2  3  1  0
  2  4  1  0
  3 25  1  0
  3 26  1  0
  3 27  1  0
  4  5  2  0
  4  6  1  0
  6  7  1  0
  6 28  1  0
  6 29  1  0
  7 18  1  0
  7  8  1  0
  7 30  1  6
  8 10  1  0
  8  9  1  0
  8 31  1  1
  9 10  1  0
 10 11  1  0
 10 32  1  6
 11 19  1  0
 11 12  1  0
 11 33  1  1
 12 21  1  0
 12 13  1  0
 12 34  1  6
 13 20  1  0
 13 14  1  0
 13 35  1  1
 14 15  1  0
 14 36  1  0
 14 37  1  0
 15 21  1  0
 15 16  1  0
 15 38  1  6
 16 17  1  0
 16 39  1  0
 16 40  1  0
 17 18  1  0
 17 41  1  0
 17 42  1  0
 18 19  1  0
 18 46  1  1
 19 20  1  0
 19 43  1  1
 20 21  1  0
 20 44  1  1
 21 45  1  6
M  CHG  1  18   1
M  END
>  <i_m_ct_stereo_status>  (132) 
1

>  <s_m_source_file>  (132) 
/var/tmp/pbs.5076255.sched01/tmpon41x2vr/43t03z2zi4.sdf

>  <i_m_source_file_index>  (132) 
18

>  <i_lp_mmshare_version>  (132) 
48012

>  <i_f3d_flags>  (132) 
0

>  <s_epik_input>  (132) 
W0NIM11OKFtDSDNdKUMoPU8pW0NIMl1bQ0BIXTFOKFtDSDJdW0NIMl1bQ0BASF0oW0NIMl0yKVtDQEBIXTM0KVtDQEBIXTVbQ0BIXTRbQ0BIXTJbQ0BIXTNbQ0BASF01W0NAQEhdKE82KVtDQEBIXTE2

>  <s_epik_cmdline>  (132) 
J2VwaWtfcHl0aG9uJywgJy1waHQnLCAnMi4wJywgJy1waCcsICc3LjAnLCAnLXRuJywgJzgnLCAnLW1hJywgJzIwMCcsICctaW1hZScsICc8aW5maWxlLm1hZT4nLCAnLW9tYWUnLCAnPG91dGZpbGUubWFlPic=

>  <r_epik_Ionization_Penalty>  (132) 
0.00512989

>  <r_epik_Ionization_Penalty_Charging>  (132) 
0.00512989

>  <r_epik_Ionization_Penalty_Neutral>  (132) 
6.61279e-10

>  <r_epik_State_Penalty>  (132) 
0.00373583

>  <r_epik_Charging_Adjusted_Penalty>  (132) 
0.00886572

>  <i_epik_Tot_Q>  (132) 
1

>  <i_epik_Tot_abs_Q>  (132) 
1

>  <s_lp_Force_Field>  (132) 
OPLS3e

>  <r_lp_Energy>  (132) 
192.788

>  <b_lp_Chiralities_Consistent>  (132) 
1

>  <s_lp_Variant>  (132) 
37:0-1

>  <s_i_glide_gridfile>  (132) 
pfpi4k_grid

>  <i_i_glide_lignum>  (132) 
18

>  <i_i_glide_rotatable_bonds>  (132) 
3

>  <r_i_docking_score>  (132) 
-5.73033

>  <r_i_glide_ligand_efficiency>  (132) 
-0.272873

>  <r_i_glide_ligand_efficiency_sa>  (132) 
-0.752835

>  <r_i_glide_ligand_efficiency_ln>  (132) 
-1.41681

>  <r_i_glide_gscore>  (132) 
-5.73033

>  <r_i_glide_lipo>  (132) 
-2.17898

>  <r_i_glide_hbond>  (132) 
0

>  <r_i_glide_metal>  (132) 
-0

>  <r_i_glide_rewards>  (132) 
-2.12236

>  <r_i_glide_evdw>  (132) 
-27.1694

>  <r_i_glide_ecoul>  (132) 
-1.91957

>  <r_i_glide_erotb>  (132) 
0.217416

>  <r_i_glide_esite>  (132) 
0

>  <r_i_glide_emodel>  (132) 
-38.145

>  <r_i_glide_energy>  (132) 
-29.089

>  <r_i_glide_einternal>  (132) 
4.05832

>  <r_i_glide_intrahb_reward>  (132) 
-0

>  <i_i_glide_confnum>  (132) 
2

>  <i_i_glide_posenum>  (132) 
5

>  <r_i_glide_eff_state_penalty>  (132) 
0

>  <ligand_id>  (132) 
37

>  <original_smiles>  (132) 
CN(C)C(=O)CC1C2OC2C2C3C4CC5CCN1C2C4C53

>  <smiles>  (132) 
[H]C([H])([H])N(C(=O)C([H])([H])C1([H])C2([H])OC2([H])C2([H])C3([H])C4([H])C([H])([H])C5([H])C([H])([H])C([H])([H])[N+]1([H])C2([H])C4([H])C53[H])C([H])([H])[H]

$$$$
37:0:1
     RDKit          3D

 46 51  0  0  1  0  0  0  0  0999 V2000
   -8.2803   -4.6076   -4.6344 C   0  0  0  0  0  0  0  0  0  0  0  0
   -6.8431   -4.8950   -4.6611 N   0  0  0  0  0  0  0  0  0  0  0  0
   -6.0813   -3.8820   -3.9234 C   0  0  0  0  0  0  0  0  0  0  0  0
   -6.2335   -5.9466   -5.2477 C   0  0  0  0  0  0  0  0  0  0  0  0
   -5.0225   -6.1397   -5.1134 O   0  0  0  0  0  0  0  0  0  0  0  0
   -7.0344   -6.8620   -6.2133 C   0  0  0  0  0  0  0  0  0  0  0  0
   -6.6275   -8.3477   -6.3132 C   0  0  2  0  0  0  0  0  0  0  0  0
   -5.1285   -8.6156   -6.3856 C   0  0  1  0  0  0  0  0  0  0  0  0
   -4.2219   -9.1345   -5.4608 O   0  0  0  0  0  0  0  0  0  0  0  0
   -4.9848  -10.1382   -6.1592 C   0  0  2  0  0  0  0  0  0  0  0  0
   -5.1433  -10.6093   -7.6030 C   0  0  1  0  0  0  0  0  0  0  0  0
   -5.8794  -11.9800   -7.7576 C   0  0  2  0  0  0  0  0  0  0  0  0
   -6.5705  -12.2838   -9.0961 C   0  0  1  0  0  0  0  0  0  0  0  0
   -7.9516  -12.9797   -9.0569 C   0  0  0  0  0  0  0  0  0  0  0  0
   -8.5760  -12.2245   -7.8566 C   0  0  2  0  0  0  0  0  0  0  0  0
   -9.3840  -10.8349   -7.9668 C   0  0  0  0  0  0  0  0  0  0  0  0
   -8.7308   -9.4215   -7.4054 C   0  0  0  0  0  0  0  0  0  0  0  0
   -7.2392   -8.9519   -7.5582 N   0  0  2  0  0  0  0  0  0  0  0  0
   -6.2089   -9.7564   -8.3584 C   0  0  2  0  0  0  0  0  0  0  0  0
   -6.9586  -10.8589   -8.8435 C   0  0  2  0  0  0  0  0  0  0  0  0
   -7.3199  -11.6302   -7.5039 C   0  0  2  0  0  0  0  0  0  0  0  0
   -8.9500   -5.3165   -5.1200 H   0  0  0  0  0  0  0  0  0  0  0  0
   -8.4797   -3.6332   -5.0808 H   0  0  0  0  0  0  0  0  0  0  0  0
   -8.5753   -4.5536   -3.5868 H   0  0  0  0  0  0  0  0  0  0  0  0
   -5.0017   -3.9874   -3.9794 H   0  0  0  0  0  0  0  0  0  0  0  0
   -6.3802   -3.8719   -2.8790 H   0  0  0  0  0  0  0  0  0  0  0  0
   -6.2676   -2.8961   -4.3248 H   0  0  0  0  0  0  0  0  0  0  0  0
   -8.0844   -6.9207   -5.9525 H   0  0  0  0  0  0  0  0  0  0  0  0
   -6.9879   -6.3744   -7.1887 H   0  0  0  0  0  0  0  0  0  0  0  0
   -7.0105   -8.8525   -5.4280 H   0  0  0  0  0  0  0  0  0  0  0  0
   -4.6097   -8.1087   -7.2015 H   0  0  0  0  0  0  0  0  0  0  0  0
   -5.6546  -10.6444   -5.4798 H   0  0  0  0  0  0  0  0  0  0  0  0
   -4.1736  -10.6397   -8.0934 H   0  0  0  0  0  0  0  0  0  0  0  0
   -5.5069  -12.8383   -7.2023 H   0  0  0  0  0  0  0  0  0  0  0  0
   -5.9147  -12.4470   -9.9486 H   0  0  0  0  0  0  0  0  0  0  0  0
   -8.5128  -12.8526   -9.9840 H   0  0  0  0  0  0  0  0  0  0  0  0
   -7.8414  -14.0442   -8.8551 H   0  0  0  0  0  0  0  0  0  0  0  0
   -8.9444  -12.8875   -7.0726 H   0  0  0  0  0  0  0  0  0  0  0  0
   -9.7333  -10.6965   -8.9937 H   0  0  0  0  0  0  0  0  0  0  0  0
  -10.3115  -10.9753   -7.4080 H   0  0  0  0  0  0  0  0  0  0  0  0
   -9.3438   -8.6115   -7.7995 H   0  0  0  0  0  0  0  0  0  0  0  0
   -8.9474   -9.4305   -6.3412 H   0  0  0  0  0  0  0  0  0  0  0  0
   -5.7854   -9.1171   -9.1179 H   0  0  0  0  0  0  0  0  0  0  0  0
   -7.6798  -10.5651   -9.6125 H   0  0  0  0  0  0  0  0  0  0  0  0
   -7.3711  -11.1831   -6.5123 H   0  0  0  0  0  0  0  0  0  0  0  0
   -7.3503   -8.1568   -8.1647 H   0  0  0  0  0  0  0  0  0  0  0  0
  1  2  1  0
  1 22  1  0
  1 23  1  0
  1 24  1  0
  2  3  1  0
  2  4  1  0
  3 25  1  0
  3 26  1  0
  3 27  1  0
  4  5  2  0
  4  6  1  0
  6  7  1  0
  6 28  1  0
  6 29  1  0
  7 18  1  0
  7  8  1  0
  7 30  1  1
  8 10  1  0
  8  9  1  0
  8 31  1  6
  9 10  1  0
 10 11  1  0
 10 32  1  1
 11 19  1  0
 11 12  1  0
 11 33  1  6
 12 21  1  0
 12 13  1  0
 12 34  1  1
 13 20  1  0
 13 14  1  0
 13 35  1  6
 14 15  1  0
 14 36  1  0
 14 37  1  0
 15 21  1  0
 15 16  1  0
 15 38  1  1
 16 17  1  0
 16 39  1  0
 16 40  1  0
 17 18  1  0
 17 41  1  0
 17 42  1  0
 18 19  1  0
 18 46  1  6
 19 20  1  0
 19 43  1  6
 20 21  1  0
 20 44  1  6
 21 45  1  1
M  CHG  1  18   1
M  END
>  <i_m_ct_stereo_status>  (133) 
1

>  <s_m_source_file>  (133) 
/var/tmp/pbs.5076255.sched01/tmpon41x2vr/43t03z2zi4.sdf

>  <i_m_source_file_index>  (133) 
18

>  <i_lp_mmshare_version>  (133) 
48012

>  <i_f3d_flags>  (133) 
0

>  <s_epik_input>  (133) 
W0NIM11OKFtDSDNdKUMoPU8pW0NIMl1bQ0BIXTFOKFtDSDJdW0NIMl1bQ0BASF0oW0NIMl0yKVtDQEBIXTM0KVtDQEBIXTVbQ0BIXTRbQ0BIXTJbQ0BIXTNbQ0BASF01W0NAQEhdKE82KVtDQEBIXTE2

>  <s_epik_cmdline>  (133) 
J2VwaWtfcHl0aG9uJywgJy1waHQnLCAnMi4wJywgJy1waCcsICc3LjAnLCAnLXRuJywgJzgnLCAnLW1hJywgJzIwMCcsICctaW1hZScsICc8aW5maWxlLm1hZT4nLCAnLW9tYWUnLCAnPG91dGZpbGUubWFlPic=

>  <r_epik_Ionization_Penalty>  (133) 
0.00512989

>  <r_epik_Ionization_Penalty_Charging>  (133) 
0.00512989

>  <r_epik_Ionization_Penalty_Neutral>  (133) 
6.61279e-10

>  <r_epik_State_Penalty>  (133) 
0.00373583

>  <r_epik_Charging_Adjusted_Penalty>  (133) 
0.00886572

>  <i_epik_Tot_Q>  (133) 
1

>  <i_epik_Tot_abs_Q>  (133) 
1

>  <s_lp_Force_Field>  (133) 
OPLS3e

>  <r_lp_Energy>  (133) 
192.788

>  <b_lp_Chiralities_Consistent>  (133) 
1

>  <s_lp_Variant>  (133) 
37:0-1

>  <s_i_glide_gridfile>  (133) 
pfpi4k_grid

>  <i_i_glide_lignum>  (133) 
18

>  <i_i_glide_rotatable_bonds>  (133) 
3

>  <r_i_docking_score>  (133) 
-5.51953

>  <r_i_glide_ligand_efficiency>  (133) 
-0.262835

>  <r_i_glide_ligand_efficiency_sa>  (133) 
-0.725141

>  <r_i_glide_ligand_efficiency_ln>  (133) 
-1.36469

>  <r_i_glide_gscore>  (133) 
-5.51953

>  <r_i_glide_lipo>  (133) 
-1.78722

>  <r_i_glide_hbond>  (133) 
-0.271871

>  <r_i_glide_metal>  (133) 
-0

>  <r_i_glide_rewards>  (133) 
-2.26568

>  <r_i_glide_evdw>  (133) 
-22.77

>  <r_i_glide_ecoul>  (133) 
-1.8245

>  <r_i_glide_erotb>  (133) 
0.217416

>  <r_i_glide_esite>  (133) 
0

>  <r_i_glide_emodel>  (133) 
-34.0752

>  <r_i_glide_energy>  (133) 
-24.5945

>  <r_i_glide_einternal>  (133) 
2.61853

>  <r_i_glide_intrahb_reward>  (133) 
-0

>  <i_i_glide_confnum>  (133) 
1

>  <i_i_glide_posenum>  (133) 
2

>  <r_i_glide_eff_state_penalty>  (133) 
0

>  <ligand_id>  (133) 
37

>  <original_smiles>  (133) 
CN(C)C(=O)CC1C2OC2C2C3C4CC5CCN1C2C4C53

>  <smiles>  (133) 
[H]C([H])([H])N(C(=O)C([H])([H])C1([H])C2([H])OC2([H])C2([H])C3([H])C4([H])C([H])([H])C5([H])C([H])([H])C([H])([H])[N+]1([H])C2([H])C4([H])C53[H])C([H])([H])[H]

$$$$
37:0:2
     RDKit          3D

 46 51  0  0  1  0  0  0  0  0999 V2000
    4.5634   -2.6158    1.0816 C   0  0  0  0  0  0  0  0  0  0  0  0
    3.9925   -1.2626    1.1030 N   0  0  0  0  0  0  0  0  0  0  0  0
    4.8874   -0.3263    0.4189 C   0  0  0  0  0  0  0  0  0  0  0  0
    2.7901   -0.9884    1.7027 C   0  0  0  0  0  0  0  0  0  0  0  0
    2.1447   -1.8635    2.2622 O   0  0  0  0  0  0  0  0  0  0  0  0
    2.1974    0.4489    1.6589 C   0  0  0  0  0  0  0  0  0  0  0  0
    1.4502    0.9540    2.8912 C   0  0  2  0  0  0  0  0  0  0  0  0
    0.1616    0.2094    3.1661 C   0  0  1  0  0  0  0  0  0  0  0  0
   -0.2591   -0.6788    4.1739 O   0  0  0  0  0  0  0  0  0  0  0  0
   -0.2491    0.6955    4.5827 C   0  0  2  0  0  0  0  0  0  0  0  0
   -1.0250    1.9494    4.2154 C   0  0  1  0  0  0  0  0  0  0  0  0
   -0.8639    3.1174    5.2459 C   0  0  2  0  0  0  0  0  0  0  0  0
   -1.0863    4.5579    4.7697 C   0  0  1  0  0  0  0  0  0  0  0  0
   -0.1458    5.6749    5.2910 C   0  0  0  0  0  0  0  0  0  0  0  0
    1.1916    4.8952    5.2340 C   0  0  2  0  0  0  0  0  0  0  0  0
    2.1372    4.7947    3.9341 C   0  0  0  0  0  0  0  0  0  0  0  0
    2.2688    3.3894    3.0751 C   0  0  0  0  0  0  0  0  0  0  0  0
    1.1093    2.4049    2.7051 N   0  0  2  0  0  0  0  0  0  0  0  0
   -0.3576    2.6912    3.0222 C   0  0  2  0  0  0  0  0  0  0  0  0
   -0.2746    3.9474    3.6751 C   0  0  2  0  0  0  0  0  0  0  0  0
    0.5191    3.6508    5.0033 C   0  0  2  0  0  0  0  0  0  0  0  0
    3.9309   -3.3870    1.5161 H   0  0  0  0  0  0  0  0  0  0  0  0
    5.5094   -2.6313    1.6187 H   0  0  0  0  0  0  0  0  0  0  0  0
    4.7751   -2.9190    0.0580 H   0  0  0  0  0  0  0  0  0  0  0  0
    4.5599    0.7064    0.3344 H   0  0  0  0  0  0  0  0  0  0  0  0
    5.0557   -0.6478   -0.6071 H   0  0  0  0  0  0  0  0  0  0  0  0
    5.8459   -0.2862    0.9334 H   0  0  0  0  0  0  0  0  0  0  0  0
    2.9758    1.1969    1.6198 H   0  0  0  0  0  0  0  0  0  0  0  0
    1.6061    0.5502    0.7521 H   0  0  0  0  0  0  0  0  0  0  0  0
    2.1033    0.8093    3.7473 H   0  0  0  0  0  0  0  0  0  0  0  0
   -0.5594    0.2301    2.3547 H   0  0  0  0  0  0  0  0  0  0  0  0
    0.5157    0.8419    5.3343 H   0  0  0  0  0  0  0  0  0  0  0  0
   -2.0774    1.7199    4.0343 H   0  0  0  0  0  0  0  0  0  0  0  0
   -1.0956    2.9365    6.2936 H   0  0  0  0  0  0  0  0  0  0  0  0
   -2.1120    4.7880    4.4921 H   0  0  0  0  0  0  0  0  0  0  0  0
   -0.1480    6.5618    4.6544 H   0  0  0  0  0  0  0  0  0  0  0  0
   -0.4102    5.9654    6.3088 H   0  0  0  0  0  0  0  0  0  0  0  0
    1.7285    4.8917    6.1850 H   0  0  0  0  0  0  0  0  0  0  0  0
    1.9040    5.6220    3.2587 H   0  0  0  0  0  0  0  0  0  0  0  0
    3.1412    5.0447    4.2763 H   0  0  0  0  0  0  0  0  0  0  0  0
    2.7517    3.6667    2.1462 H   0  0  0  0  0  0  0  0  0  0  0  0
    3.0452    2.8206    3.5796 H   0  0  0  0  0  0  0  0  0  0  0  0
   -0.9919    2.7116    2.1446 H   0  0  0  0  0  0  0  0  0  0  0  0
   -0.0437    4.7708    2.9844 H   0  0  0  0  0  0  0  0  0  0  0  0
    1.1960    2.8140    5.1431 H   0  0  0  0  0  0  0  0  0  0  0  0
    1.0659    2.5453    1.7076 H   0  0  0  0  0  0  0  0  0  0  0  0
  1  2  1  0
  1 22  1  0
  1 23  1  0
  1 24  1  0
  2  3  1  0
  2  4  1  0
  3 25  1  0
  3 26  1  0
  3 27  1  0
  4  5  2  0
  4  6  1  0
  6  7  1  0
  6 28  1  0
  6 29  1  0
  7 18  1  0
  7  8  1  0
  7 30  1  1
  8 10  1  0
  8  9  1  0
  8 31  1  6
  9 10  1  0
 10 11  1  0
 10 32  1  1
 11 19  1  0
 11 12  1  0
 11 33  1  6
 12 21  1  0
 12 13  1  0
 12 34  1  1
 13 20  1  0
 13 14  1  0
 13 35  1  6
 14 15  1  0
 14 36  1  0
 14 37  1  0
 15 21  1  0
 15 16  1  0
 15 38  1  1
 16 17  1  0
 16 39  1  0
 16 40  1  0
 17 18  1  0
 17 41  1  0
 17 42  1  0
 18 19  1  0
 18 46  1  6
 19 20  1  0
 19 43  1  6
 20 21  1  0
 20 44  1  6
 21 45  1  6
M  CHG  1  18   1
M  END
>  <i_m_ct_stereo_status>  (134) 
1

>  <s_m_source_file>  (134) 
/var/tmp/pbs.5076255.sched01/tmpon41x2vr/43t03z2zi4.sdf

>  <i_m_source_file_index>  (134) 
18

>  <i_lp_mmshare_version>  (134) 
48012

>  <i_f3d_flags>  (134) 
0

>  <s_epik_input>  (134) 
W0NIM11OKFtDSDNdKUMoPU8pW0NIMl1bQ0BIXTFOKFtDSDJdW0NIMl1bQ0BASF0oW0NIMl0yKVtDQEBIXTM0KVtDQEBIXTVbQ0BIXTRbQ0BIXTJbQ0BIXTNbQ0BASF01W0NAQEhdKE82KVtDQEBIXTE2

>  <s_epik_cmdline>  (134) 
J2VwaWtfcHl0aG9uJywgJy1waHQnLCAnMi4wJywgJy1waCcsICc3LjAnLCAnLXRuJywgJzgnLCAnLW1hJywgJzIwMCcsICctaW1hZScsICc8aW5maWxlLm1hZT4nLCAnLW9tYWUnLCAnPG91dGZpbGUubWFlPic=

>  <r_epik_Ionization_Penalty>  (134) 
0.00512989

>  <r_epik_Ionization_Penalty_Charging>  (134) 
0.00512989

>  <r_epik_Ionization_Penalty_Neutral>  (134) 
6.61279e-10

>  <r_epik_State_Penalty>  (134) 
0.00373583

>  <r_epik_Charging_Adjusted_Penalty>  (134) 
0.00886572

>  <i_epik_Tot_Q>  (134) 
1

>  <i_epik_Tot_abs_Q>  (134) 
1

>  <s_lp_Force_Field>  (134) 
OPLS3e

>  <r_lp_Energy>  (134) 
192.788

>  <b_lp_Chiralities_Consistent>  (134) 
1

>  <s_lp_Variant>  (134) 
37:0-1

>  <s_i_glide_gridfile>  (134) 
pfpi4k_grid

>  <i_i_glide_lignum>  (134) 
18

>  <i_i_glide_rotatable_bonds>  (134) 
3

>  <r_i_docking_score>  (134) 
-2.88285

>  <r_i_glide_ligand_efficiency>  (134) 
-0.137279

>  <r_i_glide_ligand_efficiency_sa>  (134) 
-0.378741

>  <r_i_glide_ligand_efficiency_ln>  (134) 
-0.712779

>  <r_i_glide_gscore>  (134) 
-2.88285

>  <r_i_glide_lipo>  (134) 
-0.183332

>  <r_i_glide_hbond>  (134) 
-0.0478829

>  <r_i_glide_metal>  (134) 
-0

>  <r_i_glide_rewards>  (134) 
-1.43596

>  <r_i_glide_evdw>  (134) 
-17.1453

>  <r_i_glide_ecoul>  (134) 
-2.90757

>  <r_i_glide_erotb>  (134) 
0.217416

>  <r_i_glide_esite>  (134) 
-0.139692

>  <r_i_glide_emodel>  (134) 
-24.8924

>  <r_i_glide_energy>  (134) 
-20.0529

>  <r_i_glide_einternal>  (134) 
0.998352

>  <r_i_glide_intrahb_reward>  (134) 
-0

>  <i_i_glide_confnum>  (134) 
4

>  <i_i_glide_posenum>  (134) 
16

>  <r_i_glide_eff_state_penalty>  (134) 
0

>  <ligand_id>  (134) 
37

>  <original_smiles>  (134) 
CN(C)C(=O)CC1C2OC2C2C3C4CC5CCN1C2C4C53

>  <smiles>  (134) 
[H]C([H])([H])N(C(=O)C([H])([H])C1([H])C2([H])OC2([H])C2([H])C3([H])C4([H])C([H])([H])C5([H])C([H])([H])C([H])([H])[N+]1([H])C2([H])C4([H])C53[H])C([H])([H])[H]

$$$$
38:0:0
     RDKit          3D

 21 23  0  0  1  0  0  0  0  0999 V2000
    0.6136   -5.7196    6.3348 C   0  0  0  0  0  0  0  0  0  0  0  0
    0.1311   -5.3728    5.0468 C   0  0  0  0  0  0  0  0  0  0  0  0
    0.1580   -6.5415    4.3317 C   0  0  0  0  0  0  0  0  0  0  0  0
   -0.1800   -6.8623    3.0666 N   0  0  0  0  0  0  0  0  0  0  0  0
    0.0001   -8.1360    2.7093 C   0  0  0  0  0  0  0  0  0  0  0  0
    0.5076   -9.1565    3.5613 C   0  0  0  0  0  0  0  0  0  0  0  0
    0.6904  -10.5724    3.1022 C   0  0  0  0  0  0  0  0  0  0  0  0
    0.6712  -11.7278    4.0820 C   0  0  0  0  0  0  0  0  0  0  0  0
    1.9678  -11.3208    3.4146 C   0  0  0  0  0  0  0  0  0  0  0  0
    0.8360   -8.7987    4.8516 C   0  0  0  0  0  0  0  0  0  0  0  0
    0.6575   -7.5093    5.2270 N   0  0  0  0  0  0  0  0  0  0  0  0
    0.9254   -6.9876    6.4644 N   0  0  0  0  0  0  0  0  0  0  0  0
    0.7393   -5.0649    7.1870 H   0  0  0  0  0  0  0  0  0  0  0  0
   -0.1853   -4.4008    4.6981 H   0  0  0  0  0  0  0  0  0  0  0  0
   -0.2644   -8.3762    1.6839 H   0  0  0  0  0  0  0  0  0  0  0  0
    0.2276  -10.7341    2.1305 H   0  0  0  0  0  0  0  0  0  0  0  0
    0.5355  -11.5073    5.1418 H   0  0  0  0  0  0  0  0  0  0  0  0
    0.2151  -12.6572    3.7586 H   0  0  0  0  0  0  0  0  0  0  0  0
    2.3647  -12.0038    2.6664 H   0  0  0  0  0  0  0  0  0  0  0  0
    2.7216  -10.8029    4.0053 H   0  0  0  0  0  0  0  0  0  0  0  0
    1.2375   -9.4712    5.6030 H   0  0  0  0  0  0  0  0  0  0  0  0
  1 12  2  0
  1  2  1  0
  1 13  1  0
  2  3  2  0
  2 14  1  0
  3 11  1  0
  3  4  1  0
  4  5  2  0
  5  6  1  0
  5 15  1  0
  6  7  1  0
  6 10  2  0
  7  9  1  0
  7  8  1  0
  7 16  1  0
  8  9  1  0
  8 17  1  0
  8 18  1  0
  9 19  1  0
  9 20  1  0
 10 11  1  0
 10 21  1  0
 11 12  1  0
M  END
>  <i_m_ct_stereo_status>  (135) 
1

>  <s_m_source_file>  (135) 
/var/tmp/pbs.5076255.sched01/tmpon41x2vr/43t03z2zi4.sdf

>  <i_m_source_file_index>  (135) 
19

>  <i_lp_mmshare_version>  (135) 
48012

>  <i_f3d_flags>  (135) 
0

>  <s_epik_input>  (135) 
W2NIXTFbY0hdbm4oYzEyKVtjSF1jKFtjSF1uMilbQ0hdM1tDSDJdW0NIMl0z

>  <s_epik_cmdline>  (135) 
J2VwaWtfcHl0aG9uJywgJy1waHQnLCAnMi4wJywgJy1waCcsICc3LjAnLCAnLXRuJywgJzgnLCAnLW1hJywgJzIwMCcsICctaW1hZScsICc8aW5maWxlLm1hZT4nLCAnLW9tYWUnLCAnPG91dGZpbGUubWFlPic=

>  <r_lp_tautomer_probability>  (135) 
1

>  <r_epik_Ionization_Penalty>  (135) 
1.26223e-07

>  <r_epik_Ionization_Penalty_Charging>  (135) 
0

>  <r_epik_Ionization_Penalty_Neutral>  (135) 
1.26223e-07

>  <r_epik_State_Penalty>  (135) 
-0

>  <r_epik_Charging_Adjusted_Penalty>  (135) 
0

>  <i_epik_Tot_Q>  (135) 
0

>  <i_epik_Tot_abs_Q>  (135) 
0

>  <s_lp_Force_Field>  (135) 
OPLS3e

>  <r_lp_Energy>  (135) 
13.8713

>  <b_lp_Chiralities_Consistent>  (135) 
1

>  <s_lp_Variant>  (135) 
38:0-1

>  <s_i_glide_gridfile>  (135) 
pfpi4k_grid

>  <i_i_glide_lignum>  (135) 
19

>  <i_i_glide_rotatable_bonds>  (135) 
1

>  <r_i_docking_score>  (135) 
-3.25682

>  <r_i_glide_ligand_efficiency>  (135) 
-0.271402

>  <r_i_glide_ligand_efficiency_sa>  (135) 
-0.621356

>  <r_i_glide_ligand_efficiency_ln>  (135) 
-0.934551

>  <r_i_glide_gscore>  (135) 
-3.25682

>  <r_i_glide_lipo>  (135) 
-0.222844

>  <r_i_glide_hbond>  (135) 
-0.0879357

>  <r_i_glide_metal>  (135) 
-0

>  <r_i_glide_rewards>  (135) 
-2.25

>  <r_i_glide_evdw>  (135) 
-14.722

>  <r_i_glide_ecoul>  (135) 
-3.40702

>  <r_i_glide_erotb>  (135) 
0.593802

>  <r_i_glide_esite>  (135) 
-0.0426911

>  <r_i_glide_emodel>  (135) 
-21.5585

>  <r_i_glide_energy>  (135) 
-18.1291

>  <r_i_glide_einternal>  (135) 
1.15909

>  <r_i_glide_intrahb_reward>  (135) 
-0

>  <i_i_glide_confnum>  (135) 
6

>  <i_i_glide_posenum>  (135) 
8

>  <r_i_glide_eff_state_penalty>  (135) 
0

>  <ligand_id>  (135) 
38

>  <original_smiles>  (135) 
c1cc2ncc(C3CC3)cn2n1

>  <smiles>  (135) 
[H]c1nc2c([H])c([H])nn2c([H])c1C1([H])C([H])([H])C1([H])[H]

$$$$
38:0:1
     RDKit          3D

 21 23  0  0  1  0  0  0  0  0999 V2000
    1.0991   -3.1374    5.2060 C   0  0  0  0  0  0  0  0  0  0  0  0
    1.6874   -3.5121    3.9728 C   0  0  0  0  0  0  0  0  0  0  0  0
    1.1677   -4.7455    3.7011 C   0  0  0  0  0  0  0  0  0  0  0  0
    1.3235   -5.5908    2.6720 N   0  0  0  0  0  0  0  0  0  0  0  0
    0.6454   -6.7298    2.7310 C   0  0  0  0  0  0  0  0  0  0  0  0
   -0.2470   -7.0987    3.7751 C   0  0  0  0  0  0  0  0  0  0  0  0
   -0.9831   -8.4061    3.7347 C   0  0  0  0  0  0  0  0  0  0  0  0
   -0.3595   -9.6272    3.0993 C   0  0  0  0  0  0  0  0  0  0  0  0
   -1.5398   -8.9452    2.4388 C   0  0  0  0  0  0  0  0  0  0  0  0
   -0.3941   -6.2161    4.8265 C   0  0  0  0  0  0  0  0  0  0  0  0
    0.3027   -5.0451    4.7781 N   0  0  0  0  0  0  0  0  0  0  0  0
    0.2609   -4.0257    5.6971 N   0  0  0  0  0  0  0  0  0  0  0  0
    1.2729   -2.2164    5.7438 H   0  0  0  0  0  0  0  0  0  0  0  0
    2.3936   -2.9600    3.3656 H   0  0  0  0  0  0  0  0  0  0  0  0
    0.7970   -7.3992    1.8894 H   0  0  0  0  0  0  0  0  0  0  0  0
   -1.5808   -8.5589    4.6341 H   0  0  0  0  0  0  0  0  0  0  0  0
    0.6258   -9.5232    2.6458 H   0  0  0  0  0  0  0  0  0  0  0  0
   -0.5416  -10.5867    3.5717 H   0  0  0  0  0  0  0  0  0  0  0  0
   -2.4928   -9.4688    2.4707 H   0  0  0  0  0  0  0  0  0  0  0  0
   -1.3638   -8.3722    1.5300 H   0  0  0  0  0  0  0  0  0  0  0  0
   -1.0478   -6.3626    5.6787 H   0  0  0  0  0  0  0  0  0  0  0  0
  1 12  2  0
  1  2  1  0
  1 13  1  0
  2  3  2  0
  2 14  1  0
  3 11  1  0
  3  4  1  0
  4  5  2  0
  5  6  1  0
  5 15  1  0
  6  7  1  0
  6 10  2  0
  7  9  1  0
  7  8  1  0
  7 16  1  0
  8  9  1  0
  8 17  1  0
  8 18  1  0
  9 19  1  0
  9 20  1  0
 10 11  1  0
 10 21  1  0
 11 12  1  0
M  END
>  <i_m_ct_stereo_status>  (136) 
1

>  <s_m_source_file>  (136) 
/var/tmp/pbs.5076255.sched01/tmpon41x2vr/43t03z2zi4.sdf

>  <i_m_source_file_index>  (136) 
19

>  <i_lp_mmshare_version>  (136) 
48012

>  <i_f3d_flags>  (136) 
0

>  <s_epik_input>  (136) 
W2NIXTFbY0hdbm4oYzEyKVtjSF1jKFtjSF1uMilbQ0hdM1tDSDJdW0NIMl0z

>  <s_epik_cmdline>  (136) 
J2VwaWtfcHl0aG9uJywgJy1waHQnLCAnMi4wJywgJy1waCcsICc3LjAnLCAnLXRuJywgJzgnLCAnLW1hJywgJzIwMCcsICctaW1hZScsICc8aW5maWxlLm1hZT4nLCAnLW9tYWUnLCAnPG91dGZpbGUubWFlPic=

>  <r_lp_tautomer_probability>  (136) 
1

>  <r_epik_Ionization_Penalty>  (136) 
1.26223e-07

>  <r_epik_Ionization_Penalty_Charging>  (136) 
0

>  <r_epik_Ionization_Penalty_Neutral>  (136) 
1.26223e-07

>  <r_epik_State_Penalty>  (136) 
-0

>  <r_epik_Charging_Adjusted_Penalty>  (136) 
0

>  <i_epik_Tot_Q>  (136) 
0

>  <i_epik_Tot_abs_Q>  (136) 
0

>  <s_lp_Force_Field>  (136) 
OPLS3e

>  <r_lp_Energy>  (136) 
13.8713

>  <b_lp_Chiralities_Consistent>  (136) 
1

>  <s_lp_Variant>  (136) 
38:0-1

>  <s_i_glide_gridfile>  (136) 
pfpi4k_grid

>  <i_i_glide_lignum>  (136) 
19

>  <i_i_glide_rotatable_bonds>  (136) 
1

>  <r_i_docking_score>  (136) 
-2.6807

>  <r_i_glide_ligand_efficiency>  (136) 
-0.223392

>  <r_i_glide_ligand_efficiency_sa>  (136) 
-0.511439

>  <r_i_glide_ligand_efficiency_ln>  (136) 
-0.769232

>  <r_i_glide_gscore>  (136) 
-2.6807

>  <r_i_glide_lipo>  (136) 
-0.216894

>  <r_i_glide_hbond>  (136) 
0

>  <r_i_glide_metal>  (136) 
-0

>  <r_i_glide_rewards>  (136) 
-2.25

>  <r_i_glide_evdw>  (136) 
-14.0024

>  <r_i_glide_ecoul>  (136) 
-0.560481

>  <r_i_glide_erotb>  (136) 
0.593802

>  <r_i_glide_esite>  (136) 
-0.0234186

>  <r_i_glide_emodel>  (136) 
-17.3466

>  <r_i_glide_energy>  (136) 
-14.5628

>  <r_i_glide_einternal>  (136) 
1.05976

>  <r_i_glide_intrahb_reward>  (136) 
-0

>  <i_i_glide_confnum>  (136) 
6

>  <i_i_glide_posenum>  (136) 
3

>  <r_i_glide_eff_state_penalty>  (136) 
0

>  <ligand_id>  (136) 
38

>  <original_smiles>  (136) 
c1cc2ncc(C3CC3)cn2n1

>  <smiles>  (136) 
[H]c1nc2c([H])c([H])nn2c([H])c1C1([H])C([H])([H])C1([H])[H]

$$$$
38:0:2
     RDKit          3D

 21 23  0  0  1  0  0  0  0  0999 V2000
    0.2207   -5.6057    8.7266 C   0  0  0  0  0  0  0  0  0  0  0  0
    0.2134   -6.9378    9.2200 C   0  0  0  0  0  0  0  0  0  0  0  0
    0.2251   -7.7289    8.1013 C   0  0  0  0  0  0  0  0  0  0  0  0
    0.2163   -9.0564    7.9039 N   0  0  0  0  0  0  0  0  0  0  0  0
    0.2170   -9.4798    6.6371 C   0  0  0  0  0  0  0  0  0  0  0  0
    0.2210   -8.6252    5.4971 C   0  0  0  0  0  0  0  0  0  0  0  0
    0.2143   -9.1595    4.0935 C   0  0  0  0  0  0  0  0  0  0  0  0
    0.8792   -8.4048    2.9610 C   0  0  0  0  0  0  0  0  0  0  0  0
   -0.6328   -8.5094    3.0200 C   0  0  0  0  0  0  0  0  0  0  0  0
    0.2226   -7.2647    5.7289 C   0  0  0  0  0  0  0  0  0  0  0  0
    0.2206   -6.8300    7.0123 N   0  0  0  0  0  0  0  0  0  0  0  0
    0.2057   -5.5233    7.4160 N   0  0  0  0  0  0  0  0  0  0  0  0
    0.2295   -4.6920    9.3055 H   0  0  0  0  0  0  0  0  0  0  0  0
    0.2397   -7.2720   10.2476 H   0  0  0  0  0  0  0  0  0  0  0  0
    0.2090  -10.5587    6.5083 H   0  0  0  0  0  0  0  0  0  0  0  0
    0.2834  -10.2479    4.0885 H   0  0  0  0  0  0  0  0  0  0  0  0
    1.3520   -7.4497    3.1974 H   0  0  0  0  0  0  0  0  0  0  0  0
    1.3842   -8.9842    2.1925 H   0  0  0  0  0  0  0  0  0  0  0  0
   -1.1096   -9.1549    2.2865 H   0  0  0  0  0  0  0  0  0  0  0  0
   -1.2155   -7.6327    3.3084 H   0  0  0  0  0  0  0  0  0  0  0  0
    0.2159   -6.5063    4.9540 H   0  0  0  0  0  0  0  0  0  0  0  0
  1 12  2  0
  1  2  1  0
  1 13  1  0
  2  3  2  0
  2 14  1  0
  3 11  1  0
  3  4  1  0
  4  5  2  0
  5  6  1  0
  5 15  1  0
  6  7  1  0
  6 10  2  0
  7  9  1  0
  7  8  1  0
  7 16  1  0
  8  9  1  0
  8 17  1  0
  8 18  1  0
  9 19  1  0
  9 20  1  0
 10 11  1  0
 10 21  1  0
 11 12  1  0
M  END
>  <i_m_ct_stereo_status>  (137) 
1

>  <s_m_source_file>  (137) 
/var/tmp/pbs.5076255.sched01/tmpon41x2vr/43t03z2zi4.sdf

>  <i_m_source_file_index>  (137) 
19

>  <i_lp_mmshare_version>  (137) 
48012

>  <i_f3d_flags>  (137) 
0

>  <s_epik_input>  (137) 
W2NIXTFbY0hdbm4oYzEyKVtjSF1jKFtjSF1uMilbQ0hdM1tDSDJdW0NIMl0z

>  <s_epik_cmdline>  (137) 
J2VwaWtfcHl0aG9uJywgJy1waHQnLCAnMi4wJywgJy1waCcsICc3LjAnLCAnLXRuJywgJzgnLCAnLW1hJywgJzIwMCcsICctaW1hZScsICc8aW5maWxlLm1hZT4nLCAnLW9tYWUnLCAnPG91dGZpbGUubWFlPic=

>  <r_lp_tautomer_probability>  (137) 
1

>  <r_epik_Ionization_Penalty>  (137) 
1.26223e-07

>  <r_epik_Ionization_Penalty_Charging>  (137) 
0

>  <r_epik_Ionization_Penalty_Neutral>  (137) 
1.26223e-07

>  <r_epik_State_Penalty>  (137) 
-0

>  <r_epik_Charging_Adjusted_Penalty>  (137) 
0

>  <i_epik_Tot_Q>  (137) 
0

>  <i_epik_Tot_abs_Q>  (137) 
0

>  <s_lp_Force_Field>  (137) 
OPLS3e

>  <r_lp_Energy>  (137) 
13.8713

>  <b_lp_Chiralities_Consistent>  (137) 
1

>  <s_lp_Variant>  (137) 
38:0-1

>  <s_i_glide_gridfile>  (137) 
pfpi4k_grid

>  <i_i_glide_lignum>  (137) 
19

>  <i_i_glide_rotatable_bonds>  (137) 
1

>  <r_i_docking_score>  (137) 
-2.66735

>  <r_i_glide_ligand_efficiency>  (137) 
-0.222279

>  <r_i_glide_ligand_efficiency_sa>  (137) 
-0.508893

>  <r_i_glide_ligand_efficiency_ln>  (137) 
-0.765401

>  <r_i_glide_gscore>  (137) 
-2.66735

>  <r_i_glide_lipo>  (137) 
0

>  <r_i_glide_hbond>  (137) 
0

>  <r_i_glide_metal>  (137) 
-0

>  <r_i_glide_rewards>  (137) 
-2.25

>  <r_i_glide_evdw>  (137) 
-13.3302

>  <r_i_glide_ecoul>  (137) 
-2.00234

>  <r_i_glide_erotb>  (137) 
0.593802

>  <r_i_glide_esite>  (137) 
-0.0442927

>  <r_i_glide_emodel>  (137) 
-18.0645

>  <r_i_glide_energy>  (137) 
-15.3325

>  <r_i_glide_einternal>  (137) 
1.03842

>  <r_i_glide_intrahb_reward>  (137) 
-0

>  <i_i_glide_confnum>  (137) 
2

>  <i_i_glide_posenum>  (137) 
11

>  <r_i_glide_eff_state_penalty>  (137) 
0

>  <ligand_id>  (137) 
38

>  <original_smiles>  (137) 
c1cc2ncc(C3CC3)cn2n1

>  <smiles>  (137) 
[H]c1nc2c([H])c([H])nn2c([H])c1C1([H])C([H])([H])C1([H])[H]

$$$$
39:0:0
     RDKit          3D

 25 27  0  0  1  0  0  0  0  0999 V2000
    1.5984   -9.9725    2.6430 C   0  0  0  0  0  0  0  0  0  0  0  0
    0.5762   -8.9514    2.5011 N   0  0  0  0  0  0  0  0  0  0  0  0
   -0.7059   -9.2549    2.8095 N   0  0  0  0  0  0  0  0  0  0  0  0
   -1.3473   -8.1283    2.5426 C   0  0  0  0  0  0  0  0  0  0  0  0
   -0.5752   -7.0955    2.0951 N   0  0  0  0  0  0  0  0  0  0  0  0
    0.6361   -7.6701    2.0829 C   0  0  0  0  0  0  0  0  0  0  0  0
    1.8380   -6.9476    1.6459 C   0  0  0  0  0  0  0  0  0  0  0  0
    1.8003   -5.8538    0.8754 N   0  0  0  0  0  0  0  0  0  0  0  0
    3.0620   -5.3363    0.6087 N   0  0  0  0  0  0  0  0  0  0  0  0
    4.0469   -6.0548    1.1681 C   0  0  0  0  0  0  0  0  0  0  0  0
    5.4789   -5.7572    1.0568 C   0  0  0  0  0  0  0  0  0  0  0  0
    6.4674   -6.7016    1.4201 C   0  0  0  0  0  0  0  0  0  0  0  0
    7.8261   -6.3562    1.2805 C   0  0  0  0  0  0  0  0  0  0  0  0
    8.2402   -5.1591    0.8181 N   0  0  0  0  0  0  0  0  0  0  0  0
    7.2992   -4.2555    0.4816 C   0  0  0  0  0  0  0  0  0  0  0  0
    5.9172   -4.5027    0.5785 C   0  0  0  0  0  0  0  0  0  0  0  0
    3.4760   -7.4302    2.1081 S   0  0  0  0  0  0  0  0  0  0  0  0
    2.3368   -9.6632    3.3815 H   0  0  0  0  0  0  0  0  0  0  0  0
    2.0946  -10.1437    1.6870 H   0  0  0  0  0  0  0  0  0  0  0  0
    1.1612  -10.9094    2.9843 H   0  0  0  0  0  0  0  0  0  0  0  0
   -2.4127   -8.0531    2.6879 H   0  0  0  0  0  0  0  0  0  0  0  0
    6.2148   -7.6824    1.7917 H   0  0  0  0  0  0  0  0  0  0  0  0
    8.6033   -7.0579    1.5411 H   0  0  0  0  0  0  0  0  0  0  0  0
    7.6620   -3.3059    0.1175 H   0  0  0  0  0  0  0  0  0  0  0  0
    5.2080   -3.7409    0.2907 H   0  0  0  0  0  0  0  0  0  0  0  0
  1  2  1  0
  1 18  1  0
  1 19  1  0
  1 20  1  0
  2  6  1  0
  2  3  1  0
  3  4  2  0
  4  5  1  0
  4 21  1  0
  5  6  2  0
  6  7  1  0
  7 17  1  0
  7  8  2  0
  8  9  1  0
  9 10  2  0
 10 11  1  0
 10 17  1  0
 11 16  1  0
 11 12  2  0
 12 13  1  0
 12 22  1  0
 13 14  2  0
 13 23  1  0
 14 15  1  0
 15 16  2  0
 15 24  1  0
 16 25  1  0
M  END
>  <i_m_ct_stereo_status>  (138) 
1

>  <s_m_source_file>  (138) 
/var/tmp/pbs.5076255.sched01/tmpon41x2vr/43t03z2zi4.sdf

>  <i_m_source_file_index>  (138) 
20

>  <i_lp_mmshare_version>  (138) 
48012

>  <i_f3d_flags>  (138) 
0

>  <s_epik_input>  (138) 
W0NIM11uMW5bY0hdbmMxLWMybm5jKHMyKS1jM1tjSF1bY0hdbltjSF1bY0hdMw==

>  <s_epik_cmdline>  (138) 
J2VwaWtfcHl0aG9uJywgJy1waHQnLCAnMi4wJywgJy1waCcsICc3LjAnLCAnLXRuJywgJzgnLCAnLW1hJywgJzIwMCcsICctaW1hZScsICc8aW5maWxlLm1hZT4nLCAnLW9tYWUnLCAnPG91dGZpbGUubWFlPic=

>  <r_lp_tautomer_probability>  (138) 
1

>  <r_epik_Ionization_Penalty>  (138) 
0.000130102

>  <r_epik_Ionization_Penalty_Charging>  (138) 
0

>  <r_epik_Ionization_Penalty_Neutral>  (138) 
0.000130102

>  <r_epik_State_Penalty>  (138) 
-0

>  <r_epik_Charging_Adjusted_Penalty>  (138) 
0

>  <i_epik_Tot_Q>  (138) 
0

>  <i_epik_Tot_abs_Q>  (138) 
0

>  <s_lp_Force_Field>  (138) 
OPLS3e

>  <r_lp_Energy>  (138) 
20.3039

>  <b_lp_Chiralities_Consistent>  (138) 
1

>  <s_lp_Variant>  (138) 
39:0-1

>  <s_i_glide_gridfile>  (138) 
pfpi4k_grid

>  <i_i_glide_lignum>  (138) 
20

>  <i_i_glide_rotatable_bonds>  (138) 
2

>  <r_i_docking_score>  (138) 
-3.74648

>  <r_i_glide_ligand_efficiency>  (138) 
-0.220381

>  <r_i_glide_ligand_efficiency_sa>  (138) 
-0.566662

>  <r_i_glide_ligand_efficiency_ln>  (138) 
-0.977373

>  <r_i_glide_gscore>  (138) 
-3.74648

>  <r_i_glide_lipo>  (138) 
-0.603253

>  <r_i_glide_hbond>  (138) 
-0.121963

>  <r_i_glide_metal>  (138) 
-0

>  <r_i_glide_rewards>  (138) 
-1.74357

>  <r_i_glide_evdw>  (138) 
-25.4883

>  <r_i_glide_ecoul>  (138) 
-2.65341

>  <r_i_glide_erotb>  (138) 
0.582648

>  <r_i_glide_esite>  (138) 
-0.187915

>  <r_i_glide_emodel>  (138) 
-32.2693

>  <r_i_glide_energy>  (138) 
-28.1417

>  <r_i_glide_einternal>  (138) 
6.39708

>  <r_i_glide_intrahb_reward>  (138) 
-0

>  <i_i_glide_confnum>  (138) 
3

>  <i_i_glide_posenum>  (138) 
27

>  <r_i_glide_eff_state_penalty>  (138) 
0

>  <ligand_id>  (138) 
39

>  <original_smiles>  (138) 
Cn1ncnc1-c1nnc(-c2ccncc2)s1

>  <smiles>  (138) 
[H]c1nc(-c2nnc(-c3c([H])c([H])nc([H])c3[H])s2)n(C([H])([H])[H])n1

$$$$
39:0:1
     RDKit          3D

 25 27  0  0  1  0  0  0  0  0999 V2000
    3.5667   -9.6371    1.9563 C   0  0  0  0  0  0  0  0  0  0  0  0
    2.2197   -9.1733    2.2450 N   0  0  0  0  0  0  0  0  0  0  0  0
    1.3624  -10.0046    2.8796 N   0  0  0  0  0  0  0  0  0  0  0  0
    0.2576   -9.2773    2.9653 C   0  0  0  0  0  0  0  0  0  0  0  0
    0.3383   -8.0146    2.4481 N   0  0  0  0  0  0  0  0  0  0  0  0
    1.5992   -8.0006    1.9972 C   0  0  0  0  0  0  0  0  0  0  0  0
    2.1785   -6.8350    1.3142 C   0  0  0  0  0  0  0  0  0  0  0  0
    1.4423   -5.8939    0.7069 N   0  0  0  0  0  0  0  0  0  0  0  0
    2.2148   -4.8941    0.1241 N   0  0  0  0  0  0  0  0  0  0  0  0
    3.5253   -5.0780    0.3080 C   0  0  0  0  0  0  0  0  0  0  0  0
    4.5786   -4.1880   -0.1828 C   0  0  0  0  0  0  0  0  0  0  0  0
    4.2879   -3.1638   -1.1100 C   0  0  0  0  0  0  0  0  0  0  0  0
    5.3279   -2.3252   -1.5473 C   0  0  0  0  0  0  0  0  0  0  0  0
    6.6030   -2.4390   -1.1224 N   0  0  0  0  0  0  0  0  0  0  0  0
    6.8844   -3.4219   -0.2417 C   0  0  0  0  0  0  0  0  0  0  0  0
    5.9188   -4.3140    0.2582 C   0  0  0  0  0  0  0  0  0  0  0  0
    3.9178   -6.5395    1.2158 S   0  0  0  0  0  0  0  0  0  0  0  0
    4.3001   -9.0194    2.4743 H   0  0  0  0  0  0  0  0  0  0  0  0
    3.7571   -9.6046    0.8829 H   0  0  0  0  0  0  0  0  0  0  0  0
    3.7033  -10.6607    2.3002 H   0  0  0  0  0  0  0  0  0  0  0  0
   -0.6271   -9.6765    3.4364 H   0  0  0  0  0  0  0  0  0  0  0  0
    3.2829   -3.0187   -1.4820 H   0  0  0  0  0  0  0  0  0  0  0  0
    5.1383   -1.5367   -2.2611 H   0  0  0  0  0  0  0  0  0  0  0  0
    7.9104   -3.4997    0.0808 H   0  0  0  0  0  0  0  0  0  0  0  0
    6.2166   -5.0665    0.9683 H   0  0  0  0  0  0  0  0  0  0  0  0
  1  2  1  0
  1 18  1  0
  1 19  1  0
  1 20  1  0
  2  6  1  0
  2  3  1  0
  3  4  2  0
  4  5  1  0
  4 21  1  0
  5  6  2  0
  6  7  1  0
  7 17  1  0
  7  8  2  0
  8  9  1  0
  9 10  2  0
 10 11  1  0
 10 17  1  0
 11 16  1  0
 11 12  2  0
 12 13  1  0
 12 22  1  0
 13 14  2  0
 13 23  1  0
 14 15  1  0
 15 16  2  0
 15 24  1  0
 16 25  1  0
M  END
>  <i_m_ct_stereo_status>  (139) 
1

>  <s_m_source_file>  (139) 
/var/tmp/pbs.5076255.sched01/tmpon41x2vr/43t03z2zi4.sdf

>  <i_m_source_file_index>  (139) 
20

>  <i_lp_mmshare_version>  (139) 
48012

>  <i_f3d_flags>  (139) 
0

>  <s_epik_input>  (139) 
W0NIM11uMW5bY0hdbmMxLWMybm5jKHMyKS1jM1tjSF1bY0hdbltjSF1bY0hdMw==

>  <s_epik_cmdline>  (139) 
J2VwaWtfcHl0aG9uJywgJy1waHQnLCAnMi4wJywgJy1waCcsICc3LjAnLCAnLXRuJywgJzgnLCAnLW1hJywgJzIwMCcsICctaW1hZScsICc8aW5maWxlLm1hZT4nLCAnLW9tYWUnLCAnPG91dGZpbGUubWFlPic=

>  <r_lp_tautomer_probability>  (139) 
1

>  <r_epik_Ionization_Penalty>  (139) 
0.000130102

>  <r_epik_Ionization_Penalty_Charging>  (139) 
0

>  <r_epik_Ionization_Penalty_Neutral>  (139) 
0.000130102

>  <r_epik_State_Penalty>  (139) 
-0

>  <r_epik_Charging_Adjusted_Penalty>  (139) 
0

>  <i_epik_Tot_Q>  (139) 
0

>  <i_epik_Tot_abs_Q>  (139) 
0

>  <s_lp_Force_Field>  (139) 
OPLS3e

>  <r_lp_Energy>  (139) 
20.3039

>  <b_lp_Chiralities_Consistent>  (139) 
1

>  <s_lp_Variant>  (139) 
39:0-1

>  <s_i_glide_gridfile>  (139) 
pfpi4k_grid

>  <i_i_glide_lignum>  (139) 
20

>  <i_i_glide_rotatable_bonds>  (139) 
2

>  <r_i_docking_score>  (139) 
-3.59982

>  <r_i_glide_ligand_efficiency>  (139) 
-0.211754

>  <r_i_glide_ligand_efficiency_sa>  (139) 
-0.54448

>  <r_i_glide_ligand_efficiency_ln>  (139) 
-0.939113

>  <r_i_glide_gscore>  (139) 
-3.59982

>  <r_i_glide_lipo>  (139) 
-0.303593

>  <r_i_glide_hbond>  (139) 
-0.0791793

>  <r_i_glide_metal>  (139) 
-0

>  <r_i_glide_rewards>  (139) 
-1.79803

>  <r_i_glide_evdw>  (139) 
-23.7488

>  <r_i_glide_ecoul>  (139) 
-3.93601

>  <r_i_glide_erotb>  (139) 
0.582648

>  <r_i_glide_esite>  (139) 
-0.223823

>  <r_i_glide_emodel>  (139) 
-31.4847

>  <r_i_glide_energy>  (139) 
-27.6848

>  <r_i_glide_einternal>  (139) 
6.40798

>  <r_i_glide_intrahb_reward>  (139) 
-0

>  <i_i_glide_confnum>  (139) 
6

>  <i_i_glide_posenum>  (139) 
9

>  <r_i_glide_eff_state_penalty>  (139) 
0

>  <ligand_id>  (139) 
39

>  <original_smiles>  (139) 
Cn1ncnc1-c1nnc(-c2ccncc2)s1

>  <smiles>  (139) 
[H]c1nc(-c2nnc(-c3c([H])c([H])nc([H])c3[H])s2)n(C([H])([H])[H])n1

$$$$
39:0:2
     RDKit          3D

 25 27  0  0  1  0  0  0  0  0999 V2000
    2.8769   -2.9039   -1.3344 C   0  0  0  0  0  0  0  0  0  0  0  0
    4.1537   -3.3998   -0.8499 N   0  0  0  0  0  0  0  0  0  0  0  0
    5.2898   -2.7384   -1.1766 N   0  0  0  0  0  0  0  0  0  0  0  0
    6.2268   -3.4602   -0.5766 C   0  0  0  0  0  0  0  0  0  0  0  0
    5.7839   -4.5558    0.1036 N   0  0  0  0  0  0  0  0  0  0  0  0
    4.4636   -4.4657   -0.0820 C   0  0  0  0  0  0  0  0  0  0  0  0
    3.5119   -5.4307    0.4859 C   0  0  0  0  0  0  0  0  0  0  0  0
    2.1794   -5.3002    0.4661 N   0  0  0  0  0  0  0  0  0  0  0  0
    1.5166   -6.3521    1.0834 N   0  0  0  0  0  0  0  0  0  0  0  0
    2.3585   -7.2903    1.5413 C   0  0  0  0  0  0  0  0  0  0  0  0
    1.9337   -8.5227    2.2157 C   0  0  0  0  0  0  0  0  0  0  0  0
    2.8231   -9.5953    2.4541 C   0  0  0  0  0  0  0  0  0  0  0  0
    2.3401  -10.7478    3.1049 C   0  0  0  0  0  0  0  0  0  0  0  0
    1.0632  -10.8847    3.5140 N   0  0  0  0  0  0  0  0  0  0  0  0
    0.2154   -9.8642    3.2882 C   0  0  0  0  0  0  0  0  0  0  0  0
    0.5961   -8.6706    2.6489 C   0  0  0  0  0  0  0  0  0  0  0  0
    4.0636   -6.9261    1.2481 S   0  0  0  0  0  0  0  0  0  0  0  0
    2.2340   -2.6565   -0.4902 H   0  0  0  0  0  0  0  0  0  0  0  0
    2.3873   -3.6617   -1.9468 H   0  0  0  0  0  0  0  0  0  0  0  0
    3.0129   -2.0045   -1.9344 H   0  0  0  0  0  0  0  0  0  0  0  0
    7.2703   -3.1912   -0.6408 H   0  0  0  0  0  0  0  0  0  0  0  0
    3.8548   -9.5687    2.1389 H   0  0  0  0  0  0  0  0  0  0  0  0
    2.9931  -11.5852    3.2999 H   0  0  0  0  0  0  0  0  0  0  0  0
   -0.7981   -9.9989    3.6313 H   0  0  0  0  0  0  0  0  0  0  0  0
   -0.1390   -7.8973    2.4919 H   0  0  0  0  0  0  0  0  0  0  0  0
  1  2  1  0
  1 18  1  0
  1 19  1  0
  1 20  1  0
  2  6  1  0
  2  3  1  0
  3  4  2  0
  4  5  1  0
  4 21  1  0
  5  6  2  0
  6  7  1  0
  7 17  1  0
  7  8  2  0
  8  9  1  0
  9 10  2  0
 10 11  1  0
 10 17  1  0
 11 16  1  0
 11 12  2  0
 12 13  1  0
 12 22  1  0
 13 14  2  0
 13 23  1  0
 14 15  1  0
 15 16  2  0
 15 24  1  0
 16 25  1  0
M  END
>  <i_m_ct_stereo_status>  (140) 
1

>  <s_m_source_file>  (140) 
/var/tmp/pbs.5076255.sched01/tmpon41x2vr/43t03z2zi4.sdf

>  <i_m_source_file_index>  (140) 
20

>  <i_lp_mmshare_version>  (140) 
48012

>  <i_f3d_flags>  (140) 
0

>  <s_epik_input>  (140) 
W0NIM11uMW5bY0hdbmMxLWMybm5jKHMyKS1jM1tjSF1bY0hdbltjSF1bY0hdMw==

>  <s_epik_cmdline>  (140) 
J2VwaWtfcHl0aG9uJywgJy1waHQnLCAnMi4wJywgJy1waCcsICc3LjAnLCAnLXRuJywgJzgnLCAnLW1hJywgJzIwMCcsICctaW1hZScsICc8aW5maWxlLm1hZT4nLCAnLW9tYWUnLCAnPG91dGZpbGUubWFlPic=

>  <r_lp_tautomer_probability>  (140) 
1

>  <r_epik_Ionization_Penalty>  (140) 
0.000130102

>  <r_epik_Ionization_Penalty_Charging>  (140) 
0

>  <r_epik_Ionization_Penalty_Neutral>  (140) 
0.000130102

>  <r_epik_State_Penalty>  (140) 
-0

>  <r_epik_Charging_Adjusted_Penalty>  (140) 
0

>  <i_epik_Tot_Q>  (140) 
0

>  <i_epik_Tot_abs_Q>  (140) 
0

>  <s_lp_Force_Field>  (140) 
OPLS3e

>  <r_lp_Energy>  (140) 
20.3039

>  <b_lp_Chiralities_Consistent>  (140) 
1

>  <s_lp_Variant>  (140) 
39:0-1

>  <s_i_glide_gridfile>  (140) 
pfpi4k_grid

>  <i_i_glide_lignum>  (140) 
20

>  <i_i_glide_rotatable_bonds>  (140) 
2

>  <r_i_docking_score>  (140) 
-3.19384

>  <r_i_glide_ligand_efficiency>  (140) 
-0.187873

>  <r_i_glide_ligand_efficiency_sa>  (140) 
-0.483075

>  <r_i_glide_ligand_efficiency_ln>  (140) 
-0.833202

>  <r_i_glide_gscore>  (140) 
-3.19384

>  <r_i_glide_lipo>  (140) 
-0.113769

>  <r_i_glide_hbond>  (140) 
0

>  <r_i_glide_metal>  (140) 
-0

>  <r_i_glide_rewards>  (140) 
-1.88958

>  <r_i_glide_evdw>  (140) 
-24.1915

>  <r_i_glide_ecoul>  (140) 
-2.92186

>  <r_i_glide_erotb>  (140) 
0.582648

>  <r_i_glide_esite>  (140) 
-0.125285

>  <r_i_glide_emodel>  (140) 
-33.1247

>  <r_i_glide_energy>  (140) 
-27.1134

>  <r_i_glide_einternal>  (140) 
0.436559

>  <r_i_glide_intrahb_reward>  (140) 
-0

>  <i_i_glide_confnum>  (140) 
3

>  <i_i_glide_posenum>  (140) 
20

>  <r_i_glide_eff_state_penalty>  (140) 
0

>  <ligand_id>  (140) 
39

>  <original_smiles>  (140) 
Cn1ncnc1-c1nnc(-c2ccncc2)s1

>  <smiles>  (140) 
[H]c1nc(-c2nnc(-c3c([H])c([H])nc([H])c3[H])s2)n(C([H])([H])[H])n1

$$$$
40:0:0
     RDKit          3D

 24 26  0  0  1  0  0  0  0  0999 V2000
   -9.3285   -5.3483   -7.5097 C   0  0  0  0  0  0  0  0  0  0  0  0
   -8.1860   -5.5527   -6.5340 C   0  0  0  0  0  0  0  0  0  0  0  0
   -7.9462   -4.5462   -5.6605 N   0  0  0  0  0  0  0  0  0  0  0  0
   -6.9610   -4.5990   -4.7386 C   0  0  0  0  0  0  0  0  0  0  0  0
   -6.1420   -5.7382   -4.6611 C   0  0  0  0  0  0  0  0  0  0  0  0
   -6.3384   -6.8212   -5.5448 C   0  0  0  0  0  0  0  0  0  0  0  0
   -7.3864   -6.7241   -6.5067 C   0  0  0  0  0  0  0  0  0  0  0  0
   -7.3950   -7.9063   -7.2610 N   0  0  0  0  0  0  0  0  0  0  0  0
   -6.3766   -8.7388   -6.7994 C   0  0  0  0  0  0  0  0  0  0  0  0
   -6.0749   -9.9792   -7.2903 N   0  0  0  0  0  0  0  0  0  0  0  0
   -5.0465  -10.6131   -6.6750 C   0  0  0  0  0  0  0  0  0  0  0  0
   -4.3012  -10.0725   -5.6105 C   0  0  0  0  0  0  0  0  0  0  0  0
   -4.6330   -8.7915   -5.1376 C   0  0  0  0  0  0  0  0  0  0  0  0
   -5.7012   -8.0908   -5.7345 C   0  0  0  0  0  0  0  0  0  0  0  0
   -8.0318   -8.1338   -8.0100 H   0  0  0  0  0  0  0  0  0  0  0  0
   -9.4670   -6.1992   -8.1790 H   0  0  0  0  0  0  0  0  0  0  0  0
   -9.1388   -4.4606   -8.1176 H   0  0  0  0  0  0  0  0  0  0  0  0
  -10.2602   -5.1904   -6.9608 H   0  0  0  0  0  0  0  0  0  0  0  0
   -6.8527   -3.7416   -4.0882 H   0  0  0  0  0  0  0  0  0  0  0  0
   -5.3630   -5.8052   -3.9226 H   0  0  0  0  0  0  0  0  0  0  0  0
   -4.8019  -11.5932   -7.0581 H   0  0  0  0  0  0  0  0  0  0  0  0
   -3.4843  -10.6237   -5.1602 H   0  0  0  0  0  0  0  0  0  0  0  0
   -4.0815   -8.3452   -4.3244 H   0  0  0  0  0  0  0  0  0  0  0  0
   -8.5353   -3.7149   -5.6976 H   0  0  0  0  0  0  0  0  0  0  0  0
  1  2  1  0
  1 16  1  0
  1 17  1  0
  1 18  1  0
  2  7  2  0
  2  3  1  0
  3  4  2  0
  3 24  1  0
  4  5  1  0
  4 19  1  0
  5  6  2  0
  5 20  1  0
  6 14  1  0
  6  7  1  0
  7  8  1  0
  8 15  1  0
  8  9  1  0
  9 14  2  0
  9 10  1  0
 10 11  2  0
 11 12  1  0
 11 21  1  0
 12 13  2  0
 12 22  1  0
 13 14  1  0
 13 23  1  0
M  CHG  1   3   1
M  END
>  <i_m_ct_stereo_status>  (141) 
1

>  <s_m_source_file>  (141) 
/var/tmp/pbs.5076255.sched01/tmpon41x2vr/43t03z2zi4.sdf

>  <i_m_source_file_index>  (141) 
21

>  <i_lp_mmshare_version>  (141) 
48012

>  <i_f3d_flags>  (141) 
0

>  <s_epik_input>  (141) 
W2NIXTFbY0hdbmMoW0NIM10pYyhjMTIpW25IXWMzYzJbY0hdW2NIXVtjSF1uMw==

>  <s_epik_cmdline>  (141) 
J2VwaWtfcHl0aG9uJywgJy1waHQnLCAnMi4wJywgJy1waCcsICc3LjAnLCAnLXRuJywgJzgnLCAnLW1hJywgJzIwMCcsICctaW1hZScsICc8aW5maWxlLm1hZT4nLCAnLW9tYWUnLCAnPG91dGZpbGUubWFlPic=

>  <r_epik_Ionization_Penalty>  (141) 
0.210561

>  <r_epik_Ionization_Penalty_Charging>  (141) 
0.210393

>  <r_epik_Ionization_Penalty_Neutral>  (141) 
0.000167699

>  <r_epik_State_Penalty>  (141) 
0.200467

>  <r_epik_Charging_Adjusted_Penalty>  (141) 
0.41086

>  <i_epik_Tot_Q>  (141) 
1

>  <i_epik_Tot_abs_Q>  (141) 
1

>  <s_lp_Force_Field>  (141) 
OPLS3e

>  <r_lp_Energy>  (141) 
26.7196

>  <b_lp_Chiralities_Consistent>  (141) 
1

>  <s_lp_Variant>  (141) 
40:0-1

>  <s_i_glide_gridfile>  (141) 
pfpi4k_grid

>  <i_i_glide_lignum>  (141) 
21

>  <i_i_glide_rotatable_bonds>  (141) 
0

>  <r_i_docking_score>  (141) 
-6.32038

>  <r_i_glide_ligand_efficiency>  (141) 
-0.451456

>  <r_i_glide_ligand_efficiency_sa>  (141) 
-1.08807

>  <r_i_glide_ligand_efficiency_ln>  (141) 
-1.73682

>  <r_i_glide_gscore>  (141) 
-6.32038

>  <r_i_glide_lipo>  (141) 
-2.32755

>  <r_i_glide_hbond>  (141) 
0

>  <r_i_glide_metal>  (141) 
-0

>  <r_i_glide_rewards>  (141) 
-2.62559

>  <r_i_glide_evdw>  (141) 
-24.1168

>  <r_i_glide_ecoul>  (141) 
-1.07599

>  <r_i_glide_erotb>  (141) 
0

>  <r_i_glide_esite>  (141) 
0

>  <r_i_glide_emodel>  (141) 
-36.5484

>  <r_i_glide_energy>  (141) 
-25.1928

>  <r_i_glide_einternal>  (141) 
0

>  <r_i_glide_intrahb_reward>  (141) 
-0

>  <i_i_glide_confnum>  (141) 
1

>  <i_i_glide_posenum>  (141) 
3

>  <r_i_glide_eff_state_penalty>  (141) 
0

>  <ligand_id>  (141) 
40

>  <original_smiles>  (141) 
Cc1nccc2c1[nH]c1ncccc12

>  <smiles>  (141) 
[H]c1nc2c(c([H])c1[H])c1c([H])c([H])[n+]([H])c(C([H])([H])[H])c1n2[H]

$$$$
40:0:1
     RDKit          3D

 24 26  0  0  1  0  0  0  0  0999 V2000
    5.0072   -5.9819    0.0336 C   0  0  0  0  0  0  0  0  0  0  0  0
    5.1293   -4.4719    0.0977 C   0  0  0  0  0  0  0  0  0  0  0  0
    5.6275   -3.9570    1.2431 N   0  0  0  0  0  0  0  0  0  0  0  0
    5.7865   -2.6284    1.4350 C   0  0  0  0  0  0  0  0  0  0  0  0
    5.4187   -1.7268    0.4121 C   0  0  0  0  0  0  0  0  0  0  0  0
    4.8974   -2.2098   -0.8096 C   0  0  0  0  0  0  0  0  0  0  0  0
    4.7574   -3.6170   -0.9686 C   0  0  0  0  0  0  0  0  0  0  0  0
    4.2350   -3.8556   -2.2424 N   0  0  0  0  0  0  0  0  0  0  0  0
    4.0340   -2.6434   -2.8945 C   0  0  0  0  0  0  0  0  0  0  0  0
    3.5333   -2.4766   -4.1565 N   0  0  0  0  0  0  0  0  0  0  0  0
    3.4138   -1.1873   -4.5516 C   0  0  0  0  0  0  0  0  0  0  0  0
    3.8003   -0.0680   -3.8099 C   0  0  0  0  0  0  0  0  0  0  0  0
    4.3043   -0.2975   -2.5301 C   0  0  0  0  0  0  0  0  0  0  0  0
    4.4399   -1.6018   -2.0289 C   0  0  0  0  0  0  0  0  0  0  0  0
    3.9527   -4.7585   -2.6169 H   0  0  0  0  0  0  0  0  0  0  0  0
    4.6114   -6.3512   -0.9148 H   0  0  0  0  0  0  0  0  0  0  0  0
    4.3649   -6.3481    0.8355 H   0  0  0  0  0  0  0  0  0  0  0  0
    5.9906   -6.4243    0.1865 H   0  0  0  0  0  0  0  0  0  0  0  0
    6.1927   -2.3158    2.3900 H   0  0  0  0  0  0  0  0  0  0  0  0
    5.5259   -0.6586    0.5475 H   0  0  0  0  0  0  0  0  0  0  0  0
    3.0180   -1.0070   -5.5280 H   0  0  0  0  0  0  0  0  0  0  0  0
    3.6840    0.9426   -4.1870 H   0  0  0  0  0  0  0  0  0  0  0  0
    4.6035    0.5310   -1.9320 H   0  0  0  0  0  0  0  0  0  0  0  0
    5.8948   -4.6032    1.9895 H   0  0  0  0  0  0  0  0  0  0  0  0
  1  2  1  0
  1 16  1  0
  1 17  1  0
  1 18  1  0
  2  7  2  0
  2  3  1  0
  3  4  2  0
  3 24  1  0
  4  5  1  0
  4 19  1  0
  5  6  2  0
  5 20  1  0
  6 14  1  0
  6  7  1  0
  7  8  1  0
  8 15  1  0
  8  9  1  0
  9 14  2  0
  9 10  1  0
 10 11  2  0
 11 12  1  0
 11 21  1  0
 12 13  2  0
 12 22  1  0
 13 14  1  0
 13 23  1  0
M  CHG  1   3   1
M  END
>  <i_m_ct_stereo_status>  (142) 
1

>  <s_m_source_file>  (142) 
/var/tmp/pbs.5076255.sched01/tmpon41x2vr/43t03z2zi4.sdf

>  <i_m_source_file_index>  (142) 
21

>  <i_lp_mmshare_version>  (142) 
48012

>  <i_f3d_flags>  (142) 
0

>  <s_epik_input>  (142) 
W2NIXTFbY0hdbmMoW0NIM10pYyhjMTIpW25IXWMzYzJbY0hdW2NIXVtjSF1uMw==

>  <s_epik_cmdline>  (142) 
J2VwaWtfcHl0aG9uJywgJy1waHQnLCAnMi4wJywgJy1waCcsICc3LjAnLCAnLXRuJywgJzgnLCAnLW1hJywgJzIwMCcsICctaW1hZScsICc8aW5maWxlLm1hZT4nLCAnLW9tYWUnLCAnPG91dGZpbGUubWFlPic=

>  <r_epik_Ionization_Penalty>  (142) 
0.210561

>  <r_epik_Ionization_Penalty_Charging>  (142) 
0.210393

>  <r_epik_Ionization_Penalty_Neutral>  (142) 
0.000167699

>  <r_epik_State_Penalty>  (142) 
0.200467

>  <r_epik_Charging_Adjusted_Penalty>  (142) 
0.41086

>  <i_epik_Tot_Q>  (142) 
1

>  <i_epik_Tot_abs_Q>  (142) 
1

>  <s_lp_Force_Field>  (142) 
OPLS3e

>  <r_lp_Energy>  (142) 
26.7196

>  <b_lp_Chiralities_Consistent>  (142) 
1

>  <s_lp_Variant>  (142) 
40:0-1

>  <s_i_glide_gridfile>  (142) 
pfpi4k_grid

>  <i_i_glide_lignum>  (142) 
21

>  <i_i_glide_rotatable_bonds>  (142) 
0

>  <r_i_docking_score>  (142) 
-5.23998

>  <r_i_glide_ligand_efficiency>  (142) 
-0.374284

>  <r_i_glide_ligand_efficiency_sa>  (142) 
-0.902079

>  <r_i_glide_ligand_efficiency_ln>  (142) 
-1.43993

>  <r_i_glide_gscore>  (142) 
-5.23998

>  <r_i_glide_lipo>  (142) 
-0.564083

>  <r_i_glide_hbond>  (142) 
-0.56941

>  <r_i_glide_metal>  (142) 
-0

>  <r_i_glide_rewards>  (142) 
-2.26347

>  <r_i_glide_evdw>  (142) 
-11.3576

>  <r_i_glide_ecoul>  (142) 
-8.2199

>  <r_i_glide_erotb>  (142) 
0

>  <r_i_glide_esite>  (142) 
-0.0421545

>  <r_i_glide_emodel>  (142) 
-28.9012

>  <r_i_glide_energy>  (142) 
-19.5775

>  <r_i_glide_einternal>  (142) 
0

>  <r_i_glide_intrahb_reward>  (142) 
-0

>  <i_i_glide_confnum>  (142) 
1

>  <i_i_glide_posenum>  (142) 
7

>  <r_i_glide_eff_state_penalty>  (142) 
0

>  <ligand_id>  (142) 
40

>  <original_smiles>  (142) 
Cc1nccc2c1[nH]c1ncccc12

>  <smiles>  (142) 
[H]c1nc2c(c([H])c1[H])c1c([H])c([H])[n+]([H])c(C([H])([H])[H])c1n2[H]

$$$$
40:0:2
     RDKit          3D

 24 26  0  0  1  0  0  0  0  0999 V2000
   -2.4231    3.0181    2.7746 C   0  0  0  0  0  0  0  0  0  0  0  0
   -1.3938    3.5101    3.7761 C   0  0  0  0  0  0  0  0  0  0  0  0
   -0.2741    4.0694    3.2798 N   0  0  0  0  0  0  0  0  0  0  0  0
    0.7472    4.5457    4.0131 C   0  0  0  0  0  0  0  0  0  0  0  0
    0.6418    4.4838    5.4162 C   0  0  0  0  0  0  0  0  0  0  0  0
   -0.5168    3.9261    6.0141 C   0  0  0  0  0  0  0  0  0  0  0  0
   -1.5545    3.4307    5.1711 C   0  0  0  0  0  0  0  0  0  0  0  0
   -2.5874    2.9443    5.9697 N   0  0  0  0  0  0  0  0  0  0  0  0
   -2.2229    3.1029    7.3068 C   0  0  0  0  0  0  0  0  0  0  0  0
   -2.9625    2.7339    8.3894 N   0  0  0  0  0  0  0  0  0  0  0  0
   -2.4018    3.0012    9.5956 C   0  0  0  0  0  0  0  0  0  0  0  0
   -1.1374    3.6110    9.7704 C   0  0  0  0  0  0  0  0  0  0  0  0
   -0.3999    3.9703    8.6357 C   0  0  0  0  0  0  0  0  0  0  0  0
   -0.9415    3.7179    7.3573 C   0  0  0  0  0  0  0  0  0  0  0  0
   -3.4516    2.5306    5.6498 H   0  0  0  0  0  0  0  0  0  0  0  0
   -3.3126    2.5883    3.2399 H   0  0  0  0  0  0  0  0  0  0  0  0
   -1.9882    2.2566    2.1237 H   0  0  0  0  0  0  0  0  0  0  0  0
   -2.7470    3.8341    2.1276 H   0  0  0  0  0  0  0  0  0  0  0  0
    1.5887    4.9581    3.4570 H   0  0  0  0  0  0  0  0  0  0  0  0
    1.4432    4.8689    6.0324 H   0  0  0  0  0  0  0  0  0  0  0  0
   -2.9875    2.7140   10.4559 H   0  0  0  0  0  0  0  0  0  0  0  0
   -0.7445    3.7930   10.7606 H   0  0  0  0  0  0  0  0  0  0  0  0
    0.5705    4.4355    8.7204 H   0  0  0  0  0  0  0  0  0  0  0  0
   -0.1817    4.1557    2.2457 H   0  0  0  0  0  0  0  0  0  0  0  0
  1  2  1  0
  1 16  1  0
  1 17  1  0
  1 18  1  0
  2  7  2  0
  2  3  1  0
  3  4  2  0
  3 24  1  0
  4  5  1  0
  4 19  1  0
  5  6  2  0
  5 20  1  0
  6 14  1  0
  6  7  1  0
  7  8  1  0
  8 15  1  0
  8  9  1  0
  9 14  2  0
  9 10  1  0
 10 11  2  0
 11 12  1  0
 11 21  1  0
 12 13  2  0
 12 22  1  0
 13 14  1  0
 13 23  1  0
M  CHG  1   3   1
M  END
>  <i_m_ct_stereo_status>  (143) 
1

>  <s_m_source_file>  (143) 
/var/tmp/pbs.5076255.sched01/tmpon41x2vr/43t03z2zi4.sdf

>  <i_m_source_file_index>  (143) 
21

>  <i_lp_mmshare_version>  (143) 
48012

>  <i_f3d_flags>  (143) 
0

>  <s_epik_input>  (143) 
W2NIXTFbY0hdbmMoW0NIM10pYyhjMTIpW25IXWMzYzJbY0hdW2NIXVtjSF1uMw==

>  <s_epik_cmdline>  (143) 
J2VwaWtfcHl0aG9uJywgJy1waHQnLCAnMi4wJywgJy1waCcsICc3LjAnLCAnLXRuJywgJzgnLCAnLW1hJywgJzIwMCcsICctaW1hZScsICc8aW5maWxlLm1hZT4nLCAnLW9tYWUnLCAnPG91dGZpbGUubWFlPic=

>  <r_epik_Ionization_Penalty>  (143) 
0.210561

>  <r_epik_Ionization_Penalty_Charging>  (143) 
0.210393

>  <r_epik_Ionization_Penalty_Neutral>  (143) 
0.000167699

>  <r_epik_State_Penalty>  (143) 
0.200467

>  <r_epik_Charging_Adjusted_Penalty>  (143) 
0.41086

>  <i_epik_Tot_Q>  (143) 
1

>  <i_epik_Tot_abs_Q>  (143) 
1

>  <s_lp_Force_Field>  (143) 
OPLS3e

>  <r_lp_Energy>  (143) 
26.7196

>  <b_lp_Chiralities_Consistent>  (143) 
1

>  <s_lp_Variant>  (143) 
40:0-1

>  <s_i_glide_gridfile>  (143) 
pfpi4k_grid

>  <i_i_glide_lignum>  (143) 
21

>  <i_i_glide_rotatable_bonds>  (143) 
0

>  <r_i_docking_score>  (143) 
-4.42968

>  <r_i_glide_ligand_efficiency>  (143) 
-0.316405

>  <r_i_glide_ligand_efficiency_sa>  (143) 
-0.762582

>  <r_i_glide_ligand_efficiency_ln>  (143) 
-1.21726

>  <r_i_glide_gscore>  (143) 
-4.42968

>  <r_i_glide_lipo>  (143) 
-0.00244953

>  <r_i_glide_hbond>  (143) 
-0.194012

>  <r_i_glide_metal>  (143) 
-0

>  <r_i_glide_rewards>  (143) 
-2.27538

>  <r_i_glide_evdw>  (143) 
-14.484

>  <r_i_glide_ecoul>  (143) 
-7.55757

>  <r_i_glide_erotb>  (143) 
0

>  <r_i_glide_esite>  (143) 
-0.1

>  <r_i_glide_emodel>  (143) 
-29.906

>  <r_i_glide_energy>  (143) 
-22.0416

>  <r_i_glide_einternal>  (143) 
0

>  <r_i_glide_intrahb_reward>  (143) 
-0

>  <i_i_glide_confnum>  (143) 
1

>  <i_i_glide_posenum>  (143) 
14

>  <r_i_glide_eff_state_penalty>  (143) 
0

>  <ligand_id>  (143) 
40

>  <original_smiles>  (143) 
Cc1nccc2c1[nH]c1ncccc12

>  <smiles>  (143) 
[H]c1nc2c(c([H])c1[H])c1c([H])c([H])[n+]([H])c(C([H])([H])[H])c1n2[H]

$$$$
40:1:0
     RDKit          3D

 23 25  0  0  1  0  0  0  0  0999 V2000
   -3.9136  -11.1773   -5.7682 C   0  0  0  0  0  0  0  0  0  0  0  0
   -5.1712  -10.4666   -6.2171 C   0  0  0  0  0  0  0  0  0  0  0  0
   -6.0561  -11.2289   -6.8999 N   0  0  0  0  0  0  0  0  0  0  0  0
   -7.2064  -10.6712   -7.3228 C   0  0  0  0  0  0  0  0  0  0  0  0
   -7.5208   -9.3212   -7.0878 C   0  0  0  0  0  0  0  0  0  0  0  0
   -6.6163   -8.5078   -6.3770 C   0  0  0  0  0  0  0  0  0  0  0  0
   -5.4038   -9.1011   -5.9278 C   0  0  0  0  0  0  0  0  0  0  0  0
   -4.6612   -8.1306   -5.2483 N   0  0  0  0  0  0  0  0  0  0  0  0
   -5.3873   -6.9323   -5.2656 C   0  0  0  0  0  0  0  0  0  0  0  0
   -4.9883   -5.7454   -4.7223 N   0  0  0  0  0  0  0  0  0  0  0  0
   -5.8541   -4.7084   -4.8530 C   0  0  0  0  0  0  0  0  0  0  0  0
   -7.0932   -4.7900   -5.5173 C   0  0  0  0  0  0  0  0  0  0  0  0
   -7.4688   -6.0253   -6.0778 C   0  0  0  0  0  0  0  0  0  0  0  0
   -6.6048   -7.1364   -5.9633 C   0  0  0  0  0  0  0  0  0  0  0  0
   -3.7631   -8.2606   -4.8106 H   0  0  0  0  0  0  0  0  0  0  0  0
   -3.2315  -10.5329   -5.2130 H   0  0  0  0  0  0  0  0  0  0  0  0
   -3.3870  -11.5843   -6.6345 H   0  0  0  0  0  0  0  0  0  0  0  0
   -4.1985  -12.0083   -5.1229 H   0  0  0  0  0  0  0  0  0  0  0  0
   -7.9017  -11.3018   -7.8659 H   0  0  0  0  0  0  0  0  0  0  0  0
   -8.4511   -8.8968   -7.4410 H   0  0  0  0  0  0  0  0  0  0  0  0
   -5.5374   -3.7751   -4.4175 H   0  0  0  0  0  0  0  0  0  0  0  0
   -7.7439   -3.9259   -5.5967 H   0  0  0  0  0  0  0  0  0  0  0  0
   -8.4073   -6.1295   -6.6007 H   0  0  0  0  0  0  0  0  0  0  0  0
  1  2  1  0
  1 16  1  0
  1 17  1  0
  1 18  1  0
  2  7  2  0
  2  3  1  0
  3  4  2  0
  4  5  1  0
  4 19  1  0
  5  6  2  0
  5 20  1  0
  6 14  1  0
  6  7  1  0
  7  8  1  0
  8 15  1  0
  8  9  1  0
  9 14  2  0
  9 10  1  0
 10 11  2  0
 11 12  1  0
 11 21  1  0
 12 13  2  0
 12 22  1  0
 13 14  1  0
 13 23  1  0
M  END
>  <i_m_ct_stereo_status>  (144) 
1

>  <s_m_source_file>  (144) 
/var/tmp/pbs.5076255.sched01/tmpon41x2vr/43t03z2zi4.sdf

>  <i_m_source_file_index>  (144) 
22

>  <i_lp_mmshare_version>  (144) 
48012

>  <i_f3d_flags>  (144) 
0

>  <s_epik_input>  (144) 
W2NIXTFbY0hdbmMoW0NIM10pYyhjMTIpW25IXWMzYzJbY0hdW2NIXVtjSF1uMw==

>  <s_epik_cmdline>  (144) 
J2VwaWtfcHl0aG9uJywgJy1waHQnLCAnMi4wJywgJy1waCcsICc3LjAnLCAnLXRuJywgJzgnLCAnLW1hJywgJzIwMCcsICctaW1hZScsICc8aW5maWxlLm1hZT4nLCAnLW9tYWUnLCAnPG91dGZpbGUubWFlPic=

>  <r_epik_Ionization_Penalty>  (144) 
0.716279

>  <r_epik_Ionization_Penalty_Charging>  (144) 
0

>  <r_epik_Ionization_Penalty_Neutral>  (144) 
0.716279

>  <r_epik_State_Penalty>  (144) 
0.739473

>  <r_epik_Charging_Adjusted_Penalty>  (144) 
0.739473

>  <i_epik_Tot_Q>  (144) 
0

>  <i_epik_Tot_abs_Q>  (144) 
0

>  <s_lp_Force_Field>  (144) 
OPLS3e

>  <r_lp_Energy>  (144) 
21.5119

>  <b_lp_Chiralities_Consistent>  (144) 
1

>  <s_lp_Variant>  (144) 
40:0-2

>  <s_i_glide_gridfile>  (144) 
pfpi4k_grid

>  <i_i_glide_lignum>  (144) 
22

>  <i_i_glide_rotatable_bonds>  (144) 
0

>  <r_i_docking_score>  (144) 
-8.33958

>  <r_i_glide_ligand_efficiency>  (144) 
-0.595684

>  <r_i_glide_ligand_efficiency_sa>  (144) 
-1.43568

>  <r_i_glide_ligand_efficiency_ln>  (144) 
-2.29169

>  <r_i_glide_gscore>  (144) 
-8.33958

>  <r_i_glide_lipo>  (144) 
-2.00508

>  <r_i_glide_hbond>  (144) 
-0.327688

>  <r_i_glide_metal>  (144) 
-0

>  <r_i_glide_rewards>  (144) 
-3.82859

>  <r_i_glide_evdw>  (144) 
-25.0755

>  <r_i_glide_ecoul>  (144) 
-6.16291

>  <r_i_glide_erotb>  (144) 
0

>  <r_i_glide_esite>  (144) 
0

>  <r_i_glide_emodel>  (144) 
-46.8835

>  <r_i_glide_energy>  (144) 
-31.2384

>  <r_i_glide_einternal>  (144) 
0

>  <r_i_glide_intrahb_reward>  (144) 
-0

>  <i_i_glide_confnum>  (144) 
1

>  <i_i_glide_posenum>  (144) 
1

>  <r_i_glide_eff_state_penalty>  (144) 
0

>  <ligand_id>  (144) 
40

>  <original_smiles>  (144) 
Cc1nccc2c1[nH]c1ncccc12

>  <smiles>  (144) 
[H]c1nc2c(c([H])c1[H])c1c([H])c([H])nc(C([H])([H])[H])c1n2[H]

$$$$
40:1:1
     RDKit          3D

 23 25  0  0  1  0  0  0  0  0999 V2000
   -6.7882   -4.4212   -3.9795 C   0  0  0  0  0  0  0  0  0  0  0  0
   -7.5961   -4.7497   -5.2165 C   0  0  0  0  0  0  0  0  0  0  0  0
   -8.5205   -3.8307   -5.5664 N   0  0  0  0  0  0  0  0  0  0  0  0
   -9.2665   -4.0298   -6.6706 C   0  0  0  0  0  0  0  0  0  0  0  0
   -9.1373   -5.1720   -7.4733 C   0  0  0  0  0  0  0  0  0  0  0  0
   -8.1943   -6.1559   -7.1223 C   0  0  0  0  0  0  0  0  0  0  0  0
   -7.3995   -5.9369   -5.9604 C   0  0  0  0  0  0  0  0  0  0  0  0
   -6.5441   -7.0373   -5.7995 N   0  0  0  0  0  0  0  0  0  0  0  0
   -6.7845   -7.9438   -6.8285 C   0  0  0  0  0  0  0  0  0  0  0  0
   -6.1463   -9.1402   -7.0056 N   0  0  0  0  0  0  0  0  0  0  0  0
   -6.5588   -9.8619   -8.0738 C   0  0  0  0  0  0  0  0  0  0  0  0
   -7.5606   -9.4553   -8.9745 C   0  0  0  0  0  0  0  0  0  0  0  0
   -8.1916   -8.2207   -8.7633 C   0  0  0  0  0  0  0  0  0  0  0  0
   -7.8059   -7.4268   -7.6646 C   0  0  0  0  0  0  0  0  0  0  0  0
   -5.8730   -7.1680   -5.0557 H   0  0  0  0  0  0  0  0  0  0  0  0
   -6.0872   -5.2189   -3.7434 H   0  0  0  0  0  0  0  0  0  0  0  0
   -7.4547   -4.2884   -3.1267 H   0  0  0  0  0  0  0  0  0  0  0  0
   -6.2334   -3.4909   -4.1271 H   0  0  0  0  0  0  0  0  0  0  0  0
   -9.9801   -3.2559   -6.9268 H   0  0  0  0  0  0  0  0  0  0  0  0
   -9.7591   -5.3152   -8.3391 H   0  0  0  0  0  0  0  0  0  0  0  0
   -6.0555  -10.8047   -8.2254 H   0  0  0  0  0  0  0  0  0  0  0  0
   -7.8380  -10.0742   -9.8168 H   0  0  0  0  0  0  0  0  0  0  0  0
   -8.9624   -7.8738   -9.4306 H   0  0  0  0  0  0  0  0  0  0  0  0
  1  2  1  0
  1 16  1  0
  1 17  1  0
  1 18  1  0
  2  7  2  0
  2  3  1  0
  3  4  2  0
  4  5  1  0
  4 19  1  0
  5  6  2  0
  5 20  1  0
  6 14  1  0
  6  7  1  0
  7  8  1  0
  8 15  1  0
  8  9  1  0
  9 14  2  0
  9 10  1  0
 10 11  2  0
 11 12  1  0
 11 21  1  0
 12 13  2  0
 12 22  1  0
 13 14  1  0
 13 23  1  0
M  END
>  <i_m_ct_stereo_status>  (145) 
1

>  <s_m_source_file>  (145) 
/var/tmp/pbs.5076255.sched01/tmpon41x2vr/43t03z2zi4.sdf

>  <i_m_source_file_index>  (145) 
22

>  <i_lp_mmshare_version>  (145) 
48012

>  <i_f3d_flags>  (145) 
0

>  <s_epik_input>  (145) 
W2NIXTFbY0hdbmMoW0NIM10pYyhjMTIpW25IXWMzYzJbY0hdW2NIXVtjSF1uMw==

>  <s_epik_cmdline>  (145) 
J2VwaWtfcHl0aG9uJywgJy1waHQnLCAnMi4wJywgJy1waCcsICc3LjAnLCAnLXRuJywgJzgnLCAnLW1hJywgJzIwMCcsICctaW1hZScsICc8aW5maWxlLm1hZT4nLCAnLW9tYWUnLCAnPG91dGZpbGUubWFlPic=

>  <r_epik_Ionization_Penalty>  (145) 
0.716279

>  <r_epik_Ionization_Penalty_Charging>  (145) 
0

>  <r_epik_Ionization_Penalty_Neutral>  (145) 
0.716279

>  <r_epik_State_Penalty>  (145) 
0.739473

>  <r_epik_Charging_Adjusted_Penalty>  (145) 
0.739473

>  <i_epik_Tot_Q>  (145) 
0

>  <i_epik_Tot_abs_Q>  (145) 
0

>  <s_lp_Force_Field>  (145) 
OPLS3e

>  <r_lp_Energy>  (145) 
21.5119

>  <b_lp_Chiralities_Consistent>  (145) 
1

>  <s_lp_Variant>  (145) 
40:0-2

>  <s_i_glide_gridfile>  (145) 
pfpi4k_grid

>  <i_i_glide_lignum>  (145) 
22

>  <i_i_glide_rotatable_bonds>  (145) 
0

>  <r_i_docking_score>  (145) 
-6.08782

>  <r_i_glide_ligand_efficiency>  (145) 
-0.434844

>  <r_i_glide_ligand_efficiency_sa>  (145) 
-1.04804

>  <r_i_glide_ligand_efficiency_ln>  (145) 
-1.67291

>  <r_i_glide_gscore>  (145) 
-6.08782

>  <r_i_glide_lipo>  (145) 
-2.08572

>  <r_i_glide_hbond>  (145) 
0

>  <r_i_glide_metal>  (145) 
-0

>  <r_i_glide_rewards>  (145) 
-2.82217

>  <r_i_glide_evdw>  (145) 
-24.2232

>  <r_i_glide_ecoul>  (145) 
0.208204

>  <r_i_glide_erotb>  (145) 
0

>  <r_i_glide_esite>  (145) 
0

>  <r_i_glide_emodel>  (145) 
-35.4247

>  <r_i_glide_energy>  (145) 
-24.015

>  <r_i_glide_einternal>  (145) 
0

>  <r_i_glide_intrahb_reward>  (145) 
-0

>  <i_i_glide_confnum>  (145) 
2

>  <i_i_glide_posenum>  (145) 
21

>  <r_i_glide_eff_state_penalty>  (145) 
0

>  <ligand_id>  (145) 
40

>  <original_smiles>  (145) 
Cc1nccc2c1[nH]c1ncccc12

>  <smiles>  (145) 
[H]c1nc2c(c([H])c1[H])c1c([H])c([H])nc(C([H])([H])[H])c1n2[H]

$$$$
40:1:2
     RDKit          3D

 23 25  0  0  1  0  0  0  0  0999 V2000
    3.8079    0.1676   -3.7609 C   0  0  0  0  0  0  0  0  0  0  0  0
    4.1507   -1.2297   -3.2952 C   0  0  0  0  0  0  0  0  0  0  0  0
    4.1403   -2.1740   -4.2615 N   0  0  0  0  0  0  0  0  0  0  0  0
    4.4354   -3.4458   -3.9271 C   0  0  0  0  0  0  0  0  0  0  0  0
    4.7847   -3.8440   -2.6386 C   0  0  0  0  0  0  0  0  0  0  0  0
    4.7896   -2.8836   -1.6116 C   0  0  0  0  0  0  0  0  0  0  0  0
    4.4730   -1.5415   -1.9536 C   0  0  0  0  0  0  0  0  0  0  0  0
    4.5543   -0.7741   -0.7813 N   0  0  0  0  0  0  0  0  0  0  0  0
    4.8939   -1.6103    0.2829 C   0  0  0  0  0  0  0  0  0  0  0  0
    5.0554   -1.2285    1.5815 N   0  0  0  0  0  0  0  0  0  0  0  0
    5.3859   -2.2218    2.4438 C   0  0  0  0  0  0  0  0  0  0  0  0
    5.5707   -3.5705    2.0787 C   0  0  0  0  0  0  0  0  0  0  0  0
    5.3999   -3.9229    0.7282 C   0  0  0  0  0  0  0  0  0  0  0  0
    5.0526   -2.9286   -0.2069 C   0  0  0  0  0  0  0  0  0  0  0  0
    4.3812    0.2199   -0.7046 H   0  0  0  0  0  0  0  0  0  0  0  0
    3.8527    0.8852   -2.9433 H   0  0  0  0  0  0  0  0  0  0  0  0
    2.8022    0.1853   -4.1782 H   0  0  0  0  0  0  0  0  0  0  0  0
    4.4974    0.4887   -4.5421 H   0  0  0  0  0  0  0  0  0  0  0  0
    4.4378   -4.1658   -4.7338 H   0  0  0  0  0  0  0  0  0  0  0  0
    5.0139   -4.8728   -2.4355 H   0  0  0  0  0  0  0  0  0  0  0  0
    5.5166   -1.9236    3.4774 H   0  0  0  0  0  0  0  0  0  0  0  0
    5.8444   -4.3181    2.8101 H   0  0  0  0  0  0  0  0  0  0  0  0
    5.5356   -4.9443    0.4031 H   0  0  0  0  0  0  0  0  0  0  0  0
  1  2  1  0
  1 16  1  0
  1 17  1  0
  1 18  1  0
  2  7  2  0
  2  3  1  0
  3  4  2  0
  4  5  1  0
  4 19  1  0
  5  6  2  0
  5 20  1  0
  6 14  1  0
  6  7  1  0
  7  8  1  0
  8 15  1  0
  8  9  1  0
  9 14  2  0
  9 10  1  0
 10 11  2  0
 11 12  1  0
 11 21  1  0
 12 13  2  0
 12 22  1  0
 13 14  1  0
 13 23  1  0
M  END
>  <i_m_ct_stereo_status>  (146) 
1

>  <s_m_source_file>  (146) 
/var/tmp/pbs.5076255.sched01/tmpon41x2vr/43t03z2zi4.sdf

>  <i_m_source_file_index>  (146) 
22

>  <i_lp_mmshare_version>  (146) 
48012

>  <i_f3d_flags>  (146) 
0

>  <s_epik_input>  (146) 
W2NIXTFbY0hdbmMoW0NIM10pYyhjMTIpW25IXWMzYzJbY0hdW2NIXVtjSF1uMw==

>  <s_epik_cmdline>  (146) 
J2VwaWtfcHl0aG9uJywgJy1waHQnLCAnMi4wJywgJy1waCcsICc3LjAnLCAnLXRuJywgJzgnLCAnLW1hJywgJzIwMCcsICctaW1hZScsICc8aW5maWxlLm1hZT4nLCAnLW9tYWUnLCAnPG91dGZpbGUubWFlPic=

>  <r_epik_Ionization_Penalty>  (146) 
0.716279

>  <r_epik_Ionization_Penalty_Charging>  (146) 
0

>  <r_epik_Ionization_Penalty_Neutral>  (146) 
0.716279

>  <r_epik_State_Penalty>  (146) 
0.739473

>  <r_epik_Charging_Adjusted_Penalty>  (146) 
0.739473

>  <i_epik_Tot_Q>  (146) 
0

>  <i_epik_Tot_abs_Q>  (146) 
0

>  <s_lp_Force_Field>  (146) 
OPLS3e

>  <r_lp_Energy>  (146) 
21.5119

>  <b_lp_Chiralities_Consistent>  (146) 
1

>  <s_lp_Variant>  (146) 
40:0-2

>  <s_i_glide_gridfile>  (146) 
pfpi4k_grid

>  <i_i_glide_lignum>  (146) 
22

>  <i_i_glide_rotatable_bonds>  (146) 
0

>  <r_i_docking_score>  (146) 
-4.5971

>  <r_i_glide_ligand_efficiency>  (146) 
-0.328365

>  <r_i_glide_ligand_efficiency_sa>  (146) 
-0.791405

>  <r_i_glide_ligand_efficiency_ln>  (146) 
-1.26327

>  <r_i_glide_gscore>  (146) 
-4.5971

>  <r_i_glide_lipo>  (146) 
-0.400443

>  <r_i_glide_hbond>  (146) 
-0.469809

>  <r_i_glide_metal>  (146) 
-0

>  <r_i_glide_rewards>  (146) 
-2.18102

>  <r_i_glide_evdw>  (146) 
-18.2532

>  <r_i_glide_ecoul>  (146) 
-3.96548

>  <r_i_glide_erotb>  (146) 
0

>  <r_i_glide_esite>  (146) 
-0.0383507

>  <r_i_glide_emodel>  (146) 
-30.7704

>  <r_i_glide_energy>  (146) 
-22.2186

>  <r_i_glide_einternal>  (146) 
0

>  <r_i_glide_intrahb_reward>  (146) 
-0

>  <i_i_glide_confnum>  (146) 
1

>  <i_i_glide_posenum>  (146) 
10

>  <r_i_glide_eff_state_penalty>  (146) 
0

>  <ligand_id>  (146) 
40

>  <original_smiles>  (146) 
Cc1nccc2c1[nH]c1ncccc12

>  <smiles>  (146) 
[H]c1nc2c(c([H])c1[H])c1c([H])c([H])nc(C([H])([H])[H])c1n2[H]

$$$$
41:0:0
     RDKit          3D

 36 38  0  0  1  0  0  0  0  0999 V2000
    3.7427   -5.3752    3.7939 C   0  0  0  0  0  0  0  0  0  0  0  0
    2.8131   -5.7088    2.7232 N   0  0  0  0  0  0  0  0  0  0  0  0
    2.8317   -5.3118    1.4197 C   0  0  0  0  0  0  0  0  0  0  0  0
    3.9098   -4.3853    0.9014 C   0  0  0  0  0  0  0  0  0  0  0  0
    3.8532   -4.0889   -0.5353 N   0  0  0  0  0  0  0  0  0  0  0  0
    5.1194   -3.5236   -1.0092 C   0  0  0  0  0  0  0  0  0  0  0  0
    5.0817   -3.2991   -2.5358 C   0  0  0  0  0  0  0  0  0  0  0  0
    3.9255   -2.3670   -2.9163 C   0  0  0  0  0  0  0  0  0  0  0  0
    3.8124   -2.2480   -4.3145 O   0  0  0  0  0  0  0  0  0  0  0  0
    2.6245   -2.9285   -2.3431 C   0  0  0  0  0  0  0  0  0  0  0  0
    2.7584   -3.1553   -0.8311 C   0  0  0  0  0  0  0  0  0  0  0  0
    1.8402   -5.8004    0.6579 N   0  0  0  0  0  0  0  0  0  0  0  0
    1.1079   -6.5485    1.5551 C   0  0  0  0  0  0  0  0  0  0  0  0
   -0.0895   -7.2742    1.4078 C   0  0  0  0  0  0  0  0  0  0  0  0
   -0.6221   -7.9361    2.5295 C   0  0  0  0  0  0  0  0  0  0  0  0
    0.0613   -7.8570    3.7618 C   0  0  0  0  0  0  0  0  0  0  0  0
    1.2018   -7.1534    3.9626 N   0  0  0  0  0  0  0  0  0  0  0  0
    1.6893   -6.5246    2.8473 C   0  0  0  0  0  0  0  0  0  0  0  0
    4.6518   -4.9083    3.4189 H   0  0  0  0  0  0  0  0  0  0  0  0
    4.0194   -6.2839    4.3262 H   0  0  0  0  0  0  0  0  0  0  0  0
    3.2620   -4.6981    4.4967 H   0  0  0  0  0  0  0  0  0  0  0  0
    3.8748   -3.4490    1.4657 H   0  0  0  0  0  0  0  0  0  0  0  0
    4.8632   -4.8603    1.1367 H   0  0  0  0  0  0  0  0  0  0  0  0
    5.3256   -2.5855   -0.4898 H   0  0  0  0  0  0  0  0  0  0  0  0
    5.9308   -4.2150   -0.7784 H   0  0  0  0  0  0  0  0  0  0  0  0
    6.0285   -2.8802   -2.8764 H   0  0  0  0  0  0  0  0  0  0  0  0
    4.9678   -4.2588   -3.0431 H   0  0  0  0  0  0  0  0  0  0  0  0
    4.0974   -1.3739   -2.4935 H   0  0  0  0  0  0  0  0  0  0  0  0
    2.9841   -1.8368   -4.5073 H   0  0  0  0  0  0  0  0  0  0  0  0
    1.8098   -2.2377   -2.5305 H   0  0  0  0  0  0  0  0  0  0  0  0
    2.3465   -3.8574   -2.8399 H   0  0  0  0  0  0  0  0  0  0  0  0
    1.8111   -3.5435   -0.4702 H   0  0  0  0  0  0  0  0  0  0  0  0
    2.9209   -2.2065   -0.3146 H   0  0  0  0  0  0  0  0  0  0  0  0
   -0.5730   -7.3380    0.4457 H   0  0  0  0  0  0  0  0  0  0  0  0
   -1.5152   -8.5328    2.4338 H   0  0  0  0  0  0  0  0  0  0  0  0
   -0.3218   -8.3923    4.6202 H   0  0  0  0  0  0  0  0  0  0  0  0
  1  2  1  0
  1 19  1  0
  1 20  1  0
  1 21  1  0
  2 18  1  0
  2  3  1  0
  3  4  1  0
  3 12  2  0
  4  5  1  0
  4 22  1  0
  4 23  1  0
  5 11  1  0
  5  6  1  0
  6  7  1  0
  6 24  1  0
  6 25  1  0
  7  8  1  0
  7 26  1  0
  7 27  1  0
  8  9  1  0
  8 10  1  0
  8 28  1  0
  9 29  1  0
 10 11  1  0
 10 30  1  0
 10 31  1  0
 11 32  1  0
 11 33  1  0
 12 13  1  0
 13 18  2  0
 13 14  1  0
 14 15  2  0
 14 34  1  0
 15 16  1  0
 15 35  1  0
 16 17  2  0
 16 36  1  0
 17 18  1  0
M  END
>  <i_m_ct_stereo_status>  (147) 
1

>  <s_m_source_file>  (147) 
/var/tmp/pbs.5076255.sched01/tmpon41x2vr/43t03z2zi4.sdf

>  <i_m_source_file_index>  (147) 
23

>  <i_lp_mmshare_version>  (147) 
48012

>  <i_f3d_flags>  (147) 
0

>  <s_epik_input>  (147) 
W2NIXTFbY0hdW2NIXW5jKGMxMiluKFtDSDNdKWMobjIpW0NIMl1OM1tDSDJdW0NIMl1bQ0hdKFtPSF0pW0NIMl1bQ0gyXTM=

>  <s_epik_cmdline>  (147) 
J2VwaWtfcHl0aG9uJywgJy1waHQnLCAnMi4wJywgJy1waCcsICc3LjAnLCAnLXRuJywgJzgnLCAnLW1hJywgJzIwMCcsICctaW1hZScsICc8aW5maWxlLm1hZT4nLCAnLW9tYWUnLCAnPG91dGZpbGUubWFlPic=

>  <r_lp_tautomer_probability>  (147) 
1

>  <r_epik_Ionization_Penalty>  (147) 
0.399894

>  <r_epik_Ionization_Penalty_Charging>  (147) 
0.0616689

>  <r_epik_Ionization_Penalty_Neutral>  (147) 
0.338225

>  <r_epik_State_Penalty>  (147) 
0.364782

>  <r_epik_Charging_Adjusted_Penalty>  (147) 
0.426451

>  <i_epik_Tot_Q>  (147) 
0

>  <i_epik_Tot_abs_Q>  (147) 
0

>  <s_lp_Force_Field>  (147) 
OPLS3e

>  <r_lp_Energy>  (147) 
18.93

>  <b_lp_Chiralities_Consistent>  (147) 
1

>  <s_lp_Variant>  (147) 
41:0-1

>  <s_i_glide_gridfile>  (147) 
pfpi4k_grid

>  <i_i_glide_lignum>  (147) 
23

>  <i_i_glide_rotatable_bonds>  (147) 
3

>  <r_i_docking_score>  (147) 
-3.70948

>  <r_i_glide_ligand_efficiency>  (147) 
-0.206082

>  <r_i_glide_ligand_efficiency_sa>  (147) 
-0.540089

>  <r_i_glide_ligand_efficiency_ln>  (147) 
-0.953504

>  <r_i_glide_gscore>  (147) 
-3.70948

>  <r_i_glide_lipo>  (147) 
-0.370365

>  <r_i_glide_hbond>  (147) 
-0.386845

>  <r_i_glide_metal>  (147) 
-0

>  <r_i_glide_rewards>  (147) 
-1.72972

>  <r_i_glide_evdw>  (147) 
-21.6764

>  <r_i_glide_ecoul>  (147) 
-4.5399

>  <r_i_glide_erotb>  (147) 
0.574453

>  <r_i_glide_esite>  (147) 
-0.0322047

>  <r_i_glide_emodel>  (147) 
-31.9697

>  <r_i_glide_energy>  (147) 
-26.2163

>  <r_i_glide_einternal>  (147) 
1.80164

>  <r_i_glide_intrahb_reward>  (147) 
-0

>  <i_i_glide_confnum>  (147) 
4

>  <i_i_glide_posenum>  (147) 
25

>  <r_i_glide_eff_state_penalty>  (147) 
0

>  <ligand_id>  (147) 
41

>  <original_smiles>  (147) 
Cn1c(CN2CCC(O)CC2)nc2cccnc21

>  <smiles>  (147) 
[H]OC1([H])C([H])([H])C([H])([H])N(C([H])([H])c2nc3c([H])c([H])c([H])nc3n2C([H])([H])[H])C([H])([H])C1([H])[H]

$$$$
41:0:1
     RDKit          3D

 36 38  0  0  1  0  0  0  0  0999 V2000
    3.9407   -7.9695    1.6827 C   0  0  0  0  0  0  0  0  0  0  0  0
    2.5635   -7.4940    1.6218 N   0  0  0  0  0  0  0  0  0  0  0  0
    2.0581   -6.4197    0.9561 C   0  0  0  0  0  0  0  0  0  0  0  0
    2.9319   -5.4891    0.1502 C   0  0  0  0  0  0  0  0  0  0  0  0
    3.5500   -4.4049    0.9183 N   0  0  0  0  0  0  0  0  0  0  0  0
    4.5813   -3.7585    0.1000 C   0  0  0  0  0  0  0  0  0  0  0  0
    5.2868   -2.6431    0.8961 C   0  0  0  0  0  0  0  0  0  0  0  0
    4.2905   -1.5844    1.3920 C   0  0  0  0  0  0  0  0  0  0  0  0
    3.7974   -0.8209    0.3051 O   0  0  0  0  0  0  0  0  0  0  0  0
    3.1400   -2.2778    2.1297 C   0  0  0  0  0  0  0  0  0  0  0  0
    2.5381   -3.4108    1.2855 C   0  0  0  0  0  0  0  0  0  0  0  0
    0.7280   -6.2610    1.0438 N   0  0  0  0  0  0  0  0  0  0  0  0
    0.3597   -7.2882    1.8883 C   0  0  0  0  0  0  0  0  0  0  0  0
   -0.8823   -7.6515    2.4490 C   0  0  0  0  0  0  0  0  0  0  0  0
   -0.9438   -8.7794    3.2866 C   0  0  0  0  0  0  0  0  0  0  0  0
    0.2318   -9.5176    3.5449 C   0  0  0  0  0  0  0  0  0  0  0  0
    1.4535   -9.1917    3.0556 N   0  0  0  0  0  0  0  0  0  0  0  0
    1.4721   -8.0897    2.2505 C   0  0  0  0  0  0  0  0  0  0  0  0
    4.5814   -7.4878    0.9428 H   0  0  0  0  0  0  0  0  0  0  0  0
    3.9578   -9.0417    1.4864 H   0  0  0  0  0  0  0  0  0  0  0  0
    4.3569   -7.7815    2.6738 H   0  0  0  0  0  0  0  0  0  0  0  0
    3.7086   -6.0815   -0.3294 H   0  0  0  0  0  0  0  0  0  0  0  0
    2.3274   -5.0829   -0.6600 H   0  0  0  0  0  0  0  0  0  0  0  0
    5.3211   -4.5001   -0.2067 H   0  0  0  0  0  0  0  0  0  0  0  0
    4.1445   -3.3504   -0.8141 H   0  0  0  0  0  0  0  0  0  0  0  0
    5.7965   -3.0897    1.7516 H   0  0  0  0  0  0  0  0  0  0  0  0
    6.0641   -2.1773    0.2915 H   0  0  0  0  0  0  0  0  0  0  0  0
    4.7974   -0.8954    2.0675 H   0  0  0  0  0  0  0  0  0  0  0  0
    2.8930   -1.0558    0.1316 H   0  0  0  0  0  0  0  0  0  0  0  0
    3.5072   -2.7026    3.0656 H   0  0  0  0  0  0  0  0  0  0  0  0
    2.3679   -1.5576    2.4020 H   0  0  0  0  0  0  0  0  0  0  0  0
    2.0775   -2.9998    0.3834 H   0  0  0  0  0  0  0  0  0  0  0  0
    1.7553   -3.8873    1.8722 H   0  0  0  0  0  0  0  0  0  0  0  0
   -1.7753   -7.0804    2.2428 H   0  0  0  0  0  0  0  0  0  0  0  0
   -1.8798   -9.1052    3.7280 H   0  0  0  0  0  0  0  0  0  0  0  0
    0.1862  -10.3933    4.1768 H   0  0  0  0  0  0  0  0  0  0  0  0
  1  2  1  0
  1 19  1  0
  1 20  1  0
  1 21  1  0
  2 18  1  0
  2  3  1  0
  3  4  1  0
  3 12  2  0
  4  5  1  0
  4 22  1  0
  4 23  1  0
  5 11  1  0
  5  6  1  0
  6  7  1  0
  6 24  1  0
  6 25  1  0
  7  8  1  0
  7 26  1  0
  7 27  1  0
  8  9  1  0
  8 10  1  0
  8 28  1  0
  9 29  1  0
 10 11  1  0
 10 30  1  0
 10 31  1  0
 11 32  1  0
 11 33  1  0
 12 13  1  0
 13 18  2  0
 13 14  1  0
 14 15  2  0
 14 34  1  0
 15 16  1  0
 15 35  1  0
 16 17  2  0
 16 36  1  0
 17 18  1  0
M  END
>  <i_m_ct_stereo_status>  (148) 
1

>  <s_m_source_file>  (148) 
/var/tmp/pbs.5076255.sched01/tmpon41x2vr/43t03z2zi4.sdf

>  <i_m_source_file_index>  (148) 
23

>  <i_lp_mmshare_version>  (148) 
48012

>  <i_f3d_flags>  (148) 
0

>  <s_epik_input>  (148) 
W2NIXTFbY0hdW2NIXW5jKGMxMiluKFtDSDNdKWMobjIpW0NIMl1OM1tDSDJdW0NIMl1bQ0hdKFtPSF0pW0NIMl1bQ0gyXTM=

>  <s_epik_cmdline>  (148) 
J2VwaWtfcHl0aG9uJywgJy1waHQnLCAnMi4wJywgJy1waCcsICc3LjAnLCAnLXRuJywgJzgnLCAnLW1hJywgJzIwMCcsICctaW1hZScsICc8aW5maWxlLm1hZT4nLCAnLW9tYWUnLCAnPG91dGZpbGUubWFlPic=

>  <r_lp_tautomer_probability>  (148) 
1

>  <r_epik_Ionization_Penalty>  (148) 
0.399894

>  <r_epik_Ionization_Penalty_Charging>  (148) 
0.0616689

>  <r_epik_Ionization_Penalty_Neutral>  (148) 
0.338225

>  <r_epik_State_Penalty>  (148) 
0.364782

>  <r_epik_Charging_Adjusted_Penalty>  (148) 
0.426451

>  <i_epik_Tot_Q>  (148) 
0

>  <i_epik_Tot_abs_Q>  (148) 
0

>  <s_lp_Force_Field>  (148) 
OPLS3e

>  <r_lp_Energy>  (148) 
18.93

>  <b_lp_Chiralities_Consistent>  (148) 
1

>  <s_lp_Variant>  (148) 
41:0-1

>  <s_i_glide_gridfile>  (148) 
pfpi4k_grid

>  <i_i_glide_lignum>  (148) 
23

>  <i_i_glide_rotatable_bonds>  (148) 
3

>  <r_i_docking_score>  (148) 
-3.42256

>  <r_i_glide_ligand_efficiency>  (148) 
-0.190142

>  <r_i_glide_ligand_efficiency_sa>  (148) 
-0.498314

>  <r_i_glide_ligand_efficiency_ln>  (148) 
-0.879752

>  <r_i_glide_gscore>  (148) 
-3.42256

>  <r_i_glide_lipo>  (148) 
-0.0718649

>  <r_i_glide_hbond>  (148) 
-0.188632

>  <r_i_glide_metal>  (148) 
-0

>  <r_i_glide_rewards>  (148) 
-1.72972

>  <r_i_glide_evdw>  (148) 
-19.7282

>  <r_i_glide_ecoul>  (148) 
-6.40946

>  <r_i_glide_erotb>  (148) 
0.574453

>  <r_i_glide_esite>  (148) 
-0.0589723

>  <r_i_glide_emodel>  (148) 
-31.1556

>  <r_i_glide_energy>  (148) 
-26.1376

>  <r_i_glide_einternal>  (148) 
1.85631

>  <r_i_glide_intrahb_reward>  (148) 
-0

>  <i_i_glide_confnum>  (148) 
2

>  <i_i_glide_posenum>  (148) 
17

>  <r_i_glide_eff_state_penalty>  (148) 
0

>  <ligand_id>  (148) 
41

>  <original_smiles>  (148) 
Cn1c(CN2CCC(O)CC2)nc2cccnc21

>  <smiles>  (148) 
[H]OC1([H])C([H])([H])C([H])([H])N(C([H])([H])c2nc3c([H])c([H])c([H])nc3n2C([H])([H])[H])C([H])([H])C1([H])[H]

$$$$
41:0:2
     RDKit          3D

 36 38  0  0  1  0  0  0  0  0999 V2000
    3.8996   -7.6308    1.4655 C   0  0  0  0  0  0  0  0  0  0  0  0
    2.4826   -7.3002    1.4771 N   0  0  0  0  0  0  0  0  0  0  0  0
    1.8346   -6.2694    0.8849 C   0  0  0  0  0  0  0  0  0  0  0  0
    2.5300   -5.2078    0.0722 C   0  0  0  0  0  0  0  0  0  0  0  0
    2.8465   -3.9861    0.8122 N   0  0  0  0  0  0  0  0  0  0  0  0
    4.0013   -4.2156    1.6875 C   0  0  0  0  0  0  0  0  0  0  0  0
    4.3466   -2.9584    2.5045 C   0  0  0  0  0  0  0  0  0  0  0  0
    4.6208   -1.7496    1.5986 C   0  0  0  0  0  0  0  0  0  0  0  0
    5.8389   -1.9280    0.9028 O   0  0  0  0  0  0  0  0  0  0  0  0
    3.4635   -1.5873    0.6032 C   0  0  0  0  0  0  0  0  0  0  0  0
    3.1607   -2.9078   -0.1369 C   0  0  0  0  0  0  0  0  0  0  0  0
    0.5026   -6.2571    1.0286 N   0  0  0  0  0  0  0  0  0  0  0  0
    0.2776   -7.3496    1.8528 C   0  0  0  0  0  0  0  0  0  0  0  0
   -0.8947   -7.8689    2.4445 C   0  0  0  0  0  0  0  0  0  0  0  0
   -0.7926   -9.0255    3.2402 C   0  0  0  0  0  0  0  0  0  0  0  0
    0.4703   -9.6361    3.4195 C   0  0  0  0  0  0  0  0  0  0  0  0
    1.6270   -9.1627    2.8930 N   0  0  0  0  0  0  0  0  0  0  0  0
    1.4897   -8.0376    2.1223 C   0  0  0  0  0  0  0  0  0  0  0  0
    4.4501   -7.0633    0.7229 H   0  0  0  0  0  0  0  0  0  0  0  0
    4.0200   -8.6865    1.2324 H   0  0  0  0  0  0  0  0  0  0  0  0
    4.3262   -7.4273    2.4443 H   0  0  0  0  0  0  0  0  0  0  0  0
    3.4290   -5.5922   -0.4023 H   0  0  0  0  0  0  0  0  0  0  0  0
    1.8532   -4.9762   -0.7453 H   0  0  0  0  0  0  0  0  0  0  0  0
    3.7892   -5.0283    2.3800 H   0  0  0  0  0  0  0  0  0  0  0  0
    4.8629   -4.5193    1.0912 H   0  0  0  0  0  0  0  0  0  0  0  0
    3.5075   -2.7348    3.1634 H   0  0  0  0  0  0  0  0  0  0  0  0
    5.2025   -3.1546    3.1523 H   0  0  0  0  0  0  0  0  0  0  0  0
    4.7165   -0.8482    2.2056 H   0  0  0  0  0  0  0  0  0  0  0  0
    5.7674   -2.7237    0.3932 H   0  0  0  0  0  0  0  0  0  0  0  0
    2.5658   -1.2734    1.1369 H   0  0  0  0  0  0  0  0  0  0  0  0
    3.6784   -0.7896   -0.1102 H   0  0  0  0  0  0  0  0  0  0  0  0
    4.0068   -3.1893   -0.7667 H   0  0  0  0  0  0  0  0  0  0  0  0
    2.3141   -2.7448   -0.8069 H   0  0  0  0  0  0  0  0  0  0  0  0
   -1.8531   -7.4022    2.3011 H   0  0  0  0  0  0  0  0  0  0  0  0
   -1.6719   -9.4528    3.6961 H   0  0  0  0  0  0  0  0  0  0  0  0
    0.5525  -10.5371    4.0188 H   0  0  0  0  0  0  0  0  0  0  0  0
  1  2  1  0
  1 19  1  0
  1 20  1  0
  1 21  1  0
  2 18  1  0
  2  3  1  0
  3  4  1  0
  3 12  2  0
  4  5  1  0
  4 22  1  0
  4 23  1  0
  5 11  1  0
  5  6  1  0
  6  7  1  0
  6 24  1  0
  6 25  1  0
  7  8  1  0
  7 26  1  0
  7 27  1  0
  8  9  1  0
  8 10  1  0
  8 28  1  0
  9 29  1  0
 10 11  1  0
 10 30  1  0
 10 31  1  0
 11 32  1  0
 11 33  1  0
 12 13  1  0
 13 18  2  0
 13 14  1  0
 14 15  2  0
 14 34  1  0
 15 16  1  0
 15 35  1  0
 16 17  2  0
 16 36  1  0
 17 18  1  0
M  END
>  <i_m_ct_stereo_status>  (149) 
1

>  <s_m_source_file>  (149) 
/var/tmp/pbs.5076255.sched01/tmpon41x2vr/43t03z2zi4.sdf

>  <i_m_source_file_index>  (149) 
23

>  <i_lp_mmshare_version>  (149) 
48012

>  <i_f3d_flags>  (149) 
0

>  <s_epik_input>  (149) 
W2NIXTFbY0hdW2NIXW5jKGMxMiluKFtDSDNdKWMobjIpW0NIMl1OM1tDSDJdW0NIMl1bQ0hdKFtPSF0pW0NIMl1bQ0gyXTM=

>  <s_epik_cmdline>  (149) 
J2VwaWtfcHl0aG9uJywgJy1waHQnLCAnMi4wJywgJy1waCcsICc3LjAnLCAnLXRuJywgJzgnLCAnLW1hJywgJzIwMCcsICctaW1hZScsICc8aW5maWxlLm1hZT4nLCAnLW9tYWUnLCAnPG91dGZpbGUubWFlPic=

>  <r_lp_tautomer_probability>  (149) 
1

>  <r_epik_Ionization_Penalty>  (149) 
0.399894

>  <r_epik_Ionization_Penalty_Charging>  (149) 
0.0616689

>  <r_epik_Ionization_Penalty_Neutral>  (149) 
0.338225

>  <r_epik_State_Penalty>  (149) 
0.364782

>  <r_epik_Charging_Adjusted_Penalty>  (149) 
0.426451

>  <i_epik_Tot_Q>  (149) 
0

>  <i_epik_Tot_abs_Q>  (149) 
0

>  <s_lp_Force_Field>  (149) 
OPLS3e

>  <r_lp_Energy>  (149) 
18.93

>  <b_lp_Chiralities_Consistent>  (149) 
1

>  <s_lp_Variant>  (149) 
41:0-1

>  <s_i_glide_gridfile>  (149) 
pfpi4k_grid

>  <i_i_glide_lignum>  (149) 
23

>  <i_i_glide_rotatable_bonds>  (149) 
3

>  <r_i_docking_score>  (149) 
-3.33919

>  <r_i_glide_ligand_efficiency>  (149) 
-0.185511

>  <r_i_glide_ligand_efficiency_sa>  (149) 
-0.486175

>  <r_i_glide_ligand_efficiency_ln>  (149) 
-0.858321

>  <r_i_glide_gscore>  (149) 
-3.33919

>  <r_i_glide_lipo>  (149) 
-0.0955367

>  <r_i_glide_hbond>  (149) 
-0.16

>  <r_i_glide_metal>  (149) 
-0

>  <r_i_glide_rewards>  (149) 
-1.72972

>  <r_i_glide_evdw>  (149) 
-19.6395

>  <r_i_glide_ecoul>  (149) 
-5.77543

>  <r_i_glide_erotb>  (149) 
0.574453

>  <r_i_glide_esite>  (149) 
-0.0800992

>  <r_i_glide_emodel>  (149) 
-31.0028

>  <r_i_glide_energy>  (149) 
-25.4149

>  <r_i_glide_einternal>  (149) 
0.962037

>  <r_i_glide_intrahb_reward>  (149) 
-0

>  <i_i_glide_confnum>  (149) 
2

>  <i_i_glide_posenum>  (149) 
29

>  <r_i_glide_eff_state_penalty>  (149) 
0

>  <ligand_id>  (149) 
41

>  <original_smiles>  (149) 
Cn1c(CN2CCC(O)CC2)nc2cccnc21

>  <smiles>  (149) 
[H]OC1([H])C([H])([H])C([H])([H])N(C([H])([H])c2nc3c([H])c([H])c([H])nc3n2C([H])([H])[H])C([H])([H])C1([H])[H]

$$$$
41:1:0
     RDKit          3D

 37 39  0  0  1  0  0  0  0  0999 V2000
    4.8908   -7.5121    0.8766 C   0  0  0  0  0  0  0  0  0  0  0  0
    3.5874   -6.9736    1.2753 N   0  0  0  0  0  0  0  0  0  0  0  0
    3.1490   -5.6852    1.2743 C   0  0  0  0  0  0  0  0  0  0  0  0
    4.0429   -4.5242    0.9328 C   0  0  0  0  0  0  0  0  0  0  0  0
    3.8246   -4.2363   -0.5195 N   0  0  2  0  0  0  0  0  0  0  0  0
    5.0608   -3.7309   -1.1682 C   0  0  0  0  0  0  0  0  0  0  0  0
    4.8794   -3.4754   -2.6812 C   0  0  0  0  0  0  0  0  0  0  0  0
    3.7131   -2.5182   -2.9233 C   0  0  1  0  0  0  0  0  0  0  0  0
    3.4968   -2.4199   -4.3181 O   0  0  0  0  0  0  0  0  0  0  0  0
    2.4417   -3.0459   -2.2592 C   0  0  0  0  0  0  0  0  0  0  0  0
    2.6933   -3.2971   -0.7586 C   0  0  0  0  0  0  0  0  0  0  0  0
    1.8877   -5.4951    1.6771 N   0  0  0  0  0  0  0  0  0  0  0  0
    1.5010   -6.7910    2.0284 C   0  0  0  0  0  0  0  0  0  0  0  0
    0.3064   -7.3162    2.5800 C   0  0  0  0  0  0  0  0  0  0  0  0
    0.2011   -8.7110    2.7998 C   0  0  0  0  0  0  0  0  0  0  0  0
    1.3048   -9.5330    2.4799 C   0  0  0  0  0  0  0  0  0  0  0  0
    2.4764   -9.0730    1.9847 N   0  0  0  0  0  0  0  0  0  0  0  0
    2.5312   -7.7253    1.7760 C   0  0  0  0  0  0  0  0  0  0  0  0
    5.5754   -6.7541    0.5101 H   0  0  0  0  0  0  0  0  0  0  0  0
    4.7377   -8.2416    0.0806 H   0  0  0  0  0  0  0  0  0  0  0  0
    5.3461   -8.0150    1.7248 H   0  0  0  0  0  0  0  0  0  0  0  0
    3.7863   -3.6812    1.5795 H   0  0  0  0  0  0  0  0  0  0  0  0
    5.0811   -4.7709    1.2034 H   0  0  0  0  0  0  0  0  0  0  0  0
    5.3441   -2.7985   -0.6840 H   0  0  0  0  0  0  0  0  0  0  0  0
    5.8827   -4.4337   -1.0274 H   0  0  0  0  0  0  0  0  0  0  0  0
    5.8120   -3.0720   -3.0994 H   0  0  0  0  0  0  0  0  0  0  0  0
    4.7120   -4.4282   -3.1822 H   0  0  0  0  0  0  0  0  0  0  0  0
    3.9483   -1.5250   -2.5346 H   0  0  0  0  0  0  0  0  0  0  0  0
    2.6607   -1.9958   -4.4709 H   0  0  0  0  0  0  0  0  0  0  0  0
    1.6364   -2.3207   -2.3768 H   0  0  0  0  0  0  0  0  0  0  0  0
    2.0857   -3.9526   -2.7420 H   0  0  0  0  0  0  0  0  0  0  0  0
    1.7840   -3.6821   -0.3036 H   0  0  0  0  0  0  0  0  0  0  0  0
    2.8935   -2.3390   -0.2778 H   0  0  0  0  0  0  0  0  0  0  0  0
   -0.5251   -6.6737    2.8258 H   0  0  0  0  0  0  0  0  0  0  0  0
   -0.7063   -9.1522    3.1880 H   0  0  0  0  0  0  0  0  0  0  0  0
    1.2292  -10.6101    2.6322 H   0  0  0  0  0  0  0  0  0  0  0  0
    3.5841   -5.1031   -0.9857 H   0  0  0  0  0  0  0  0  0  0  0  0
  1  2  1  0
  1 19  1  0
  1 20  1  0
  1 21  1  0
  2 18  1  0
  2  3  1  0
  3  4  1  0
  3 12  2  0
  4  5  1  0
  4 22  1  0
  4 23  1  0
  5 11  1  0
  5  6  1  0
  5 37  1  6
  6  7  1  0
  6 24  1  0
  6 25  1  0
  7  8  1  0
  7 26  1  0
  7 27  1  0
  8  9  1  0
  8 10  1  0
  8 28  1  1
  9 29  1  0
 10 11  1  0
 10 30  1  0
 10 31  1  0
 11 32  1  0
 11 33  1  0
 12 13  1  0
 13 18  2  0
 13 14  1  0
 14 15  2  0
 14 34  1  0
 15 16  1  0
 15 35  1  0
 16 17  2  0
 16 36  1  0
 17 18  1  0
M  CHG  1   5   1
M  END
>  <i_m_ct_stereo_status>  (150) 
1

>  <s_m_source_file>  (150) 
/var/tmp/pbs.5076255.sched01/tmpon41x2vr/43t03z2zi4.sdf

>  <i_m_source_file_index>  (150) 
24

>  <i_lp_mmshare_version>  (150) 
48012

>  <i_f3d_flags>  (150) 
0

>  <s_epik_input>  (150) 
W2NIXTFbY0hdW2NIXW5jKGMxMiluKFtDSDNdKWMobjIpW0NIMl1OM1tDSDJdW0NIMl1bQ0hdKFtPSF0pW0NIMl1bQ0gyXTM=

>  <s_epik_cmdline>  (150) 
J2VwaWtfcHl0aG9uJywgJy1waHQnLCAnMi4wJywgJy1waCcsICc3LjAnLCAnLXRuJywgJzgnLCAnLW1hJywgJzIwMCcsICctaW1hZScsICc8aW5maWxlLm1hZT4nLCAnLW9tYWUnLCAnPG91dGZpbGUubWFlPic=

>  <r_lp_tautomer_probability>  (150) 
1

>  <r_epik_Ionization_Penalty>  (150) 
0.493284

>  <r_epik_Ionization_Penalty_Charging>  (150) 
0.493276

>  <r_epik_Ionization_Penalty_Neutral>  (150) 
7.9632e-06

>  <r_epik_State_Penalty>  (150) 
0.530245

>  <r_epik_Charging_Adjusted_Penalty>  (150) 
1.02352

>  <i_epik_Tot_Q>  (150) 
1

>  <i_epik_Tot_abs_Q>  (150) 
1

>  <s_lp_Force_Field>  (150) 
OPLS3e

>  <r_lp_Energy>  (150) 
24.1461

>  <b_lp_Chiralities_Consistent>  (150) 
1

>  <s_lp_Variant>  (150) 
41:0-2

>  <s_i_glide_gridfile>  (150) 
pfpi4k_grid

>  <i_i_glide_lignum>  (150) 
24

>  <i_i_glide_rotatable_bonds>  (150) 
3

>  <r_i_docking_score>  (150) 
-4.32257

>  <r_i_glide_ligand_efficiency>  (150) 
-0.240143

>  <r_i_glide_ligand_efficiency_sa>  (150) 
-0.629351

>  <r_i_glide_ligand_efficiency_ln>  (150) 
-1.11109

>  <r_i_glide_gscore>  (150) 
-4.32257

>  <r_i_glide_lipo>  (150) 
-0.397055

>  <r_i_glide_hbond>  (150) 
-0.371834

>  <r_i_glide_metal>  (150) 
-0

>  <r_i_glide_rewards>  (150) 
-1.83517

>  <r_i_glide_evdw>  (150) 
-22.2002

>  <r_i_glide_ecoul>  (150) 
-7.61592

>  <r_i_glide_erotb>  (150) 
0.570451

>  <r_i_glide_esite>  (150) 
-0.036561

>  <r_i_glide_emodel>  (150) 
-37.7107

>  <r_i_glide_energy>  (150) 
-29.8161

>  <r_i_glide_einternal>  (150) 
0.936441

>  <r_i_glide_intrahb_reward>  (150) 
-0

>  <i_i_glide_confnum>  (150) 
5

>  <i_i_glide_posenum>  (150) 
10

>  <r_i_glide_eff_state_penalty>  (150) 
0

>  <ligand_id>  (150) 
41

>  <original_smiles>  (150) 
Cn1c(CN2CCC(O)CC2)nc2cccnc21

>  <smiles>  (150) 
[H]OC1([H])C([H])([H])C([H])([H])[N+]([H])(C([H])([H])c2nc3c([H])c([H])c([H])nc3n2C([H])([H])[H])C([H])([H])C1([H])[H]

$$$$
41:1:1
     RDKit          3D

 37 39  0  0  1  0  0  0  0  0999 V2000
    2.5739   -2.5106    3.2044 C   0  0  0  0  0  0  0  0  0  0  0  0
    2.1521   -1.2111    2.7048 N   0  0  0  0  0  0  0  0  0  0  0  0
    2.7459   -0.3977    1.7913 C   0  0  0  0  0  0  0  0  0  0  0  0
    4.0639   -0.7186    1.1190 C   0  0  0  0  0  0  0  0  0  0  0  0
    3.7657   -1.4823   -0.1302 N   0  0  2  0  0  0  0  0  0  0  0  0
    4.0835   -2.9308    0.0198 C   0  0  0  0  0  0  0  0  0  0  0  0
    3.7652   -3.7299   -1.2510 C   0  0  0  0  0  0  0  0  0  0  0  0
    4.4895   -3.1602   -2.4776 C   0  0  1  0  0  0  0  0  0  0  0  0
    4.0787   -3.8425   -3.6390 O   0  0  0  0  0  0  0  0  0  0  0  0
    4.1651   -1.6652   -2.6062 C   0  0  0  0  0  0  0  0  0  0  0  0
    4.4829   -0.9118   -1.3024 C   0  0  0  0  0  0  0  0  0  0  0  0
    2.1296    0.7670    1.5780 N   0  0  0  0  0  0  0  0  0  0  0  0
    1.0361    0.7014    2.4126 C   0  0  0  0  0  0  0  0  0  0  0  0
   -0.0166    1.6049    2.6625 C   0  0  0  0  0  0  0  0  0  0  0  0
   -0.9964    1.2409    3.6026 C   0  0  0  0  0  0  0  0  0  0  0  0
   -0.8930    0.0005    4.2650 C   0  0  0  0  0  0  0  0  0  0  0  0
    0.0981   -0.8980    4.0596 N   0  0  0  0  0  0  0  0  0  0  0  0
    1.0225   -0.5197    3.1301 C   0  0  0  0  0  0  0  0  0  0  0  0
    3.5356   -2.8217    2.7917 H   0  0  0  0  0  0  0  0  0  0  0  0
    1.8139   -3.2526    2.9544 H   0  0  0  0  0  0  0  0  0  0  0  0
    2.6553   -2.4520    4.2940 H   0  0  0  0  0  0  0  0  0  0  0  0
    4.5577    0.2298    0.9037 H   0  0  0  0  0  0  0  0  0  0  0  0
    4.7258   -1.2546    1.8001 H   0  0  0  0  0  0  0  0  0  0  0  0
    5.1543   -3.0355    0.2323 H   0  0  0  0  0  0  0  0  0  0  0  0
    3.5291   -3.3886    0.8351 H   0  0  0  0  0  0  0  0  0  0  0  0
    4.0600   -4.7683   -1.0921 H   0  0  0  0  0  0  0  0  0  0  0  0
    2.6854   -3.7361   -1.4082 H   0  0  0  0  0  0  0  0  0  0  0  0
    5.5636   -3.3093   -2.3586 H   0  0  0  0  0  0  0  0  0  0  0  0
    3.8123   -4.7211   -3.3772 H   0  0  0  0  0  0  0  0  0  0  0  0
    4.7291   -1.2366   -3.4380 H   0  0  0  0  0  0  0  0  0  0  0  0
    3.1101   -1.5304   -2.8555 H   0  0  0  0  0  0  0  0  0  0  0  0
    4.2347    0.1399   -1.4395 H   0  0  0  0  0  0  0  0  0  0  0  0
    5.5573   -0.9619   -1.1154 H   0  0  0  0  0  0  0  0  0  0  0  0
   -0.0713    2.5477    2.1316 H   0  0  0  0  0  0  0  0  0  0  0  0
   -1.8320    1.8916    3.8107 H   0  0  0  0  0  0  0  0  0  0  0  0
   -1.6498   -0.2963    4.9702 H   0  0  0  0  0  0  0  0  0  0  0  0
    2.7749   -1.3838   -0.3150 H   0  0  0  0  0  0  0  0  0  0  0  0
  1  2  1  0
  1 19  1  0
  1 20  1  0
  1 21  1  0
  2 18  1  0
  2  3  1  0
  3  4  1  0
  3 12  2  0
  4  5  1  0
  4 22  1  0
  4 23  1  0
  5 11  1  0
  5  6  1  0
  5 37  1  6
  6  7  1  0
  6 24  1  0
  6 25  1  0
  7  8  1  0
  7 26  1  0
  7 27  1  0
  8  9  1  0
  8 10  1  0
  8 28  1  1
  9 29  1  0
 10 11  1  0
 10 30  1  0
 10 31  1  0
 11 32  1  0
 11 33  1  0
 12 13  1  0
 13 18  2  0
 13 14  1  0
 14 15  2  0
 14 34  1  0
 15 16  1  0
 15 35  1  0
 16 17  2  0
 16 36  1  0
 17 18  1  0
M  CHG  1   5   1
M  END
>  <i_m_ct_stereo_status>  (151) 
1

>  <s_m_source_file>  (151) 
/var/tmp/pbs.5076255.sched01/tmpon41x2vr/43t03z2zi4.sdf

>  <i_m_source_file_index>  (151) 
24

>  <i_lp_mmshare_version>  (151) 
48012

>  <i_f3d_flags>  (151) 
0

>  <s_epik_input>  (151) 
W2NIXTFbY0hdW2NIXW5jKGMxMiluKFtDSDNdKWMobjIpW0NIMl1OM1tDSDJdW0NIMl1bQ0hdKFtPSF0pW0NIMl1bQ0gyXTM=

>  <s_epik_cmdline>  (151) 
J2VwaWtfcHl0aG9uJywgJy1waHQnLCAnMi4wJywgJy1waCcsICc3LjAnLCAnLXRuJywgJzgnLCAnLW1hJywgJzIwMCcsICctaW1hZScsICc8aW5maWxlLm1hZT4nLCAnLW9tYWUnLCAnPG91dGZpbGUubWFlPic=

>  <r_lp_tautomer_probability>  (151) 
1

>  <r_epik_Ionization_Penalty>  (151) 
0.493284

>  <r_epik_Ionization_Penalty_Charging>  (151) 
0.493276

>  <r_epik_Ionization_Penalty_Neutral>  (151) 
7.9632e-06

>  <r_epik_State_Penalty>  (151) 
0.530245

>  <r_epik_Charging_Adjusted_Penalty>  (151) 
1.02352

>  <i_epik_Tot_Q>  (151) 
1

>  <i_epik_Tot_abs_Q>  (151) 
1

>  <s_lp_Force_Field>  (151) 
OPLS3e

>  <r_lp_Energy>  (151) 
24.1461

>  <b_lp_Chiralities_Consistent>  (151) 
1

>  <s_lp_Variant>  (151) 
41:0-2

>  <s_i_glide_gridfile>  (151) 
pfpi4k_grid

>  <i_i_glide_lignum>  (151) 
24

>  <i_i_glide_rotatable_bonds>  (151) 
3

>  <r_i_docking_score>  (151) 
-4.09578

>  <r_i_glide_ligand_efficiency>  (151) 
-0.227543

>  <r_i_glide_ligand_efficiency_sa>  (151) 
-0.596332

>  <r_i_glide_ligand_efficiency_ln>  (151) 
-1.0528

>  <r_i_glide_gscore>  (151) 
-4.09578

>  <r_i_glide_lipo>  (151) 
-0.0664103

>  <r_i_glide_hbond>  (151) 
-0.464599

>  <r_i_glide_metal>  (151) 
-0

>  <r_i_glide_rewards>  (151) 
-1.72284

>  <r_i_glide_evdw>  (151) 
-19.9101

>  <r_i_glide_ecoul>  (151) 
-8.50082

>  <r_i_glide_erotb>  (151) 
0.570451

>  <r_i_glide_esite>  (151) 
-0.14175

>  <r_i_glide_emodel>  (151) 
-34.7418

>  <r_i_glide_energy>  (151) 
-28.4109

>  <r_i_glide_einternal>  (151) 
2.79947

>  <r_i_glide_intrahb_reward>  (151) 
-0

>  <i_i_glide_confnum>  (151) 
5

>  <i_i_glide_posenum>  (151) 
19

>  <r_i_glide_eff_state_penalty>  (151) 
0

>  <ligand_id>  (151) 
41

>  <original_smiles>  (151) 
Cn1c(CN2CCC(O)CC2)nc2cccnc21

>  <smiles>  (151) 
[H]OC1([H])C([H])([H])C([H])([H])[N+]([H])(C([H])([H])c2nc3c([H])c([H])c([H])nc3n2C([H])([H])[H])C([H])([H])C1([H])[H]

$$$$
41:1:2
     RDKit          3D

 37 39  0  0  1  0  0  0  0  0999 V2000
    1.8024    1.4372    2.0077 C   0  0  0  0  0  0  0  0  0  0  0  0
    1.8954    0.0299    2.3660 N   0  0  0  0  0  0  0  0  0  0  0  0
    2.7724   -0.9329    1.9445 C   0  0  0  0  0  0  0  0  0  0  0  0
    3.9136   -0.6616    0.9821 C   0  0  0  0  0  0  0  0  0  0  0  0
    3.6903   -1.4807   -0.2476 N   0  0  2  0  0  0  0  0  0  0  0  0
    4.0531   -2.9217   -0.0894 C   0  0  0  0  0  0  0  0  0  0  0  0
    3.7777   -3.7295   -1.3557 C   0  0  0  0  0  0  0  0  0  0  0  0
    4.5431   -3.1603   -2.5500 C   0  0  1  0  0  0  0  0  0  0  0  0
    4.1813   -3.8568   -3.7148 O   0  0  0  0  0  0  0  0  0  0  0  0
    4.2077   -1.6759   -2.7140 C   0  0  0  0  0  0  0  0  0  0  0  0
    4.4612   -0.9145   -1.3963 C   0  0  0  0  0  0  0  0  0  0  0  0
    2.6338   -2.1243    2.5286 N   0  0  0  0  0  0  0  0  0  0  0  0
    1.5337   -1.9401    3.3514 C   0  0  0  0  0  0  0  0  0  0  0  0
    0.8366   -2.8195    4.2168 C   0  0  0  0  0  0  0  0  0  0  0  0
   -0.2492   -2.3176    4.9674 C   0  0  0  0  0  0  0  0  0  0  0  0
   -0.6049   -0.9560    4.8230 C   0  0  0  0  0  0  0  0  0  0  0  0
    0.0177   -0.0840    3.9954 N   0  0  0  0  0  0  0  0  0  0  0  0
    1.0621   -0.6088    3.2851 C   0  0  0  0  0  0  0  0  0  0  0  0
    2.5548    1.7488    1.2946 H   0  0  0  0  0  0  0  0  0  0  0  0
    1.9414    2.0393    2.9014 H   0  0  0  0  0  0  0  0  0  0  0  0
    0.8281    1.6363    1.5680 H   0  0  0  0  0  0  0  0  0  0  0  0
    3.9920    0.3945    0.7197 H   0  0  0  0  0  0  0  0  0  0  0  0
    4.8562   -0.9085    1.4734 H   0  0  0  0  0  0  0  0  0  0  0  0
    5.1086   -2.9912    0.1802 H   0  0  0  0  0  0  0  0  0  0  0  0
    3.5075   -3.4632    0.6815 H   0  0  0  0  0  0  0  0  0  0  0  0
    4.0757   -4.7595   -1.1385 H   0  0  0  0  0  0  0  0  0  0  0  0
    2.7012   -3.7359   -1.5387 H   0  0  0  0  0  0  0  0  0  0  0  0
    5.6143   -3.2859   -2.3753 H   0  0  0  0  0  0  0  0  0  0  0  0
    3.8831   -4.7203   -3.4506 H   0  0  0  0  0  0  0  0  0  0  0  0
    4.8091   -1.2344   -3.5142 H   0  0  0  0  0  0  0  0  0  0  0  0
    3.1636   -1.5402   -3.0001 H   0  0  0  0  0  0  0  0  0  0  0  0
    4.2426    0.1409   -1.5771 H   0  0  0  0  0  0  0  0  0  0  0  0
    5.5245   -0.9493   -1.1549 H   0  0  0  0  0  0  0  0  0  0  0  0
    1.1334   -3.8600    4.2926 H   0  0  0  0  0  0  0  0  0  0  0  0
   -0.7964   -2.9680    5.6315 H   0  0  0  0  0  0  0  0  0  0  0  0
   -1.4387   -0.5510    5.3878 H   0  0  0  0  0  0  0  0  0  0  0  0
    2.7038   -1.4059   -0.4765 H   0  0  0  0  0  0  0  0  0  0  0  0
  1  2  1  0
  1 19  1  0
  1 20  1  0
  1 21  1  0
  2 18  1  0
  2  3  1  0
  3  4  1  0
  3 12  2  0
  4  5  1  0
  4 22  1  0
  4 23  1  0
  5 11  1  0
  5  6  1  0
  5 37  1  6
  6  7  1  0
  6 24  1  0
  6 25  1  0
  7  8  1  0
  7 26  1  0
  7 27  1  0
  8  9  1  0
  8 10  1  0
  8 28  1  1
  9 29  1  0
 10 11  1  0
 10 30  1  0
 10 31  1  0
 11 32  1  0
 11 33  1  0
 12 13  1  0
 13 18  2  0
 13 14  1  0
 14 15  2  0
 14 34  1  0
 15 16  1  0
 15 35  1  0
 16 17  2  0
 16 36  1  0
 17 18  1  0
M  CHG  1   5   1
M  END
>  <i_m_ct_stereo_status>  (152) 
1

>  <s_m_source_file>  (152) 
/var/tmp/pbs.5076255.sched01/tmpon41x2vr/43t03z2zi4.sdf

>  <i_m_source_file_index>  (152) 
24

>  <i_lp_mmshare_version>  (152) 
48012

>  <i_f3d_flags>  (152) 
0

>  <s_epik_input>  (152) 
W2NIXTFbY0hdW2NIXW5jKGMxMiluKFtDSDNdKWMobjIpW0NIMl1OM1tDSDJdW0NIMl1bQ0hdKFtPSF0pW0NIMl1bQ0gyXTM=

>  <s_epik_cmdline>  (152) 
J2VwaWtfcHl0aG9uJywgJy1waHQnLCAnMi4wJywgJy1waCcsICc3LjAnLCAnLXRuJywgJzgnLCAnLW1hJywgJzIwMCcsICctaW1hZScsICc8aW5maWxlLm1hZT4nLCAnLW9tYWUnLCAnPG91dGZpbGUubWFlPic=

>  <r_lp_tautomer_probability>  (152) 
1

>  <r_epik_Ionization_Penalty>  (152) 
0.493284

>  <r_epik_Ionization_Penalty_Charging>  (152) 
0.493276

>  <r_epik_Ionization_Penalty_Neutral>  (152) 
7.9632e-06

>  <r_epik_State_Penalty>  (152) 
0.530245

>  <r_epik_Charging_Adjusted_Penalty>  (152) 
1.02352

>  <i_epik_Tot_Q>  (152) 
1

>  <i_epik_Tot_abs_Q>  (152) 
1

>  <s_lp_Force_Field>  (152) 
OPLS3e

>  <r_lp_Energy>  (152) 
24.1461

>  <b_lp_Chiralities_Consistent>  (152) 
1

>  <s_lp_Variant>  (152) 
41:0-2

>  <s_i_glide_gridfile>  (152) 
pfpi4k_grid

>  <i_i_glide_lignum>  (152) 
24

>  <i_i_glide_rotatable_bonds>  (152) 
3

>  <r_i_docking_score>  (152) 
-4.01343

>  <r_i_glide_ligand_efficiency>  (152) 
-0.222968

>  <r_i_glide_ligand_efficiency_sa>  (152) 
-0.584343

>  <r_i_glide_ligand_efficiency_ln>  (152) 
-1.03163

>  <r_i_glide_gscore>  (152) 
-4.01343

>  <r_i_glide_lipo>  (152) 
-0.0970064

>  <r_i_glide_hbond>  (152) 
-0.512619

>  <r_i_glide_metal>  (152) 
-0

>  <r_i_glide_rewards>  (152) 
-1.72284

>  <r_i_glide_evdw>  (152) 
-19.6761

>  <r_i_glide_ecoul>  (152) 
-7.45644

>  <r_i_glide_erotb>  (152) 
0.570451

>  <r_i_glide_esite>  (152) 
-0.149142

>  <r_i_glide_emodel>  (152) 
-33.8367

>  <r_i_glide_energy>  (152) 
-27.1326

>  <r_i_glide_einternal>  (152) 
1.49803

>  <r_i_glide_intrahb_reward>  (152) 
-0

>  <i_i_glide_confnum>  (152) 
4

>  <i_i_glide_posenum>  (152) 
3

>  <r_i_glide_eff_state_penalty>  (152) 
0

>  <ligand_id>  (152) 
41

>  <original_smiles>  (152) 
Cn1c(CN2CCC(O)CC2)nc2cccnc21

>  <smiles>  (152) 
[H]OC1([H])C([H])([H])C([H])([H])[N+]([H])(C([H])([H])c2nc3c([H])c([H])c([H])nc3n2C([H])([H])[H])C([H])([H])C1([H])[H]

$$$$
41:2:0
     RDKit          3D

 37 39  0  0  1  0  0  0  0  0999 V2000
    5.2837   -0.4295    3.7293 C   0  0  0  0  0  0  0  0  0  0  0  0
    4.1056   -0.3763    2.8528 N   0  0  0  0  0  0  0  0  0  0  0  0
    3.7412   -1.1452    1.7827 C   0  0  0  0  0  0  0  0  0  0  0  0
    4.5346   -2.2808    1.1955 C   0  0  0  0  0  0  0  0  0  0  0  0
    4.4528   -2.3775   -0.2623 N   0  0  0  0  0  0  0  0  0  0  0  0
    4.7508   -1.0851   -0.9075 C   0  0  0  0  0  0  0  0  0  0  0  0
    4.7238   -1.2062   -2.4287 C   0  0  0  0  0  0  0  0  0  0  0  0
    3.3832   -1.7835   -2.9082 C   0  0  0  0  0  0  0  0  0  0  0  0
    3.4367   -1.9738   -4.3079 O   0  0  0  0  0  0  0  0  0  0  0  0
    3.1111   -3.1211   -2.2066 C   0  0  0  0  0  0  0  0  0  0  0  0
    3.1729   -2.9643   -0.6872 C   0  0  0  0  0  0  0  0  0  0  0  0
    2.5528   -0.6444    1.3023 N   0  0  0  0  0  0  0  0  0  0  0  0
    2.1564    0.4411    2.0781 C   0  0  0  0  0  0  0  0  0  0  0  0
    1.0416    1.2631    1.9596 C   0  0  0  0  0  0  0  0  0  0  0  0
    0.9200    2.2879    2.9188 C   0  0  0  0  0  0  0  0  0  0  0  0
    1.9110    2.4435    3.9049 C   0  0  0  0  0  0  0  0  0  0  0  0
    2.9857    1.6323    3.9612 N   0  0  0  0  0  0  0  0  0  0  0  0
    3.1386    0.6122    3.0708 C   0  0  0  0  0  0  0  0  0  0  0  0
    6.0972   -0.9789    3.2435 H   0  0  0  0  0  0  0  0  0  0  0  0
    5.0066   -0.9492    4.6467 H   0  0  0  0  0  0  0  0  0  0  0  0
    5.6337    0.5783    3.9525 H   0  0  0  0  0  0  0  0  0  0  0  0
    5.5889   -2.1654    1.4620 H   0  0  0  0  0  0  0  0  0  0  0  0
    4.2119   -3.2259    1.6489 H   0  0  0  0  0  0  0  0  0  0  0  0
    4.0167   -0.3166   -0.6680 H   0  0  0  0  0  0  0  0  0  0  0  0
    5.7196   -0.7084   -0.5654 H   0  0  0  0  0  0  0  0  0  0  0  0
    4.8577   -0.2069   -2.8478 H   0  0  0  0  0  0  0  0  0  0  0  0
    5.5502   -1.8403   -2.7497 H   0  0  0  0  0  0  0  0  0  0  0  0
    2.5819   -1.0759   -2.6818 H   0  0  0  0  0  0  0  0  0  0  0  0
    2.5694   -2.2025   -4.6197 H   0  0  0  0  0  0  0  0  0  0  0  0
    2.1208   -3.4995   -2.4726 H   0  0  0  0  0  0  0  0  0  0  0  0
    3.8428   -3.8641   -2.5171 H   0  0  0  0  0  0  0  0  0  0  0  0
    3.0380   -3.9335   -0.1998 H   0  0  0  0  0  0  0  0  0  0  0  0
    2.3211   -2.3569   -0.3996 H   0  0  0  0  0  0  0  0  0  0  0  0
    0.3245    1.1258    1.1658 H   0  0  0  0  0  0  0  0  0  0  0  0
    0.0685    2.9481    2.8703 H   0  0  0  0  0  0  0  0  0  0  0  0
    1.8306    3.2077    4.6566 H   0  0  0  0  0  0  0  0  0  0  0  0
    2.0564   -0.9946    0.4769 H   0  0  0  0  0  0  0  0  0  0  0  0
  1  2  1  0
  1 19  1  0
  1 20  1  0
  1 21  1  0
  2 18  1  0
  2  3  1  0
  3  4  1  0
  3 12  2  0
  4  5  1  0
  4 22  1  0
  4 23  1  0
  5 11  1  0
  5  6  1  0
  6  7  1  0
  6 24  1  0
  6 25  1  0
  7  8  1  0
  7 26  1  0
  7 27  1  0
  8  9  1  0
  8 10  1  0
  8 28  1  0
  9 29  1  0
 10 11  1  0
 10 30  1  0
 10 31  1  0
 11 32  1  0
 11 33  1  0
 12 13  1  0
 12 37  1  0
 13 18  2  0
 13 14  1  0
 14 15  2  0
 14 34  1  0
 15 16  1  0
 15 35  1  0
 16 17  2  0
 16 36  1  0
 17 18  1  0
M  CHG  1  12   1
M  END
>  <i_m_ct_stereo_status>  (153) 
1

>  <s_m_source_file>  (153) 
/var/tmp/pbs.5076255.sched01/tmpon41x2vr/43t03z2zi4.sdf

>  <i_m_source_file_index>  (153) 
25

>  <i_lp_mmshare_version>  (153) 
48012

>  <i_f3d_flags>  (153) 
0

>  <s_epik_input>  (153) 
W2NIXTFbY0hdW2NIXW5jKGMxMiluKFtDSDNdKWMobjIpW0NIMl1OM1tDSDJdW0NIMl1bQ0hdKFtPSF0pW0NIMl1bQ0gyXTM=

>  <s_epik_cmdline>  (153) 
J2VwaWtfcHl0aG9uJywgJy1waHQnLCAnMi4wJywgJy1waCcsICc3LjAnLCAnLXRuJywgJzgnLCAnLW1hJywgJzIwMCcsICctaW1hZScsICc8aW5maWxlLm1hZT4nLCAnLW9tYWUnLCAnPG91dGZpbGUubWFlPic=

>  <r_epik_Ionization_Penalty>  (153) 
1.45776

>  <r_epik_Ionization_Penalty_Charging>  (153) 
0

>  <r_epik_Ionization_Penalty_Neutral>  (153) 
1.45776

>  <r_epik_State_Penalty>  (153) 
1.76204

>  <r_epik_Charging_Adjusted_Penalty>  (153) 
1.76204

>  <i_epik_Tot_Q>  (153) 
1

>  <i_epik_Tot_abs_Q>  (153) 
1

>  <s_lp_Force_Field>  (153) 
OPLS3e

>  <r_lp_Energy>  (153) 
23.8404

>  <b_lp_Chiralities_Consistent>  (153) 
1

>  <s_lp_Variant>  (153) 
41:0-3

>  <s_i_glide_gridfile>  (153) 
pfpi4k_grid

>  <i_i_glide_lignum>  (153) 
25

>  <i_i_glide_rotatable_bonds>  (153) 
3

>  <r_i_docking_score>  (153) 
-4.74266

>  <r_i_glide_ligand_efficiency>  (153) 
-0.263481

>  <r_i_glide_ligand_efficiency_sa>  (153) 
-0.690516

>  <r_i_glide_ligand_efficiency_ln>  (153) 
-1.21908

>  <r_i_glide_gscore>  (153) 
-4.74266

>  <r_i_glide_lipo>  (153) 
-0.134291

>  <r_i_glide_hbond>  (153) 
-0.656028

>  <r_i_glide_metal>  (153) 
-0

>  <r_i_glide_rewards>  (153) 
-1.81299

>  <r_i_glide_evdw>  (153) 
-20.5114

>  <r_i_glide_ecoul>  (153) 
-10.7012

>  <r_i_glide_erotb>  (153) 
0.570451

>  <r_i_glide_esite>  (153) 
-0.0790565

>  <r_i_glide_emodel>  (153) 
-39.6875

>  <r_i_glide_energy>  (153) 
-31.2126

>  <r_i_glide_einternal>  (153) 
5.65493

>  <r_i_glide_intrahb_reward>  (153) 
-0

>  <i_i_glide_confnum>  (153) 
1

>  <i_i_glide_posenum>  (153) 
23

>  <r_i_glide_eff_state_penalty>  (153) 
0

>  <ligand_id>  (153) 
41

>  <original_smiles>  (153) 
Cn1c(CN2CCC(O)CC2)nc2cccnc21

>  <smiles>  (153) 
[H]OC1([H])C([H])([H])C([H])([H])N(C([H])([H])c2n(C([H])([H])[H])c3nc([H])c([H])c([H])c3[n+]2[H])C([H])([H])C1([H])[H]

$$$$
41:2:1
     RDKit          3D

 37 39  0  0  1  0  0  0  0  0999 V2000
    6.6326   -1.0931    0.9893 C   0  0  0  0  0  0  0  0  0  0  0  0
    5.2866   -1.2922    0.4475 N   0  0  0  0  0  0  0  0  0  0  0  0
    4.0662   -0.8908    0.9133 C   0  0  0  0  0  0  0  0  0  0  0  0
    3.8182   -0.0899    2.1503 C   0  0  0  0  0  0  0  0  0  0  0  0
    2.4186   -0.0924    2.5647 N   0  0  0  0  0  0  0  0  0  0  0  0
    1.6448    0.8375    1.7294 C   0  0  0  0  0  0  0  0  0  0  0  0
    0.1632    0.7590    2.0970 C   0  0  0  0  0  0  0  0  0  0  0  0
   -0.0411    1.1026    3.5740 C   0  0  0  0  0  0  0  0  0  0  0  0
   -1.3858    0.8739    3.9337 O   0  0  0  0  0  0  0  0  0  0  0  0
    0.8642    0.2199    4.4404 C   0  0  0  0  0  0  0  0  0  0  0  0
    2.3246    0.3112    3.9680 C   0  0  0  0  0  0  0  0  0  0  0  0
    3.1236   -1.3550    0.0350 N   0  0  0  0  0  0  0  0  0  0  0  0
    3.7443   -2.0150   -1.0231 C   0  0  0  0  0  0  0  0  0  0  0  0
    3.2183   -2.6049   -2.1701 C   0  0  0  0  0  0  0  0  0  0  0  0
    4.1420   -3.1907   -3.0597 C   0  0  0  0  0  0  0  0  0  0  0  0
    5.5142   -3.1498   -2.7545 C   0  0  0  0  0  0  0  0  0  0  0  0
    5.9788   -2.5481   -1.6437 N   0  0  0  0  0  0  0  0  0  0  0  0
    5.1227   -1.9786   -0.7527 C   0  0  0  0  0  0  0  0  0  0  0  0
    6.5730   -0.8580    2.0532 H   0  0  0  0  0  0  0  0  0  0  0  0
    7.1065   -0.2611    0.4707 H   0  0  0  0  0  0  0  0  0  0  0  0
    7.2179   -2.0051    0.8607 H   0  0  0  0  0  0  0  0  0  0  0  0
    4.4499   -0.5041    2.9395 H   0  0  0  0  0  0  0  0  0  0  0  0
    4.1484    0.9369    1.9844 H   0  0  0  0  0  0  0  0  0  0  0  0
    2.0195    1.8563    1.8369 H   0  0  0  0  0  0  0  0  0  0  0  0
    1.7254    0.5845    0.6744 H   0  0  0  0  0  0  0  0  0  0  0  0
   -0.4090    1.4307    1.4539 H   0  0  0  0  0  0  0  0  0  0  0  0
   -0.1773   -0.2532    1.8877 H   0  0  0  0  0  0  0  0  0  0  0  0
    0.2039    2.1522    3.7329 H   0  0  0  0  0  0  0  0  0  0  0  0
   -1.9469    1.3103    3.3075 H   0  0  0  0  0  0  0  0  0  0  0  0
    0.7957    0.5210    5.4864 H   0  0  0  0  0  0  0  0  0  0  0  0
    0.5344   -0.8199    4.3918 H   0  0  0  0  0  0  0  0  0  0  0  0
    2.9358   -0.3550    4.5804 H   0  0  0  0  0  0  0  0  0  0  0  0
    2.7159    1.3230    4.0978 H   0  0  0  0  0  0  0  0  0  0  0  0
    2.1555   -2.6146   -2.3678 H   0  0  0  0  0  0  0  0  0  0  0  0
    3.7854   -3.6909   -3.9467 H   0  0  0  0  0  0  0  0  0  0  0  0
    6.2280   -3.5974   -3.4170 H   0  0  0  0  0  0  0  0  0  0  0  0
    2.1187   -1.1431    0.0659 H   0  0  0  0  0  0  0  0  0  0  0  0
  1  2  1  0
  1 19  1  0
  1 20  1  0
  1 21  1  0
  2 18  1  0
  2  3  1  0
  3  4  1  0
  3 12  2  0
  4  5  1  0
  4 22  1  0
  4 23  1  0
  5 11  1  0
  5  6  1  0
  6  7  1  0
  6 24  1  0
  6 25  1  0
  7  8  1  0
  7 26  1  0
  7 27  1  0
  8  9  1  0
  8 10  1  0
  8 28  1  0
  9 29  1  0
 10 11  1  0
 10 30  1  0
 10 31  1  0
 11 32  1  0
 11 33  1  0
 12 13  1  0
 12 37  1  0
 13 18  2  0
 13 14  1  0
 14 15  2  0
 14 34  1  0
 15 16  1  0
 15 35  1  0
 16 17  2  0
 16 36  1  0
 17 18  1  0
M  CHG  1  12   1
M  END
>  <i_m_ct_stereo_status>  (154) 
1

>  <s_m_source_file>  (154) 
/var/tmp/pbs.5076255.sched01/tmpon41x2vr/43t03z2zi4.sdf

>  <i_m_source_file_index>  (154) 
25

>  <i_lp_mmshare_version>  (154) 
48012

>  <i_f3d_flags>  (154) 
0

>  <s_epik_input>  (154) 
W2NIXTFbY0hdW2NIXW5jKGMxMiluKFtDSDNdKWMobjIpW0NIMl1OM1tDSDJdW0NIMl1bQ0hdKFtPSF0pW0NIMl1bQ0gyXTM=

>  <s_epik_cmdline>  (154) 
J2VwaWtfcHl0aG9uJywgJy1waHQnLCAnMi4wJywgJy1waCcsICc3LjAnLCAnLXRuJywgJzgnLCAnLW1hJywgJzIwMCcsICctaW1hZScsICc8aW5maWxlLm1hZT4nLCAnLW9tYWUnLCAnPG91dGZpbGUubWFlPic=

>  <r_epik_Ionization_Penalty>  (154) 
1.45776

>  <r_epik_Ionization_Penalty_Charging>  (154) 
0

>  <r_epik_Ionization_Penalty_Neutral>  (154) 
1.45776

>  <r_epik_State_Penalty>  (154) 
1.76204

>  <r_epik_Charging_Adjusted_Penalty>  (154) 
1.76204

>  <i_epik_Tot_Q>  (154) 
1

>  <i_epik_Tot_abs_Q>  (154) 
1

>  <s_lp_Force_Field>  (154) 
OPLS3e

>  <r_lp_Energy>  (154) 
23.8404

>  <b_lp_Chiralities_Consistent>  (154) 
1

>  <s_lp_Variant>  (154) 
41:0-3

>  <s_i_glide_gridfile>  (154) 
pfpi4k_grid

>  <i_i_glide_lignum>  (154) 
25

>  <i_i_glide_rotatable_bonds>  (154) 
3

>  <r_i_docking_score>  (154) 
-4.1706

>  <r_i_glide_ligand_efficiency>  (154) 
-0.2317

>  <r_i_glide_ligand_efficiency_sa>  (154) 
-0.607225

>  <r_i_glide_ligand_efficiency_ln>  (154) 
-1.07203

>  <r_i_glide_gscore>  (154) 
-4.1706

>  <r_i_glide_lipo>  (154) 
-0.304758

>  <r_i_glide_hbond>  (154) 
-0.201113

>  <r_i_glide_metal>  (154) 
-0

>  <r_i_glide_rewards>  (154) 
-1.86119

>  <r_i_glide_evdw>  (154) 
-21.6865

>  <r_i_glide_ecoul>  (154) 
-7.79043

>  <r_i_glide_erotb>  (154) 
0.570451

>  <r_i_glide_esite>  (154) 
-0.121095

>  <r_i_glide_emodel>  (154) 
-38.2663

>  <r_i_glide_energy>  (154) 
-29.4769

>  <r_i_glide_einternal>  (154) 
2.68238

>  <r_i_glide_intrahb_reward>  (154) 
-0

>  <i_i_glide_confnum>  (154) 
5

>  <i_i_glide_posenum>  (154) 
2

>  <r_i_glide_eff_state_penalty>  (154) 
0

>  <ligand_id>  (154) 
41

>  <original_smiles>  (154) 
Cn1c(CN2CCC(O)CC2)nc2cccnc21

>  <smiles>  (154) 
[H]OC1([H])C([H])([H])C([H])([H])N(C([H])([H])c2n(C([H])([H])[H])c3nc([H])c([H])c([H])c3[n+]2[H])C([H])([H])C1([H])[H]

$$$$
41:2:2
     RDKit          3D

 37 39  0  0  1  0  0  0  0  0999 V2000
    5.1004    0.0774    3.9655 C   0  0  0  0  0  0  0  0  0  0  0  0
    3.9847    0.0697    3.0122 N   0  0  0  0  0  0  0  0  0  0  0  0
    3.7974   -0.6376    1.8603 C   0  0  0  0  0  0  0  0  0  0  0  0
    4.7615   -1.6092    1.2548 C   0  0  0  0  0  0  0  0  0  0  0  0
    4.3169   -2.1744   -0.0196 N   0  0  0  0  0  0  0  0  0  0  0  0
    5.2449   -3.2277   -0.4397 C   0  0  0  0  0  0  0  0  0  0  0  0
    4.7258   -3.8902   -1.7283 C   0  0  0  0  0  0  0  0  0  0  0  0
    4.5170   -2.8630   -2.8503 C   0  0  0  0  0  0  0  0  0  0  0  0
    3.8934   -3.4685   -3.9568 O   0  0  0  0  0  0  0  0  0  0  0  0
    3.6411   -1.7261   -2.3399 C   0  0  0  0  0  0  0  0  0  0  0  0
    4.2631   -1.1474   -1.0698 C   0  0  0  0  0  0  0  0  0  0  0  0
    2.5642   -0.2906    1.3573 N   0  0  0  0  0  0  0  0  0  0  0  0
    1.9818    0.6679    2.1878 C   0  0  0  0  0  0  0  0  0  0  0  0
    0.7629    1.3379    2.0841 C   0  0  0  0  0  0  0  0  0  0  0  0
    0.4478    2.2418    3.1202 C   0  0  0  0  0  0  0  0  0  0  0  0
    1.3556    2.4394    4.1771 C   0  0  0  0  0  0  0  0  0  0  0  0
    2.5338    1.7843    4.2174 N   0  0  0  0  0  0  0  0  0  0  0  0
    2.8774    0.8915    3.2455 C   0  0  0  0  0  0  0  0  0  0  0  0
    6.0064   -0.3200    3.4922 H   0  0  0  0  0  0  0  0  0  0  0  0
    4.8373   -0.5538    4.8155 H   0  0  0  0  0  0  0  0  0  0  0  0
    5.2888    1.0946    4.3020 H   0  0  0  0  0  0  0  0  0  0  0  0
    5.7294   -1.1171    1.1206 H   0  0  0  0  0  0  0  0  0  0  0  0
    4.9122   -2.4158    1.9794 H   0  0  0  0  0  0  0  0  0  0  0  0
    6.2384   -2.8026   -0.5979 H   0  0  0  0  0  0  0  0  0  0  0  0
    5.3365   -3.9865    0.3430 H   0  0  0  0  0  0  0  0  0  0  0  0
    5.4162   -4.6636   -2.0555 H   0  0  0  0  0  0  0  0  0  0  0  0
    3.7790   -4.3723   -1.4829 H   0  0  0  0  0  0  0  0  0  0  0  0
    5.4808   -2.4515   -3.1508 H   0  0  0  0  0  0  0  0  0  0  0  0
    3.1822   -4.0072   -3.6306 H   0  0  0  0  0  0  0  0  0  0  0  0
    3.5487   -0.9335   -3.0828 H   0  0  0  0  0  0  0  0  0  0  0  0
    2.6249   -2.0754   -2.1306 H   0  0  0  0  0  0  0  0  0  0  0  0
    3.6216   -0.3211   -0.8013 H   0  0  0  0  0  0  0  0  0  0  0  0
    5.2554   -0.7227   -1.2419 H   0  0  0  0  0  0  0  0  0  0  0  0
    0.1095    1.1856    1.2462 H   0  0  0  0  0  0  0  0  0  0  0  0
   -0.4868    2.7841    3.0604 H   0  0  0  0  0  0  0  0  0  0  0  0
    1.1354    3.1157    4.9816 H   0  0  0  0  0  0  0  0  0  0  0  0
    2.1512   -0.6865    0.5135 H   0  0  0  0  0  0  0  0  0  0  0  0
  1  2  1  0
  1 19  1  0
  1 20  1  0
  1 21  1  0
  2 18  1  0
  2  3  1  0
  3  4  1  0
  3 12  2  0
  4  5  1  0
  4 22  1  0
  4 23  1  0
  5 11  1  0
  5  6  1  0
  6  7  1  0
  6 24  1  0
  6 25  1  0
  7  8  1  0
  7 26  1  0
  7 27  1  0
  8  9  1  0
  8 10  1  0
  8 28  1  0
  9 29  1  0
 10 11  1  0
 10 30  1  0
 10 31  1  0
 11 32  1  0
 11 33  1  0
 12 13  1  0
 12 37  1  0
 13 18  2  0
 13 14  1  0
 14 15  2  0
 14 34  1  0
 15 16  1  0
 15 35  1  0
 16 17  2  0
 16 36  1  0
 17 18  1  0
M  CHG  1  12   1
M  END
>  <i_m_ct_stereo_status>  (155) 
1

>  <s_m_source_file>  (155) 
/var/tmp/pbs.5076255.sched01/tmpon41x2vr/43t03z2zi4.sdf

>  <i_m_source_file_index>  (155) 
25

>  <i_lp_mmshare_version>  (155) 
48012

>  <i_f3d_flags>  (155) 
0

>  <s_epik_input>  (155) 
W2NIXTFbY0hdW2NIXW5jKGMxMiluKFtDSDNdKWMobjIpW0NIMl1OM1tDSDJdW0NIMl1bQ0hdKFtPSF0pW0NIMl1bQ0gyXTM=

>  <s_epik_cmdline>  (155) 
J2VwaWtfcHl0aG9uJywgJy1waHQnLCAnMi4wJywgJy1waCcsICc3LjAnLCAnLXRuJywgJzgnLCAnLW1hJywgJzIwMCcsICctaW1hZScsICc8aW5maWxlLm1hZT4nLCAnLW9tYWUnLCAnPG91dGZpbGUubWFlPic=

>  <r_epik_Ionization_Penalty>  (155) 
1.45776

>  <r_epik_Ionization_Penalty_Charging>  (155) 
0

>  <r_epik_Ionization_Penalty_Neutral>  (155) 
1.45776

>  <r_epik_State_Penalty>  (155) 
1.76204

>  <r_epik_Charging_Adjusted_Penalty>  (155) 
1.76204

>  <i_epik_Tot_Q>  (155) 
1

>  <i_epik_Tot_abs_Q>  (155) 
1

>  <s_lp_Force_Field>  (155) 
OPLS3e

>  <r_lp_Energy>  (155) 
23.8404

>  <b_lp_Chiralities_Consistent>  (155) 
1

>  <s_lp_Variant>  (155) 
41:0-3

>  <s_i_glide_gridfile>  (155) 
pfpi4k_grid

>  <i_i_glide_lignum>  (155) 
25

>  <i_i_glide_rotatable_bonds>  (155) 
3

>  <r_i_docking_score>  (155) 
-4.01952

>  <r_i_glide_ligand_efficiency>  (155) 
-0.223307

>  <r_i_glide_ligand_efficiency_sa>  (155) 
-0.585229

>  <r_i_glide_ligand_efficiency_ln>  (155) 
-1.0332

>  <r_i_glide_gscore>  (155) 
-4.01952

>  <r_i_glide_lipo>  (155) 
-0.266604

>  <r_i_glide_hbond>  (155) 
-0.272324

>  <r_i_glide_metal>  (155) 
-0

>  <r_i_glide_rewards>  (155) 
-1.75254

>  <r_i_glide_evdw>  (155) 
-19.983

>  <r_i_glide_ecoul>  (155) 
-8.1839

>  <r_i_glide_erotb>  (155) 
0.570451

>  <r_i_glide_esite>  (155) 
-0.0717678

>  <r_i_glide_emodel>  (155) 
-37.1559

>  <r_i_glide_energy>  (155) 
-28.1669

>  <r_i_glide_einternal>  (155) 
1.25789

>  <r_i_glide_intrahb_reward>  (155) 
-0

>  <i_i_glide_confnum>  (155) 
1

>  <i_i_glide_posenum>  (155) 
1

>  <r_i_glide_eff_state_penalty>  (155) 
0

>  <ligand_id>  (155) 
41

>  <original_smiles>  (155) 
Cn1c(CN2CCC(O)CC2)nc2cccnc21

>  <smiles>  (155) 
[H]OC1([H])C([H])([H])C([H])([H])N(C([H])([H])c2n(C([H])([H])[H])c3nc([H])c([H])c([H])c3[n+]2[H])C([H])([H])C1([H])[H]

$$$$
42:1:0
     RDKit          3D

 71 76  0  0  1  0  0  0  0  0999 V2000
    2.7752   -1.3511    6.9003 C   0  0  0  0  0  0  0  0  0  0  0  0
    3.2571   -1.7851    5.4948 C   0  0  2  0  0  0  0  0  0  0  0  0
    2.1282   -2.0304    4.4151 C   0  0  1  0  0  0  0  0  0  0  0  0
    0.8130   -1.8079    5.0419 N   0  0  0  0  0  0  0  0  0  0  0  0
   -0.0147   -3.0056    5.0813 C   0  0  0  0  0  0  0  0  0  0  0  0
    0.1386   -0.6811    4.4171 C   0  0  0  0  0  0  0  0  0  0  0  0
    1.2360   -0.0009    3.6151 C   0  0  0  0  0  0  0  0  0  0  0  0
    2.1356   -1.1317    3.1190 C   0  0  2  0  0  0  0  0  0  0  0  0
    1.5906   -1.8645    1.8710 C   0  0  0  0  0  0  0  0  0  0  0  0
    2.8817   -1.6817    1.0242 C   0  0  1  0  0  0  0  0  0  0  0  0
    3.3303   -0.7467    2.1660 C   0  0  2  0  0  0  0  0  0  0  0  0
    4.7759   -0.3870    2.4680 C   0  0  1  0  0  0  0  0  0  0  0  0
    5.0011    0.2854    3.6776 O   0  0  0  0  0  0  0  0  0  0  0  0
    5.7510   -1.5072    2.2028 C   0  0  1  0  0  0  0  0  0  0  0  0
    5.3746   -2.9810    2.3860 C   0  0  1  0  0  0  0  0  0  0  0  0
    4.2509   -3.2367    3.1738 O   0  0  0  0  0  0  0  0  0  0  0  0
    4.4931   -3.7964    4.3958 C   0  0  0  0  0  0  0  0  0  0  0  0
    4.3358   -5.0874    4.6591 C   0  0  0  0  0  0  0  0  0  0  0  0
    4.1168   -5.2178    6.0764 C   0  0  0  0  0  0  0  0  0  0  0  0
    4.0987   -3.9922    6.6102 C   0  0  0  0  0  0  0  0  0  0  0  0
    4.3785   -2.8821    5.6045 C   0  0  2  0  0  0  0  0  0  0  0  0
    5.7560   -2.2809    5.9179 C   0  0  0  0  0  0  0  0  0  0  0  0
    5.1361   -3.1036    0.8783 C   0  0  2  0  0  0  0  0  0  0  0  0
    5.7378   -4.4137    0.2915 C   0  0  0  0  0  0  0  0  0  0  0  0
    6.0811   -1.8456    0.7343 C   0  0  0  0  0  0  0  0  0  0  0  0
    5.8160   -0.7574   -0.3099 C   0  0  0  0  0  0  0  0  0  0  0  0
    7.5951   -2.1360    0.5140 C   0  0  0  0  0  0  0  0  0  0  0  0
    3.6434   -2.9265    0.5079 N   0  0  0  0  0  0  0  0  0  0  0  0
    3.5156   -2.8763   -0.9856 C   0  0  0  0  0  0  0  0  0  0  0  0
    2.8800   -4.1798    0.8243 C   0  0  0  0  0  0  0  0  0  0  0  0
    2.1727   -2.1177    7.3852 H   0  0  0  0  0  0  0  0  0  0  0  0
    2.1852   -0.4367    6.8536 H   0  0  0  0  0  0  0  0  0  0  0  0
    3.6193   -1.1371    7.5527 H   0  0  0  0  0  0  0  0  0  0  0  0
    3.7477   -0.8857    5.1750 H   0  0  0  0  0  0  0  0  0  0  0  0
    2.1327   -3.0819    4.1261 H   0  0  0  0  0  0  0  0  0  0  0  0
   -0.9591   -2.8093    5.5864 H   0  0  0  0  0  0  0  0  0  0  0  0
    0.4938   -3.8039    5.6212 H   0  0  0  0  0  0  0  0  0  0  0  0
   -0.2254   -3.3717    4.0806 H   0  0  0  0  0  0  0  0  0  0  0  0
   -0.6540   -1.0173    3.7514 H   0  0  0  0  0  0  0  0  0  0  0  0
   -0.3142   -0.0243    5.1614 H   0  0  0  0  0  0  0  0  0  0  0  0
    0.8073    0.5944    2.8065 H   0  0  0  0  0  0  0  0  0  0  0  0
    1.7978    0.6774    4.2548 H   0  0  0  0  0  0  0  0  0  0  0  0
    1.2785   -2.8663    2.1462 H   0  0  0  0  0  0  0  0  0  0  0  0
    0.7516   -1.3277    1.4270 H   0  0  0  0  0  0  0  0  0  0  0  0
    2.6263   -1.0197    0.1881 H   0  0  0  0  0  0  0  0  0  0  0  0
    2.9503    0.2059    1.8077 H   0  0  0  0  0  0  0  0  0  0  0  0
    5.0473    0.4136    1.7875 H   0  0  0  0  0  0  0  0  0  0  0  0
    4.5696    1.1309    3.6267 H   0  0  0  0  0  0  0  0  0  0  0  0
    6.6697   -1.2777    2.7152 H   0  0  0  0  0  0  0  0  0  0  0  0
    6.2166   -3.5997    2.6805 H   0  0  0  0  0  0  0  0  0  0  0  0
    4.1784   -5.8770    3.9317 H   0  0  0  0  0  0  0  0  0  0  0  0
    3.9736   -6.1419    6.6152 H   0  0  0  0  0  0  0  0  0  0  0  0
    3.9718   -3.7883    7.6626 H   0  0  0  0  0  0  0  0  0  0  0  0
    5.7788   -1.7376    6.8594 H   0  0  0  0  0  0  0  0  0  0  0  0
    6.0336   -1.5761    5.1449 H   0  0  0  0  0  0  0  0  0  0  0  0
    6.5249   -3.0553    5.9614 H   0  0  0  0  0  0  0  0  0  0  0  0
    6.7626   -4.5624    0.6209 H   0  0  0  0  0  0  0  0  0  0  0  0
    5.7888   -4.4168   -0.7931 H   0  0  0  0  0  0  0  0  0  0  0  0
    5.2516   -5.3198    0.6386 H   0  0  0  0  0  0  0  0  0  0  0  0
    6.0102   -1.1073   -1.3245 H   0  0  0  0  0  0  0  0  0  0  0  0
    6.4379    0.1162   -0.1170 H   0  0  0  0  0  0  0  0  0  0  0  0
    4.7975   -0.3846   -0.2860 H   0  0  0  0  0  0  0  0  0  0  0  0
    7.8028   -2.5712   -0.4693 H   0  0  0  0  0  0  0  0  0  0  0  0
    7.9918   -2.8457    1.2436 H   0  0  0  0  0  0  0  0  0  0  0  0
    8.2174   -1.2385    0.6002 H   0  0  0  0  0  0  0  0  0  0  0  0
    3.8894   -3.7664   -1.4862 H   0  0  0  0  0  0  0  0  0  0  0  0
    3.9830   -2.0243   -1.4654 H   0  0  0  0  0  0  0  0  0  0  0  0
    2.4663   -2.8192   -1.2765 H   0  0  0  0  0  0  0  0  0  0  0  0
    3.2388   -5.0502    0.2854 H   0  0  0  0  0  0  0  0  0  0  0  0
    1.8542   -4.1042    0.4766 H   0  0  0  0  0  0  0  0  0  0  0  0
    2.8463   -4.4547    1.8737 H   0  0  0  0  0  0  0  0  0  0  0  0
  1  2  1  0
  1 31  1  0
  1 32  1  0
  1 33  1  0
  2 21  1  0
  2  3  1  0
  2 34  1  6
  3  8  1  0
  3  4  1  0
  3 35  1  6
  4  5  1  0
  4  6  1  0
  5 36  1  0
  5 37  1  0
  5 38  1  0
  6  7  1  0
  6 39  1  0
  6 40  1  0
  8  7  1  1
  7 41  1  0
  7 42  1  0
  8 11  1  0
  8  9  1  0
  9 10  1  0
  9 43  1  0
  9 44  1  0
 10 28  1  0
 10 11  1  0
 10 45  1  6
 11 12  1  0
 11 46  1  6
 12 13  1  0
 12 14  1  0
 12 47  1  6
 13 48  1  0
 14 25  1  0
 14 15  1  0
 14 49  1  1
 15 16  1  0
 15 23  1  0
 15 50  1  1
 16 17  1  0
 17 21  1  0
 17 18  2  0
 18 19  1  0
 18 51  1  0
 19 20  2  0
 19 52  1  0
 20 21  1  0
 20 53  1  0
 21 22  1  1
 22 54  1  0
 22 55  1  0
 22 56  1  0
 23 24  1  6
 23 25  1  0
 23 28  1  0
 24 57  1  0
 24 58  1  0
 24 59  1  0
 25 26  1  0
 25 27  1  0
 26 60  1  0
 26 61  1  0
 26 62  1  0
 27 63  1  0
 27 64  1  0
 27 65  1  0
 28 29  1  0
 28 30  1  0
 29 66  1  0
 29 67  1  0
 29 68  1  0
 30 69  1  0
 30 70  1  0
 30 71  1  0
M  CHG  1  28   1
M  END
>  <i_m_ct_stereo_status>  (156) 
1

>  <s_m_source_file>  (156) 
/var/tmp/pbs.5076255.sched01/tmpon41x2vr/43t03z2zi4.sdf

>  <i_m_source_file_index>  (156) 
27

>  <i_lp_mmshare_version>  (156) 
48012

>  <i_f3d_flags>  (156) 
0

>  <s_epik_input>  (156) 
W0NIMl0xW0NIMl1OKFtDSDNdKVtDQEBIXShbQ0BdMTIzKVtDQEBIXShbQ0gzXSlbQ0BdNChbQ0gzXSlDKD1bQ0hdW0NIXT1bQ0hdNClPW0NAQEhdNVtDQEBIXTZbQ0BIXShbT0hdKVtDQEhdM1tDQEhdKFtDSDJdMilbTitdKFtDSDNdKShbQ0gzXSlbQ0BAXTUoW0NIM10pQzYoW0NIM10pW0NIM10=

>  <s_epik_cmdline>  (156) 
J2VwaWtfcHl0aG9uJywgJy1waHQnLCAnMi4wJywgJy1waCcsICc3LjAnLCAnLXRuJywgJzgnLCAnLW1hJywgJzIwMCcsICctaW1hZScsICc8aW5maWxlLm1hZT4nLCAnLW9tYWUnLCAnPG91dGZpbGUubWFlPic=

>  <r_lp_tautomer_probability>  (156) 
1

>  <r_epik_Ionization_Penalty>  (156) 
1.48371

>  <r_epik_Ionization_Penalty_Charging>  (156) 
0

>  <r_epik_Ionization_Penalty_Neutral>  (156) 
1.48371

>  <r_epik_State_Penalty>  (156) 
1.57252

>  <r_epik_Charging_Adjusted_Penalty>  (156) 
1.57252

>  <i_epik_Tot_Q>  (156) 
1

>  <i_epik_Tot_abs_Q>  (156) 
1

>  <s_lp_Force_Field>  (156) 
OPLS3e

>  <r_lp_Energy>  (156) 
122.168

>  <b_lp_Chiralities_Consistent>  (156) 
1

>  <s_lp_Variant>  (156) 
42:0-2

>  <s_i_glide_gridfile>  (156) 
pfpi4k_grid

>  <i_i_glide_lignum>  (156) 
27

>  <i_i_glide_rotatable_bonds>  (156) 
1

>  <r_i_docking_score>  (156) 
-2.65231

>  <r_i_glide_ligand_efficiency>  (156) 
-0.0884104

>  <r_i_glide_ligand_efficiency_sa>  (156) 
-0.274712

>  <r_i_glide_ligand_efficiency_ln>  (156) 
-0.602634

>  <r_i_glide_gscore>  (156) 
-2.65231

>  <r_i_glide_lipo>  (156) 
-0.63353

>  <r_i_glide_hbond>  (156) 
-0.0127462

>  <r_i_glide_metal>  (156) 
-0

>  <r_i_glide_rewards>  (156) 
-0.588982

>  <r_i_glide_evdw>  (156) 
-14.9815

>  <r_i_glide_ecoul>  (156) 
-4.3744

>  <r_i_glide_erotb>  (156) 
0

>  <r_i_glide_esite>  (156) 
-0.0118217

>  <r_i_glide_emodel>  (156) 
-21.5184

>  <r_i_glide_energy>  (156) 
-19.3558

>  <r_i_glide_einternal>  (156) 
0.356335

>  <r_i_glide_intrahb_reward>  (156) 
-0

>  <i_i_glide_confnum>  (156) 
1

>  <i_i_glide_posenum>  (156) 
26

>  <r_i_glide_eff_state_penalty>  (156) 
0

>  <ligand_id>  (156) 
42

>  <original_smiles>  (156) 
CC1C2N(C)CCC23CC2C3C(O)C3C(OC4=CC=CC41C)C(C)(C3(C)C)[N+]2(C)C

>  <smiles>  (156) 
[H]OC1([H])C2([H])C3([H])OC4=C([H])C([H])=C([H])C4(C([H])([H])[H])C([H])(C([H])([H])[H])C4([H])N(C([H])([H])[H])C([H])([H])C([H])([H])C45C([H])([H])C([H])(C15[H])[N+](C([H])([H])[H])(C([H])([H])[H])C3(C([H])([H])[H])C2(C([H])([H])[H])C([H])([H])[H]

$$$$
42:1:1
     RDKit          3D

 71 76  0  0  1  0  0  0  0  0999 V2000
    3.0442   -0.3743    6.4951 C   0  0  0  0  0  0  0  0  0  0  0  0
    3.3931   -1.0145    5.1282 C   0  0  2  0  0  0  0  0  0  0  0  0
    2.3216   -0.8204    3.9771 C   0  0  1  0  0  0  0  0  0  0  0  0
    1.1714   -0.0697    4.5129 N   0  0  0  0  0  0  0  0  0  0  0  0
   -0.0728   -0.8280    4.4980 C   0  0  0  0  0  0  0  0  0  0  0  0
    1.0462    1.2183    3.8403 C   0  0  0  0  0  0  0  0  0  0  0  0
    2.3661    1.3703    3.1081 C   0  0  0  0  0  0  0  0  0  0  0  0
    2.7472   -0.0337    2.6821 C   0  0  2  0  0  0  0  0  0  0  0  0
    2.0227   -0.5288    1.4089 C   0  0  0  0  0  0  0  0  0  0  0  0
    3.3272   -0.9221    0.6527 C   0  0  1  0  0  0  0  0  0  0  0  0
    4.0562   -0.1866    1.8102 C   0  0  2  0  0  0  0  0  0  0  0  0
    5.4939   -0.4515    2.1884 C   0  0  1  0  0  0  0  0  0  0  0  0
    5.9187    0.1079    3.4096 O   0  0  0  0  0  0  0  0  0  0  0  0
    5.9536   -1.8765    1.9728 C   0  0  1  0  0  0  0  0  0  0  0  0
    5.0375   -3.0788    2.1775 C   0  0  1  0  0  0  0  0  0  0  0  0
    3.8570   -2.8281    2.8910 O   0  0  0  0  0  0  0  0  0  0  0  0
    3.7788   -3.3773    4.1217 C   0  0  0  0  0  0  0  0  0  0  0  0
    3.0832   -4.5092    4.3931 C   0  0  0  0  0  0  0  0  0  0  0  0
    2.7559   -4.4821    5.7806 C   0  0  0  0  0  0  0  0  0  0  0  0
    3.2026   -3.3277    6.3156 C   0  0  0  0  0  0  0  0  0  0  0  0
    3.9592   -2.4728    5.3186 C   0  0  2  0  0  0  0  0  0  0  0  0
    5.4415   -2.4700    5.7146 C   0  0  0  0  0  0  0  0  0  0  0  0
    4.8303   -3.1389    0.6488 C   0  0  2  0  0  0  0  0  0  0  0  0
    4.8977   -4.5901    0.1113 C   0  0  0  0  0  0  0  0  0  0  0  0
    6.2112   -2.3784    0.5492 C   0  0  0  0  0  0  0  0  0  0  0  0
    6.4522   -1.3137   -0.4980 C   0  0  0  0  0  0  0  0  0  0  0  0
    7.4972   -3.2388    0.4535 C   0  0  0  0  0  0  0  0  0  0  0  0
    3.5571   -2.3799    0.1767 N   0  0  0  0  0  0  0  0  0  0  0  0
    3.5574   -2.3220   -1.3172 C   0  0  0  0  0  0  0  0  0  0  0  0
    2.3685   -3.2051    0.4677 C   0  0  0  0  0  0  0  0  0  0  0  0
    2.1573   -0.8172    6.9455 H   0  0  0  0  0  0  0  0  0  0  0  0
    2.8749    0.7003    6.4041 H   0  0  0  0  0  0  0  0  0  0  0  0
    3.8643   -0.4942    7.2020 H   0  0  0  0  0  0  0  0  0  0  0  0
    4.2183   -0.3930    4.8347 H   0  0  0  0  0  0  0  0  0  0  0  0
    1.9230   -1.7899    3.6919 H   0  0  0  0  0  0  0  0  0  0  0  0
   -0.8809   -0.2513    4.9464 H   0  0  0  0  0  0  0  0  0  0  0  0
    0.0403   -1.7479    5.0724 H   0  0  0  0  0  0  0  0  0  0  0  0
   -0.3654   -1.0949    3.4843 H   0  0  0  0  0  0  0  0  0  0  0  0
    0.2226    1.2083    3.1240 H   0  0  0  0  0  0  0  0  0  0  0  0
    0.8538    2.0204    4.5511 H   0  0  0  0  0  0  0  0  0  0  0  0
    2.2615    2.0683    2.2694 H   0  0  0  0  0  0  0  0  0  0  0  0
    3.1201    1.7941    3.7775 H   0  0  0  0  0  0  0  0  0  0  0  0
    1.2973   -1.3002    1.6403 H   0  0  0  0  0  0  0  0  0  0  0  0
    1.5200    0.2865    0.8952 H   0  0  0  0  0  0  0  0  0  0  0  0
    3.4187   -0.2759   -0.2174 H   0  0  0  0  0  0  0  0  0  0  0  0
    4.1140    0.8265    1.4032 H   0  0  0  0  0  0  0  0  0  0  0  0
    6.0997    0.1583    1.5310 H   0  0  0  0  0  0  0  0  0  0  0  0
    6.8553    0.2230    3.3836 H   0  0  0  0  0  0  0  0  0  0  0  0
    6.8908   -2.0161    2.4776 H   0  0  0  0  0  0  0  0  0  0  0  0
    5.6012   -3.9297    2.5479 H   0  0  0  0  0  0  0  0  0  0  0  0
    2.6789   -5.1758    3.6568 H   0  0  0  0  0  0  0  0  0  0  0  0
    2.2269   -5.2501    6.3215 H   0  0  0  0  0  0  0  0  0  0  0  0
    3.1143   -3.0604    7.3523 H   0  0  0  0  0  0  0  0  0  0  0  0
    5.6415   -1.9299    6.6421 H   0  0  0  0  0  0  0  0  0  0  0  0
    6.0099   -2.0040    4.9268 H   0  0  0  0  0  0  0  0  0  0  0  0
    5.8298   -3.4849    5.8257 H   0  0  0  0  0  0  0  0  0  0  0  0
    5.7606   -5.1212    0.5124 H   0  0  0  0  0  0  0  0  0  0  0  0
    5.0096   -4.6453   -0.9700 H   0  0  0  0  0  0  0  0  0  0  0  0
    4.0669   -5.2163    0.4309 H   0  0  0  0  0  0  0  0  0  0  0  0
    6.5864   -1.7346   -1.4894 H   0  0  0  0  0  0  0  0  0  0  0  0
    7.3595   -0.7878   -0.2035 H   0  0  0  0  0  0  0  0  0  0  0  0
    5.6773   -0.5471   -0.5384 H   0  0  0  0  0  0  0  0  0  0  0  0
    7.5759   -3.7551   -0.5013 H   0  0  0  0  0  0  0  0  0  0  0  0
    7.5640   -4.0010    1.2371 H   0  0  0  0  0  0  0  0  0  0  0  0
    8.4096   -2.6480    0.5585 H   0  0  0  0  0  0  0  0  0  0  0  0
    3.5779   -3.3132   -1.7867 H   0  0  0  0  0  0  0  0  0  0  0  0
    4.3658   -1.7453   -1.7713 H   0  0  0  0  0  0  0  0  0  0  0  0
    2.6373   -1.8610   -1.6806 H   0  0  0  0  0  0  0  0  0  0  0  0
    2.3601   -4.1649   -0.0586 H   0  0  0  0  0  0  0  0  0  0  0  0
    1.4957   -2.6983    0.0722 H   0  0  0  0  0  0  0  0  0  0  0  0
    2.1681   -3.4089    1.5236 H   0  0  0  0  0  0  0  0  0  0  0  0
  1  2  1  0
  1 31  1  0
  1 32  1  0
  1 33  1  0
  2 21  1  0
  2  3  1  0
  2 34  1  6
  3  8  1  0
  3  4  1  0
  3 35  1  6
  4  5  1  0
  4  6  1  0
  5 36  1  0
  5 37  1  0
  5 38  1  0
  6  7  1  0
  6 39  1  0
  6 40  1  0
  8  7  1  1
  7 41  1  0
  7 42  1  0
  8 11  1  0
  8  9  1  0
  9 10  1  0
  9 43  1  0
  9 44  1  0
 10 28  1  0
 10 11  1  0
 10 45  1  6
 11 12  1  0
 11 46  1  6
 12 13  1  0
 12 14  1  0
 12 47  1  6
 13 48  1  0
 14 25  1  0
 14 15  1  0
 14 49  1  1
 15 16  1  0
 15 23  1  0
 15 50  1  1
 16 17  1  0
 17 21  1  0
 17 18  2  0
 18 19  1  0
 18 51  1  0
 19 20  2  0
 19 52  1  0
 20 21  1  0
 20 53  1  0
 21 22  1  1
 22 54  1  0
 22 55  1  0
 22 56  1  0
 23 24  1  6
 23 25  1  0
 23 28  1  0
 24 57  1  0
 24 58  1  0
 24 59  1  0
 25 26  1  0
 25 27  1  0
 26 60  1  0
 26 61  1  0
 26 62  1  0
 27 63  1  0
 27 64  1  0
 27 65  1  0
 28 29  1  0
 28 30  1  0
 29 66  1  0
 29 67  1  0
 29 68  1  0
 30 69  1  0
 30 70  1  0
 30 71  1  0
M  CHG  1  28   1
M  END
>  <i_m_ct_stereo_status>  (157) 
1

>  <s_m_source_file>  (157) 
/var/tmp/pbs.5076255.sched01/tmpon41x2vr/43t03z2zi4.sdf

>  <i_m_source_file_index>  (157) 
27

>  <i_lp_mmshare_version>  (157) 
48012

>  <i_f3d_flags>  (157) 
0

>  <s_epik_input>  (157) 
W0NIMl0xW0NIMl1OKFtDSDNdKVtDQEBIXShbQ0BdMTIzKVtDQEBIXShbQ0gzXSlbQ0BdNChbQ0gzXSlDKD1bQ0hdW0NIXT1bQ0hdNClPW0NAQEhdNVtDQEBIXTZbQ0BIXShbT0hdKVtDQEhdM1tDQEhdKFtDSDJdMilbTitdKFtDSDNdKShbQ0gzXSlbQ0BAXTUoW0NIM10pQzYoW0NIM10pW0NIM10=

>  <s_epik_cmdline>  (157) 
J2VwaWtfcHl0aG9uJywgJy1waHQnLCAnMi4wJywgJy1waCcsICc3LjAnLCAnLXRuJywgJzgnLCAnLW1hJywgJzIwMCcsICctaW1hZScsICc8aW5maWxlLm1hZT4nLCAnLW9tYWUnLCAnPG91dGZpbGUubWFlPic=

>  <r_lp_tautomer_probability>  (157) 
1

>  <r_epik_Ionization_Penalty>  (157) 
1.48371

>  <r_epik_Ionization_Penalty_Charging>  (157) 
0

>  <r_epik_Ionization_Penalty_Neutral>  (157) 
1.48371

>  <r_epik_State_Penalty>  (157) 
1.57252

>  <r_epik_Charging_Adjusted_Penalty>  (157) 
1.57252

>  <i_epik_Tot_Q>  (157) 
1

>  <i_epik_Tot_abs_Q>  (157) 
1

>  <s_lp_Force_Field>  (157) 
OPLS3e

>  <r_lp_Energy>  (157) 
122.168

>  <b_lp_Chiralities_Consistent>  (157) 
1

>  <s_lp_Variant>  (157) 
42:0-2

>  <s_i_glide_gridfile>  (157) 
pfpi4k_grid

>  <i_i_glide_lignum>  (157) 
27

>  <i_i_glide_rotatable_bonds>  (157) 
1

>  <r_i_docking_score>  (157) 
-2.47162

>  <r_i_glide_ligand_efficiency>  (157) 
-0.0823872

>  <r_i_glide_ligand_efficiency_sa>  (157) 
-0.255996

>  <r_i_glide_ligand_efficiency_ln>  (157) 
-0.561578

>  <r_i_glide_gscore>  (157) 
-2.47162

>  <r_i_glide_lipo>  (157) 
-0.623784

>  <r_i_glide_hbond>  (157) 
-0.177772

>  <r_i_glide_metal>  (157) 
-0

>  <r_i_glide_rewards>  (157) 
-0.588982

>  <r_i_glide_evdw>  (157) 
-8.59848

>  <r_i_glide_ecoul>  (157) 
-4.1017

>  <r_i_glide_erotb>  (157) 
0

>  <r_i_glide_esite>  (157) 
-0.0358987

>  <r_i_glide_emodel>  (157) 
-14.6117

>  <r_i_glide_energy>  (157) 
-12.7002

>  <r_i_glide_einternal>  (157) 
0.423456

>  <r_i_glide_intrahb_reward>  (157) 
-0

>  <i_i_glide_confnum>  (157) 
1

>  <i_i_glide_posenum>  (157) 
1

>  <r_i_glide_eff_state_penalty>  (157) 
0

>  <ligand_id>  (157) 
42

>  <original_smiles>  (157) 
CC1C2N(C)CCC23CC2C3C(O)C3C(OC4=CC=CC41C)C(C)(C3(C)C)[N+]2(C)C

>  <smiles>  (157) 
[H]OC1([H])C2([H])C3([H])OC4=C([H])C([H])=C([H])C4(C([H])([H])[H])C([H])(C([H])([H])[H])C4([H])N(C([H])([H])[H])C([H])([H])C([H])([H])C45C([H])([H])C([H])(C15[H])[N+](C([H])([H])[H])(C([H])([H])[H])C3(C([H])([H])[H])C2(C([H])([H])[H])C([H])([H])[H]

$$$$
43:0:0
     RDKit          3D

 59 63  0  0  1  0  0  0  0  0999 V2000
    3.9618   -7.2513    2.4869 C   0  0  0  0  0  0  0  0  0  0  0  0
    4.6978   -6.0453    1.8468 C   0  0  1  0  0  0  0  0  0  0  0  0
    4.1587   -5.9103    0.3947 C   0  0  0  0  0  0  0  0  0  0  0  0
    5.0364   -5.2191   -0.6589 C   0  0  0  0  0  0  0  0  0  0  0  0
    5.3179   -3.6924   -0.7051 C   0  0  1  0  0  0  0  0  0  0  0  0
    4.2327   -2.7871   -1.3585 C   0  0  1  0  0  0  0  0  0  0  0  0
    3.3553   -3.4494   -2.4525 C   0  0  0  0  0  0  0  0  0  0  0  0
    2.4828   -2.4974   -3.2883 C   0  0  0  0  0  0  0  0  0  0  0  0
    3.2547   -1.5270   -4.0720 C   0  0  0  0  0  0  0  0  0  0  0  0
    3.8671   -0.7653   -4.6934 N   0  0  0  0  0  0  0  0  0  0  0  0
    3.4084   -2.0274   -0.3211 C   0  0  2  0  0  0  0  0  0  0  0  0
    4.2958   -1.2510    0.5945 C   0  0  0  0  0  0  0  0  0  0  0  0
    5.4619   -1.7360    1.0261 C   0  0  0  0  0  0  0  0  0  0  0  0
    5.9267   -1.2825    2.3905 C   0  0  0  0  0  0  0  0  0  0  0  0
    5.4783   -2.3779    3.4032 C   0  0  0  0  0  0  0  0  0  0  0  0
    5.6499   -3.8251    2.8616 C   0  0  1  0  0  0  0  0  0  0  0  0
    4.4246   -4.7820    2.7373 C   0  0  1  0  0  0  0  0  0  0  0  0
    2.9498   -4.2664    2.7293 C   0  0  0  0  0  0  0  0  0  0  0  0
    2.5721   -2.9637    2.0287 C   0  0  0  0  0  0  0  0  0  0  0  0
    2.2303   -1.9995    2.7120 O   0  0  0  0  0  0  0  0  0  0  0  0
    2.3975   -2.8899    0.5041 C   0  0  0  0  0  0  0  0  0  0  0  0
    6.5978   -3.8967    1.6506 C   0  0  1  0  0  0  0  0  0  0  0  0
    7.1799   -5.3073    1.4436 C   0  0  0  0  0  0  0  0  0  0  0  0
    6.2059   -6.4243    1.8729 C   0  0  0  0  0  0  0  0  0  0  0  0
    6.1665   -2.9930    0.4454 C   0  0  1  0  0  0  0  0  0  0  0  0
    7.4532   -2.4437   -0.2228 C   0  0  0  0  0  0  0  0  0  0  0  0
    4.1865   -8.1786    1.9582 H   0  0  0  0  0  0  0  0  0  0  0  0
    2.8804   -7.1246    2.4804 H   0  0  0  0  0  0  0  0  0  0  0  0
    4.2730   -7.3992    3.5228 H   0  0  0  0  0  0  0  0  0  0  0  0
    4.0779   -6.9314    0.0151 H   0  0  0  0  0  0  0  0  0  0  0  0
    3.1343   -5.5677    0.3674 H   0  0  0  0  0  0  0  0  0  0  0  0
    5.9542   -5.7750   -0.7208 H   0  0  0  0  0  0  0  0  0  0  0  0
    4.6183   -5.4835   -1.6100 H   0  0  0  0  0  0  0  0  0  0  0  0
    6.0130   -3.7295   -1.5452 H   0  0  0  0  0  0  0  0  0  0  0  0
    4.7882   -2.0047   -1.8844 H   0  0  0  0  0  0  0  0  0  0  0  0
    4.0004   -3.9843   -3.1524 H   0  0  0  0  0  0  0  0  0  0  0  0
    2.6885   -4.1738   -1.9871 H   0  0  0  0  0  0  0  0  0  0  0  0
    1.8639   -3.0681   -3.9836 H   0  0  0  0  0  0  0  0  0  0  0  0
    1.8095   -1.9390   -2.6488 H   0  0  0  0  0  0  0  0  0  0  0  0
    2.8592   -1.2633   -0.8576 H   0  0  0  0  0  0  0  0  0  0  0  0
    3.8021   -0.4448    1.1225 H   0  0  0  0  0  0  0  0  0  0  0  0
    7.0013   -1.1150    2.3561 H   0  0  0  0  0  0  0  0  0  0  0  0
    5.4721   -0.3215    2.6491 H   0  0  0  0  0  0  0  0  0  0  0  0
    6.0558   -2.2890    4.3163 H   0  0  0  0  0  0  0  0  0  0  0  0
    4.4744   -2.1867    3.7692 H   0  0  0  0  0  0  0  0  0  0  0  0
    6.2104   -4.3020    3.6543 H   0  0  0  0  0  0  0  0  0  0  0  0
    4.4183   -5.2001    3.7459 H   0  0  0  0  0  0  0  0  0  0  0  0
    2.2791   -5.0381    2.3495 H   0  0  0  0  0  0  0  0  0  0  0  0
    2.6529   -4.1161    3.7714 H   0  0  0  0  0  0  0  0  0  0  0  0
    1.4435   -2.3733    0.4976 H   0  0  0  0  0  0  0  0  0  0  0  0
    2.2135   -3.8650    0.0585 H   0  0  0  0  0  0  0  0  0  0  0  0
    7.4924   -3.4218    1.9939 H   0  0  0  0  0  0  0  0  0  0  0  0
    7.5806   -5.4300    0.4397 H   0  0  0  0  0  0  0  0  0  0  0  0
    8.0807   -5.4168    2.0573 H   0  0  0  0  0  0  0  0  0  0  0  0
    6.4668   -6.6733    2.9033 H   0  0  0  0  0  0  0  0  0  0  0  0
    6.4079   -7.3259    1.2946 H   0  0  0  0  0  0  0  0  0  0  0  0
    8.0849   -3.2327   -0.6310 H   0  0  0  0  0  0  0  0  0  0  0  0
    8.0695   -1.8654    0.4671 H   0  0  0  0  0  0  0  0  0  0  0  0
    7.1923   -1.7832   -1.0453 H   0  0  0  0  0  0  0  0  0  0  0  0
  2  1  1  1
  1 27  1  0
  1 28  1  0
  1 29  1  0
  2 17  1  0
  2 24  1  0
  2  3  1  0
  3  4  1  0
  3 30  1  0
  3 31  1  0
  4  5  1  0
  4 32  1  0
  4 33  1  0
  5 25  1  0
  5  6  1  0
  5 34  1  6
  6  7  1  0
  6 11  1  0
  6 35  1  6
  7  8  1  0
  7 36  1  0
  7 37  1  0
  8  9  1  0
  8 38  1  0
  8 39  1  0
  9 10  3  0
 11 21  1  0
 11 12  1  0
 11 40  1  6
 12 13  2  0
 12 41  1  0
 13 25  1  0
 13 14  1  0
 14 15  1  0
 14 42  1  0
 14 43  1  0
 15 16  1  0
 15 44  1  0
 15 45  1  0
 16 17  1  0
 16 22  1  0
 16 46  1  1
 17 18  1  0
 17 47  1  1
 18 19  1  0
 18 48  1  0
 18 49  1  0
 19 20  2  0
 19 21  1  0
 21 50  1  0
 21 51  1  0
 22 23  1  0
 22 25  1  0
 22 52  1  1
 23 24  1  0
 23 53  1  0
 23 54  1  0
 24 55  1  0
 24 56  1  0
 25 26  1  6
 26 57  1  0
 26 58  1  0
 26 59  1  0
M  END
>  <i_m_ct_stereo_status>  (158) 
1

>  <s_m_source_file>  (158) 
/var/tmp/pbs.5076255.sched01/tmpon41x2vr/43t03z2zi4.sdf

>  <i_m_source_file_index>  (158) 
28

>  <i_lp_mmshare_version>  (158) 
48012

>  <i_f3d_flags>  (158) 
0

>  <s_epik_input>  (158) 
W0NIM11bQ0BdMTJbQ0BIXTNbQ0BIXTRbQ0BASF0oW0NIMl1bQ0gyXTIpW0NAQF01KFtDSDNdKVtDSF0oW0NIMl1bQ0gyXTEpW0NAQEhdKFtDSDJdW0NIMl1DI04pW0NAQEhdKFtDSDJdQyg9TylbQ0gyXTMpW0NIXT1DNVtDSDJdW0NIMl00

>  <s_epik_cmdline>  (158) 
J2VwaWtfcHl0aG9uJywgJy1waHQnLCAnMi4wJywgJy1waCcsICc3LjAnLCAnLXRuJywgJzgnLCAnLW1hJywgJzIwMCcsICctaW1hZScsICc8aW5maWxlLm1hZT4nLCAnLW9tYWUnLCAnPG91dGZpbGUubWFlPic=

>  <r_lp_tautomer_probability>  (158) 
1

>  <r_epik_Ionization_Penalty>  (158) 
5.64424e-12

>  <r_epik_Ionization_Penalty_Charging>  (158) 
0

>  <r_epik_Ionization_Penalty_Neutral>  (158) 
5.64424e-12

>  <r_epik_State_Penalty>  (158) 
-0

>  <r_epik_Charging_Adjusted_Penalty>  (158) 
0

>  <i_epik_Tot_Q>  (158) 
0

>  <i_epik_Tot_abs_Q>  (158) 
0

>  <s_lp_Force_Field>  (158) 
OPLS3e

>  <r_lp_Energy>  (158) 
109.325

>  <b_lp_Chiralities_Consistent>  (158) 
1

>  <s_lp_Variant>  (158) 
43:0-1

>  <s_i_glide_gridfile>  (158) 
pfpi4k_grid

>  <i_i_glide_lignum>  (158) 
28

>  <i_i_glide_rotatable_bonds>  (158) 
3

>  <r_i_docking_score>  (158) 
-2.89174

>  <r_i_glide_ligand_efficiency>  (158) 
-0.111221

>  <r_i_glide_ligand_efficiency_sa>  (158) 
-0.329491

>  <r_i_glide_ligand_efficiency_ln>  (158) 
-0.679115

>  <r_i_glide_gscore>  (158) 
-2.89174

>  <r_i_glide_lipo>  (158) 
-0.915338

>  <r_i_glide_hbond>  (158) 
-0.176288

>  <r_i_glide_metal>  (158) 
-0

>  <r_i_glide_rewards>  (158) 
-1.061

>  <r_i_glide_evdw>  (158) 
-12.1413

>  <r_i_glide_ecoul>  (158) 
-2.8755

>  <r_i_glide_erotb>  (158) 
0.308715

>  <r_i_glide_esite>  (158) 
-0.00943854

>  <r_i_glide_emodel>  (158) 
-14.8534

>  <r_i_glide_energy>  (158) 
-15.0168

>  <r_i_glide_einternal>  (158) 
0.0369161

>  <r_i_glide_intrahb_reward>  (158) 
-0

>  <i_i_glide_confnum>  (158) 
5

>  <i_i_glide_posenum>  (158) 
26

>  <r_i_glide_eff_state_penalty>  (158) 
0

>  <ligand_id>  (158) 
43

>  <original_smiles>  (158) 
CC12CCC3C(CCC#N)C4C=C5CCC(C1CC(=O)C4)C(CC2)C53C

>  <smiles>  (158) 
[H]C1=C2C([H])([H])C([H])([H])C3([H])C4([H])C([H])([H])C([H])([H])C5(C([H])([H])[H])C([H])([H])C([H])([H])C([H])(C([H])(C([H])([H])C([H])([H])C#N)C1([H])C([H])([H])C(=O)C([H])([H])C35[H])C24C([H])([H])[H]

$$$$
43:0:1
     RDKit          3D

 59 63  0  0  1  0  0  0  0  0999 V2000
    8.5905   -3.6297   -0.3781 C   0  0  0  0  0  0  0  0  0  0  0  0
    7.0521   -3.5395   -0.5696 C   0  0  1  0  0  0  0  0  0  0  0  0
    6.4409   -4.8408    0.0276 C   0  0  0  0  0  0  0  0  0  0  0  0
    5.0786   -5.3386   -0.4887 C   0  0  0  0  0  0  0  0  0  0  0  0
    3.7756   -4.6189   -0.0775 C   0  0  1  0  0  0  0  0  0  0  0  0
    3.1878   -4.9721    1.3235 C   0  0  1  0  0  0  0  0  0  0  0  0
    3.4651   -6.4061    1.8938 C   0  0  0  0  0  0  0  0  0  0  0  0
    2.5507   -7.5176    1.3493 C   0  0  0  0  0  0  0  0  0  0  0  0
    1.2080   -7.0554    0.9429 C   0  0  0  0  0  0  0  0  0  0  0  0
    0.1475   -6.6963    0.6322 N   0  0  0  0  0  0  0  0  0  0  0  0
    3.3315   -3.8982    2.3919 C   0  0  2  0  0  0  0  0  0  0  0  0
    2.8121   -2.6017    1.8525 C   0  0  0  0  0  0  0  0  0  0  0  0
    2.9986   -2.2463    0.5888 C   0  0  0  0  0  0  0  0  0  0  0  0
    3.1134   -0.7834    0.3162 C   0  0  0  0  0  0  0  0  0  0  0  0
    4.5994   -0.4260    0.2518 C   0  0  0  0  0  0  0  0  0  0  0  0
    5.4292   -1.4639   -0.5509 C   0  0  1  0  0  0  0  0  0  0  0  0
    6.5524   -2.2455    0.1746 C   0  0  1  0  0  0  0  0  0  0  0  0
    6.6271   -2.3158    1.7296 C   0  0  0  0  0  0  0  0  0  0  0  0
    5.4395   -2.4026    2.6991 C   0  0  0  0  0  0  0  0  0  0  0  0
    5.1024   -1.4165    3.3575 O   0  0  0  0  0  0  0  0  0  0  0  0
    4.7488   -3.7401    2.9708 C   0  0  0  0  0  0  0  0  0  0  0  0
    4.5388   -2.3725   -1.4185 C   0  0  1  0  0  0  0  0  0  0  0  0
    5.3495   -3.0769   -2.5199 C   0  0  0  0  0  0  0  0  0  0  0  0
    6.8040   -3.3376   -2.1104 C   0  0  0  0  0  0  0  0  0  0  0  0
    3.4457   -3.1588   -0.6003 C   0  0  1  0  0  0  0  0  0  0  0  0
    2.2208   -3.2704   -1.5597 C   0  0  0  0  0  0  0  0  0  0  0  0
    9.0034   -4.4612   -0.9453 H   0  0  0  0  0  0  0  0  0  0  0  0
    8.8836   -3.7712    0.6644 H   0  0  0  0  0  0  0  0  0  0  0  0
    9.0971   -2.7320   -0.7253 H   0  0  0  0  0  0  0  0  0  0  0  0
    7.1358   -5.6403   -0.2055 H   0  0  0  0  0  0  0  0  0  0  0  0
    6.5093   -4.8631    1.1112 H   0  0  0  0  0  0  0  0  0  0  0  0
    5.0898   -5.4289   -1.5691 H   0  0  0  0  0  0  0  0  0  0  0  0
    4.9874   -6.3856   -0.1956 H   0  0  0  0  0  0  0  0  0  0  0  0
    3.1053   -5.2199   -0.6834 H   0  0  0  0  0  0  0  0  0  0  0  0
    2.1121   -4.8751    1.1624 H   0  0  0  0  0  0  0  0  0  0  0  0
    4.5182   -6.7066    1.7630 H   0  0  0  0  0  0  0  0  0  0  0  0
    3.3066   -6.3723    2.9750 H   0  0  0  0  0  0  0  0  0  0  0  0
    3.0604   -8.0285    0.5399 H   0  0  0  0  0  0  0  0  0  0  0  0
    2.3950   -8.2866    2.1115 H   0  0  0  0  0  0  0  0  0  0  0  0
    2.6618   -4.1441    3.2028 H   0  0  0  0  0  0  0  0  0  0  0  0
    2.6129   -1.8336    2.5928 H   0  0  0  0  0  0  0  0  0  0  0  0
    2.6124   -0.6944   -0.6560 H   0  0  0  0  0  0  0  0  0  0  0  0
    2.6024   -0.1512    1.0482 H   0  0  0  0  0  0  0  0  0  0  0  0
    4.5977    0.5232   -0.2878 H   0  0  0  0  0  0  0  0  0  0  0  0
    5.0447   -0.1665    1.2175 H   0  0  0  0  0  0  0  0  0  0  0  0
    5.9386   -0.8670   -1.2974 H   0  0  0  0  0  0  0  0  0  0  0  0
    7.3733   -1.5344    0.0150 H   0  0  0  0  0  0  0  0  0  0  0  0
    7.4018   -3.0491    1.9657 H   0  0  0  0  0  0  0  0  0  0  0  0
    7.0074   -1.3407    1.9969 H   0  0  0  0  0  0  0  0  0  0  0  0
    4.6728   -3.8093    4.0530 H   0  0  0  0  0  0  0  0  0  0  0  0
    5.3819   -4.5691    2.6883 H   0  0  0  0  0  0  0  0  0  0  0  0
    3.9791   -1.6650   -2.0181 H   0  0  0  0  0  0  0  0  0  0  0  0
    4.8359   -3.9629   -2.8669 H   0  0  0  0  0  0  0  0  0  0  0  0
    5.3869   -2.4422   -3.4167 H   0  0  0  0  0  0  0  0  0  0  0  0
    7.3953   -2.4713   -2.3910 H   0  0  0  0  0  0  0  0  0  0  0  0
    7.1956   -4.0935   -2.7688 H   0  0  0  0  0  0  0  0  0  0  0  0
    2.4290   -3.8892   -2.4285 H   0  0  0  0  0  0  0  0  0  0  0  0
    1.9074   -2.3187   -1.9844 H   0  0  0  0  0  0  0  0  0  0  0  0
    1.3637   -3.6922   -1.0434 H   0  0  0  0  0  0  0  0  0  0  0  0
  2  1  1  6
  1 27  1  0
  1 28  1  0
  1 29  1  0
  2 17  1  0
  2 24  1  0
  2  3  1  0
  3  4  1  0
  3 30  1  0
  3 31  1  0
  4  5  1  0
  4 32  1  0
  4 33  1  0
  5 25  1  0
  5  6  1  0
  5 34  1  6
  6  7  1  0
  6 11  1  0
  6 35  1  6
  7  8  1  0
  7 36  1  0
  7 37  1  0
  8  9  1  0
  8 38  1  0
  8 39  1  0
  9 10  3  0
 11 21  1  0
 11 12  1  0
 11 40  1  1
 12 13  2  0
 12 41  1  0
 13 25  1  0
 13 14  1  0
 14 15  1  0
 14 42  1  0
 14 43  1  0
 15 16  1  0
 15 44  1  0
 15 45  1  0
 16 17  1  0
 16 22  1  0
 16 46  1  6
 17 18  1  0
 17 47  1  6
 18 19  1  0
 18 48  1  0
 18 49  1  0
 19 20  2  0
 19 21  1  0
 21 50  1  0
 21 51  1  0
 22 23  1  0
 22 25  1  0
 22 52  1  6
 23 24  1  0
 23 53  1  0
 23 54  1  0
 24 55  1  0
 24 56  1  0
 25 26  1  6
 26 57  1  0
 26 58  1  0
 26 59  1  0
M  END
>  <i_m_ct_stereo_status>  (159) 
1

>  <s_m_source_file>  (159) 
/var/tmp/pbs.5076255.sched01/tmpon41x2vr/43t03z2zi4.sdf

>  <i_m_source_file_index>  (159) 
28

>  <i_lp_mmshare_version>  (159) 
48012

>  <i_f3d_flags>  (159) 
0

>  <s_epik_input>  (159) 
W0NIM11bQ0BdMTJbQ0BIXTNbQ0BIXTRbQ0BASF0oW0NIMl1bQ0gyXTIpW0NAQF01KFtDSDNdKVtDSF0oW0NIMl1bQ0gyXTEpW0NAQEhdKFtDSDJdW0NIMl1DI04pW0NAQEhdKFtDSDJdQyg9TylbQ0gyXTMpW0NIXT1DNVtDSDJdW0NIMl00

>  <s_epik_cmdline>  (159) 
J2VwaWtfcHl0aG9uJywgJy1waHQnLCAnMi4wJywgJy1waCcsICc3LjAnLCAnLXRuJywgJzgnLCAnLW1hJywgJzIwMCcsICctaW1hZScsICc8aW5maWxlLm1hZT4nLCAnLW9tYWUnLCAnPG91dGZpbGUubWFlPic=

>  <r_lp_tautomer_probability>  (159) 
1

>  <r_epik_Ionization_Penalty>  (159) 
5.64424e-12

>  <r_epik_Ionization_Penalty_Charging>  (159) 
0

>  <r_epik_Ionization_Penalty_Neutral>  (159) 
5.64424e-12

>  <r_epik_State_Penalty>  (159) 
-0

>  <r_epik_Charging_Adjusted_Penalty>  (159) 
0

>  <i_epik_Tot_Q>  (159) 
0

>  <i_epik_Tot_abs_Q>  (159) 
0

>  <s_lp_Force_Field>  (159) 
OPLS3e

>  <r_lp_Energy>  (159) 
109.325

>  <b_lp_Chiralities_Consistent>  (159) 
1

>  <s_lp_Variant>  (159) 
43:0-1

>  <s_i_glide_gridfile>  (159) 
pfpi4k_grid

>  <i_i_glide_lignum>  (159) 
28

>  <i_i_glide_rotatable_bonds>  (159) 
3

>  <r_i_docking_score>  (159) 
-2.6871

>  <r_i_glide_ligand_efficiency>  (159) 
-0.10335

>  <r_i_glide_ligand_efficiency_sa>  (159) 
-0.306174

>  <r_i_glide_ligand_efficiency_ln>  (159) 
-0.631057

>  <r_i_glide_gscore>  (159) 
-2.6871

>  <r_i_glide_lipo>  (159) 
-0.831565

>  <r_i_glide_hbond>  (159) 
-0.174817

>  <r_i_glide_metal>  (159) 
-0

>  <r_i_glide_rewards>  (159) 
-1.07123

>  <r_i_glide_evdw>  (159) 
-7.09856

>  <r_i_glide_ecoul>  (159) 
-3.38131

>  <r_i_glide_erotb>  (159) 
0.308715

>  <r_i_glide_esite>  (159) 
-0.0560766

>  <r_i_glide_emodel>  (159) 
-5.86369

>  <r_i_glide_energy>  (159) 
-10.4799

>  <r_i_glide_einternal>  (159) 
5.76272

>  <r_i_glide_intrahb_reward>  (159) 
-0

>  <i_i_glide_confnum>  (159) 
3

>  <i_i_glide_posenum>  (159) 
2

>  <r_i_glide_eff_state_penalty>  (159) 
0

>  <ligand_id>  (159) 
43

>  <original_smiles>  (159) 
CC12CCC3C(CCC#N)C4C=C5CCC(C1CC(=O)C4)C(CC2)C53C

>  <smiles>  (159) 
[H]C1=C2C([H])([H])C([H])([H])C3([H])C4([H])C([H])([H])C([H])([H])C5(C([H])([H])[H])C([H])([H])C([H])([H])C([H])(C([H])(C([H])([H])C([H])([H])C#N)C1([H])C([H])([H])C(=O)C([H])([H])C35[H])C24C([H])([H])[H]

$$$$
43:0:2
     RDKit          3D

 59 63  0  0  1  0  0  0  0  0999 V2000
    2.7315   -4.2217    3.6413 C   0  0  0  0  0  0  0  0  0  0  0  0
    3.8149   -4.0322    2.5450 C   0  0  1  0  0  0  0  0  0  0  0  0
    3.1664   -4.3802    1.1816 C   0  0  0  0  0  0  0  0  0  0  0  0
    4.0569   -4.8355    0.0062 C   0  0  0  0  0  0  0  0  0  0  0  0
    4.9951   -3.8649   -0.7746 C   0  0  1  0  0  0  0  0  0  0  0  0
    4.3266   -2.9353   -1.8524 C   0  0  1  0  0  0  0  0  0  0  0  0
    3.0670   -3.4633   -2.5992 C   0  0  0  0  0  0  0  0  0  0  0  0
    2.2095   -2.4675   -3.3769 C   0  0  0  0  0  0  0  0  0  0  0  0
    2.9433   -1.4978   -4.1739 C   0  0  0  0  0  0  0  0  0  0  0  0
    3.5380   -0.7133   -4.8056 N   0  0  0  0  0  0  0  0  0  0  0  0
    4.1987   -1.4995   -1.3840 C   0  0  2  0  0  0  0  0  0  0  0  0
    5.4884   -0.9718   -0.9055 C   0  0  0  0  0  0  0  0  0  0  0  0
    6.3347   -1.7273   -0.2044 C   0  0  0  0  0  0  0  0  0  0  0  0
    7.2180   -0.9822    0.7445 C   0  0  0  0  0  0  0  0  0  0  0  0
    6.5254   -0.9989    2.1245 C   0  0  0  0  0  0  0  0  0  0  0  0
    5.8797   -2.3942    2.4188 C   0  0  1  0  0  0  0  0  0  0  0  0
    4.3332   -2.5521    2.6494 C   0  0  1  0  0  0  0  0  0  0  0  0
    3.2865   -1.4546    2.2673 C   0  0  0  0  0  0  0  0  0  0  0  0
    3.4555   -0.6390    0.9989 C   0  0  0  0  0  0  0  0  0  0  0  0
    3.8034    0.5450    1.0810 O   0  0  0  0  0  0  0  0  0  0  0  0
    3.1213   -1.2366   -0.3589 C   0  0  0  0  0  0  0  0  0  0  0  0
    6.4589   -3.5036    1.5037 C   0  0  1  0  0  0  0  0  0  0  0  0
    6.2403   -4.9155    2.0665 C   0  0  0  0  0  0  0  0  0  0  0  0
    4.9514   -5.0302    2.9021 C   0  0  0  0  0  0  0  0  0  0  0  0
    6.2651   -3.2269   -0.0350 C   0  0  1  0  0  0  0  0  0  0  0  0
    7.5498   -3.6739   -0.7614 C   0  0  0  0  0  0  0  0  0  0  0  0
    2.3821   -5.2533    3.6812 H   0  0  0  0  0  0  0  0  0  0  0  0
    1.8587   -3.5885    3.4814 H   0  0  0  0  0  0  0  0  0  0  0  0
    3.1177   -3.9910    4.6364 H   0  0  0  0  0  0  0  0  0  0  0  0
    2.5154   -5.2375    1.3696 H   0  0  0  0  0  0  0  0  0  0  0  0
    2.4660   -3.6145    0.8790 H   0  0  0  0  0  0  0  0  0  0  0  0
    4.5892   -5.7397    0.2840 H   0  0  0  0  0  0  0  0  0  0  0  0
    3.3701   -5.2862   -0.7137 H   0  0  0  0  0  0  0  0  0  0  0  0
    5.4341   -4.6110   -1.4330 H   0  0  0  0  0  0  0  0  0  0  0  0
    5.0668   -2.8677   -2.6475 H   0  0  0  0  0  0  0  0  0  0  0  0
    3.4025   -4.2175   -3.3080 H   0  0  0  0  0  0  0  0  0  0  0  0
    2.3630   -3.9342   -1.9155 H   0  0  0  0  0  0  0  0  0  0  0  0
    1.4827   -2.9957   -4.0023 H   0  0  0  0  0  0  0  0  0  0  0  0
    1.6323   -1.9349   -2.6315 H   0  0  0  0  0  0  0  0  0  0  0  0
    4.0421   -0.8044   -2.2076 H   0  0  0  0  0  0  0  0  0  0  0  0
    5.5490    0.0757   -0.8856 H   0  0  0  0  0  0  0  0  0  0  0  0
    8.2288   -1.3893    0.7663 H   0  0  0  0  0  0  0  0  0  0  0  0
    7.2720    0.0233    0.3527 H   0  0  0  0  0  0  0  0  0  0  0  0
    7.2565   -0.6486    2.8563 H   0  0  0  0  0  0  0  0  0  0  0  0
    5.7945   -0.2092    2.2234 H   0  0  0  0  0  0  0  0  0  0  0  0
    6.2555   -2.6459    3.3798 H   0  0  0  0  0  0  0  0  0  0  0  0
    4.2979   -2.3620    3.7212 H   0  0  0  0  0  0  0  0  0  0  0  0
    2.2669   -1.8522    2.2740 H   0  0  0  0  0  0  0  0  0  0  0  0
    3.3095   -0.6992    3.0543 H   0  0  0  0  0  0  0  0  0  0  0  0
    2.6281   -0.3914   -0.8234 H   0  0  0  0  0  0  0  0  0  0  0  0
    2.3823   -2.0420   -0.3109 H   0  0  0  0  0  0  0  0  0  0  0  0
    7.5297   -3.4078    1.6473 H   0  0  0  0  0  0  0  0  0  0  0  0
    6.3279   -5.6675    1.2883 H   0  0  0  0  0  0  0  0  0  0  0  0
    7.0741   -5.1703    2.7294 H   0  0  0  0  0  0  0  0  0  0  0  0
    5.2405   -4.8480    3.9369 H   0  0  0  0  0  0  0  0  0  0  0  0
    4.5866   -6.0577    2.8794 H   0  0  0  0  0  0  0  0  0  0  0  0
    7.7146   -4.7040   -0.5133 H   0  0  0  0  0  0  0  0  0  0  0  0
    8.4701   -3.2006   -0.4127 H   0  0  0  0  0  0  0  0  0  0  0  0
    7.4935   -3.5112   -1.8447 H   0  0  0  0  0  0  0  0  0  0  0  0
  2  1  1  1
  1 27  1  0
  1 28  1  0
  1 29  1  0
  2 17  1  0
  2 24  1  0
  2  3  1  0
  3  4  1  0
  3 30  1  0
  3 31  1  0
  4  5  1  0
  4 32  1  0
  4 33  1  0
  5 25  1  0
  5  6  1  0
  5 34  1  6
  6  7  1  0
  6 11  1  0
  6 35  1  6
  7  8  1  0
  7 36  1  0
  7 37  1  0
  8  9  1  0
  8 38  1  0
  8 39  1  0
  9 10  3  0
 11 21  1  0
 11 12  1  0
 11 40  1  6
 12 13  2  0
 12 41  1  0
 13 25  1  0
 13 14  1  0
 14 15  1  0
 14 42  1  0
 14 43  1  0
 15 16  1  0
 15 44  1  0
 15 45  1  0
 16 17  1  0
 16 22  1  0
 16 46  1  1
 17 18  1  0
 17 47  1  1
 18 19  1  0
 18 48  1  0
 18 49  1  0
 19 20  2  0
 19 21  1  0
 21 50  1  0
 21 51  1  0
 22 23  1  0
 22 25  1  0
 22 52  1  6
 23 24  1  0
 23 53  1  0
 23 54  1  0
 24 55  1  0
 24 56  1  0
 25 26  1  6
 26 57  1  0
 26 58  1  0
 26 59  1  0
M  END
>  <i_m_ct_stereo_status>  (160) 
1

>  <s_m_source_file>  (160) 
/var/tmp/pbs.5076255.sched01/tmpon41x2vr/43t03z2zi4.sdf

>  <i_m_source_file_index>  (160) 
28

>  <i_lp_mmshare_version>  (160) 
48012

>  <i_f3d_flags>  (160) 
0

>  <s_epik_input>  (160) 
W0NIM11bQ0BdMTJbQ0BIXTNbQ0BIXTRbQ0BASF0oW0NIMl1bQ0gyXTIpW0NAQF01KFtDSDNdKVtDSF0oW0NIMl1bQ0gyXTEpW0NAQEhdKFtDSDJdW0NIMl1DI04pW0NAQEhdKFtDSDJdQyg9TylbQ0gyXTMpW0NIXT1DNVtDSDJdW0NIMl00

>  <s_epik_cmdline>  (160) 
J2VwaWtfcHl0aG9uJywgJy1waHQnLCAnMi4wJywgJy1waCcsICc3LjAnLCAnLXRuJywgJzgnLCAnLW1hJywgJzIwMCcsICctaW1hZScsICc8aW5maWxlLm1hZT4nLCAnLW9tYWUnLCAnPG91dGZpbGUubWFlPic=

>  <r_lp_tautomer_probability>  (160) 
1

>  <r_epik_Ionization_Penalty>  (160) 
5.64424e-12

>  <r_epik_Ionization_Penalty_Charging>  (160) 
0

>  <r_epik_Ionization_Penalty_Neutral>  (160) 
5.64424e-12

>  <r_epik_State_Penalty>  (160) 
-0

>  <r_epik_Charging_Adjusted_Penalty>  (160) 
0

>  <i_epik_Tot_Q>  (160) 
0

>  <i_epik_Tot_abs_Q>  (160) 
0

>  <s_lp_Force_Field>  (160) 
OPLS3e

>  <r_lp_Energy>  (160) 
109.325

>  <b_lp_Chiralities_Consistent>  (160) 
1

>  <s_lp_Variant>  (160) 
43:0-1

>  <s_i_glide_gridfile>  (160) 
pfpi4k_grid

>  <i_i_glide_lignum>  (160) 
28

>  <i_i_glide_rotatable_bonds>  (160) 
3

>  <r_i_docking_score>  (160) 
-2.24486

>  <r_i_glide_ligand_efficiency>  (160) 
-0.0863408

>  <r_i_glide_ligand_efficiency_sa>  (160) 
-0.255784

>  <r_i_glide_ligand_efficiency_ln>  (160) 
-0.527198

>  <r_i_glide_gscore>  (160) 
-2.24486

>  <r_i_glide_lipo>  (160) 
-0.617763

>  <r_i_glide_hbond>  (160) 
-0.144282

>  <r_i_glide_metal>  (160) 
-0

>  <r_i_glide_rewards>  (160) 
-1.01233

>  <r_i_glide_evdw>  (160) 
-0.602719

>  <r_i_glide_ecoul>  (160) 
-4.78351

>  <r_i_glide_erotb>  (160) 
0.308715

>  <r_i_glide_esite>  (160) 
-0.0315394

>  <r_i_glide_emodel>  (160) 
-0.47744

>  <r_i_glide_energy>  (160) 
-5.38623

>  <r_i_glide_einternal>  (160) 
4.53815

>  <r_i_glide_intrahb_reward>  (160) 
-0

>  <i_i_glide_confnum>  (160) 
1

>  <i_i_glide_posenum>  (160) 
19

>  <r_i_glide_eff_state_penalty>  (160) 
0

>  <ligand_id>  (160) 
43

>  <original_smiles>  (160) 
CC12CCC3C(CCC#N)C4C=C5CCC(C1CC(=O)C4)C(CC2)C53C

>  <smiles>  (160) 
[H]C1=C2C([H])([H])C([H])([H])C3([H])C4([H])C([H])([H])C([H])([H])C5(C([H])([H])[H])C([H])([H])C([H])([H])C([H])(C([H])(C([H])([H])C([H])([H])C#N)C1([H])C([H])([H])C(=O)C([H])([H])C35[H])C24C([H])([H])[H]

$$$$
45:0:0
     RDKit          3D

 64 68  0  0  1  0  0  0  0  0999 V2000
    3.6920   -9.6805    2.0026 C   0  0  0  0  0  0  0  0  0  0  0  0
    4.0385   -8.2089    2.2682 C   0  0  0  0  0  0  0  0  0  0  0  0
    5.1166   -7.6630    1.3250 C   0  0  0  0  0  0  0  0  0  0  0  0
    5.3646   -6.1883    1.4894 N   0  0  1  0  0  0  0  0  0  0  0  0
    6.7442   -5.9023    0.9867 C   0  0  0  0  0  0  0  0  0  0  0  0
    7.3171   -4.4722    1.0276 C   0  0  0  0  0  0  0  0  0  0  0  0
    6.4099   -3.2331    0.7010 C   0  0  2  0  0  0  0  0  0  0  0  0
    7.2282   -2.1686    0.2621 O   0  0  0  0  0  0  0  0  0  0  0  0
    8.6179   -2.3537   -0.0072 C   0  0  0  0  0  0  0  0  0  0  0  0
    5.8307   -2.7658    1.8948 O   0  0  0  0  0  0  0  0  0  0  0  0
    4.8276   -3.4494    2.6405 C   0  0  2  0  0  0  0  0  0  0  0  0
    5.2325   -4.2239    3.9096 C   0  0  0  0  0  0  0  0  0  0  0  0
    3.9743   -5.0104    4.1753 C   0  0  0  0  0  0  0  0  0  0  0  0
    3.6603   -5.7035    5.3531 C   0  0  0  0  0  0  0  0  0  0  0  0
    2.4347   -6.3901    5.4185 C   0  0  0  0  0  0  0  0  0  0  0  0
    1.5352   -6.3698    4.3255 C   0  0  0  0  0  0  0  0  0  0  0  0
    0.3478   -7.0306    4.4395 O   0  0  0  0  0  0  0  0  0  0  0  0
    1.8674   -5.6804    3.1357 C   0  0  0  0  0  0  0  0  0  0  0  0
    1.0152   -5.6688    2.0512 O   0  0  0  0  0  0  0  0  0  0  0  0
    0.8130   -6.9112    1.3787 C   0  0  0  0  0  0  0  0  0  0  0  0
    3.1043   -4.9930    3.0812 C   0  0  0  0  0  0  0  0  0  0  0  0
    3.7241   -4.2427    1.9017 C   0  0  1  0  0  0  0  0  0  0  0  0
    2.7573   -3.2344    1.2181 C   0  0  0  0  0  0  0  0  0  0  0  0
    3.4281   -2.0342    0.4849 C   0  0  0  0  0  0  0  0  0  0  0  0
    4.3386   -2.3176   -0.6327 N   0  0  0  0  0  0  0  0  0  0  0  0
    4.8765   -1.0932   -1.2101 C   0  0  0  0  0  0  0  0  0  0  0  0
    5.3406   -3.3854   -0.4496 C   0  0  2  0  0  0  0  0  0  0  0  0
    4.6439   -4.7474   -0.4710 C   0  0  0  0  0  0  0  0  0  0  0  0
    4.2797   -5.3103    0.9031 C   0  0  1  0  0  0  0  0  0  0  0  0
    2.8804   -9.9871    2.6627 H   0  0  0  0  0  0  0  0  0  0  0  0
    4.5423  -10.3433    2.1818 H   0  0  0  0  0  0  0  0  0  0  0  0
    3.3476   -9.8396    0.9765 H   0  0  0  0  0  0  0  0  0  0  0  0
    3.1344   -7.6351    2.1229 H   0  0  0  0  0  0  0  0  0  0  0  0
    4.3437   -8.0685    3.3121 H   0  0  0  0  0  0  0  0  0  0  0  0
    6.0352   -8.2041    1.5661 H   0  0  0  0  0  0  0  0  0  0  0  0
    4.9010   -7.8920    0.2777 H   0  0  0  0  0  0  0  0  0  0  0  0
    7.4174   -6.5314    1.5722 H   0  0  0  0  0  0  0  0  0  0  0  0
    6.8389   -6.2601   -0.0278 H   0  0  0  0  0  0  0  0  0  0  0  0
    7.7520   -4.3059    2.0074 H   0  0  0  0  0  0  0  0  0  0  0  0
    8.1742   -4.5090    0.3757 H   0  0  0  0  0  0  0  0  0  0  0  0
    9.0155   -1.4057   -0.2889 H   0  0  0  0  0  0  0  0  0  0  0  0
    8.7588   -3.0635   -0.8393 H   0  0  0  0  0  0  0  0  0  0  0  0
    9.1785   -2.7302    0.8643 H   0  0  0  0  0  0  0  0  0  0  0  0
    4.3001   -2.6025    3.0871 H   0  0  0  0  0  0  0  0  0  0  0  0
    6.0609   -4.9075    3.7321 H   0  0  0  0  0  0  0  0  0  0  0  0
    5.4968   -3.5700    4.7416 H   0  0  0  0  0  0  0  0  0  0  0  0
    4.3349   -5.7098    6.1961 H   0  0  0  0  0  0  0  0  0  0  0  0
    2.1702   -6.9258    6.3162 H   0  0  0  0  0  0  0  0  0  0  0  0
    0.3203   -7.6379    5.1652 H   0  0  0  0  0  0  0  0  0  0  0  0
   -0.0953   -6.8833    0.7708 H   0  0  0  0  0  0  0  0  0  0  0  0
    0.7495   -7.7684    2.0508 H   0  0  0  0  0  0  0  0  0  0  0  0
    1.6365   -7.0960    0.6912 H   0  0  0  0  0  0  0  0  0  0  0  0
    2.0635   -3.7450    0.5528 H   0  0  0  0  0  0  0  0  0  0  0  0
    2.1356   -2.7833    1.9962 H   0  0  0  0  0  0  0  0  0  0  0  0
    2.6194   -1.4055    0.1053 H   0  0  0  0  0  0  0  0  0  0  0  0
    3.9325   -1.3864    1.1990 H   0  0  0  0  0  0  0  0  0  0  0  0
    5.4946   -1.3048   -2.0805 H   0  0  0  0  0  0  0  0  0  0  0  0
    5.4779   -0.5568   -0.4816 H   0  0  0  0  0  0  0  0  0  0  0  0
    4.0820   -0.4248   -1.5442 H   0  0  0  0  0  0  0  0  0  0  0  0
    5.9346   -3.4023   -1.3662 H   0  0  0  0  0  0  0  0  0  0  0  0
    3.7144   -4.6395   -1.0295 H   0  0  0  0  0  0  0  0  0  0  0  0
    5.2007   -5.4576   -1.0812 H   0  0  0  0  0  0  0  0  0  0  0  0
    3.4440   -5.9639    0.6734 H   0  0  0  0  0  0  0  0  0  0  0  0
    5.3563   -6.0137    2.4917 H   0  0  0  0  0  0  0  0  0  0  0  0
  1  2  1  0
  1 30  1  0
  1 31  1  0
  1 32  1  0
  2  3  1  0
  2 33  1  0
  2 34  1  0
  3  4  1  0
  3 35  1  0
  3 36  1  0
  4 29  1  0
  4  5  1  0
  4 64  1  1
  5  6  1  0
  5 37  1  0
  5 38  1  0
  6  7  1  0
  6 39  1  0
  6 40  1  0
  7 27  1  0
  7  8  1  6
  7 10  1  0
  8  9  1  0
  9 41  1  0
  9 42  1  0
  9 43  1  0
 10 11  1  0
 11 22  1  0
 11 12  1  0
 11 44  1  1
 12 13  1  0
 12 45  1  0
 12 46  1  0
 13 21  2  0
 13 14  1  0
 14 15  2  0
 14 47  1  0
 15 16  1  0
 15 48  1  0
 16 17  1  0
 16 18  2  0
 17 49  1  0
 18 19  1  0
 18 21  1  0
 19 20  1  0
 20 50  1  0
 20 51  1  0
 20 52  1  0
 21 22  1  0
 22 29  1  0
 22 23  1  6
 23 24  1  0
 23 53  1  0
 23 54  1  0
 24 25  1  0
 24 55  1  0
 24 56  1  0
 25 26  1  0
 25 27  1  0
 26 57  1  0
 26 58  1  0
 26 59  1  0
 27 28  1  0
 27 60  1  6
 28 29  1  0
 28 61  1  0
 28 62  1  0
 29 63  1  6
M  CHG  1   4   1
M  END
>  <i_m_ct_stereo_status>  (161) 
1

>  <s_m_source_file>  (161) 
/var/tmp/pbs.5076255.sched01/tmpon41x2vr/43t03z2zi4.sdf

>  <i_m_source_file_index>  (161) 
30

>  <i_lp_mmshare_version>  (161) 
48012

>  <i_f3d_flags>  (161) 
0

>  <s_epik_input>  (161) 
W0NIM11bQ0gyXVtDSDJdTihbQ0gyXVtDSDJdMSlbQ0BASF0yW0NIMl1bQ0BASF0oTihbQ0gzXSlbQ0gyXVtDSDJdMylbQ0BAXTEoT1tDSDNdKU9bQ0BASF0oW0NAXTIzNClbQ0gyXWM1YzRjKE9bQ0gzXSljKFtPSF0pW2NIXVtjSF01

>  <s_epik_cmdline>  (161) 
J2VwaWtfcHl0aG9uJywgJy1waHQnLCAnMi4wJywgJy1waCcsICc3LjAnLCAnLXRuJywgJzgnLCAnLW1hJywgJzIwMCcsICctaW1hZScsICc8aW5maWxlLm1hZT4nLCAnLW9tYWUnLCAnPG91dGZpbGUubWFlPic=

>  <r_lp_tautomer_probability>  (161) 
1

>  <r_epik_Ionization_Penalty>  (161) 
0.0898429

>  <r_epik_Ionization_Penalty_Charging>  (161) 
0.0220587

>  <r_epik_Ionization_Penalty_Neutral>  (161) 
0.0677843

>  <r_epik_State_Penalty>  (161) 
0.264012

>  <r_epik_Charging_Adjusted_Penalty>  (161) 
0.286071

>  <i_epik_Tot_Q>  (161) 
1

>  <i_epik_Tot_abs_Q>  (161) 
1

>  <s_lp_Force_Field>  (161) 
OPLS3e

>  <r_lp_Energy>  (161) 
71.9554

>  <b_lp_Chiralities_Consistent>  (161) 
1

>  <s_lp_Variant>  (161) 
45:0-1

>  <s_i_glide_gridfile>  (161) 
pfpi4k_grid

>  <i_i_glide_lignum>  (161) 
30

>  <i_i_glide_rotatable_bonds>  (161) 
5

>  <r_i_docking_score>  (161) 
-2.67433

>  <r_i_glide_ligand_efficiency>  (161) 
-0.0922182

>  <r_i_glide_ligand_efficiency_sa>  (161) 
-0.283323

>  <r_i_glide_ligand_efficiency_ln>  (161) 
-0.612353

>  <r_i_glide_gscore>  (161) 
-2.67433

>  <r_i_glide_lipo>  (161) 
-0.433488

>  <r_i_glide_hbond>  (161) 
-0.0988058

>  <r_i_glide_metal>  (161) 
-0

>  <r_i_glide_rewards>  (161) 
-0.773368

>  <r_i_glide_evdw>  (161) 
-22.1788

>  <r_i_glide_ecoul>  (161) 
-2.53535

>  <r_i_glide_erotb>  (161) 
0.120574

>  <r_i_glide_esite>  (161) 
0

>  <r_i_glide_emodel>  (161) 
-17.2851

>  <r_i_glide_energy>  (161) 
-24.7141

>  <r_i_glide_einternal>  (161) 
22.504

>  <r_i_glide_intrahb_reward>  (161) 
-0

>  <i_i_glide_confnum>  (161) 
4

>  <i_i_glide_posenum>  (161) 
36

>  <r_i_glide_eff_state_penalty>  (161) 
0

>  <ligand_id>  (161) 
45

>  <original_smiles>  (161) 
CCCN1CCC2(OC)OC3Cc4ccc(O)c(OC)c4C34CCN(C)C2CC14

>  <smiles>  (161) 
[H]Oc1c([H])c([H])c2c(c1OC([H])([H])[H])C13C([H])([H])C([H])([H])N(C([H])([H])[H])C4([H])C([H])([H])C1([H])[N+]([H])(C([H])([H])C([H])([H])C([H])([H])[H])C([H])([H])C([H])([H])C4(OC([H])([H])[H])OC3([H])C2([H])[H]

$$$$
45:0:1
     RDKit          3D

 64 68  0  0  1  0  0  0  0  0999 V2000
    8.3726   -6.8401    2.6936 C   0  0  0  0  0  0  0  0  0  0  0  0
    7.2020   -5.8693    2.4819 C   0  0  0  0  0  0  0  0  0  0  0  0
    7.4503   -4.8340    1.3692 C   0  0  0  0  0  0  0  0  0  0  0  0
    6.2776   -3.9456    1.0979 N   0  0  1  0  0  0  0  0  0  0  0  0
    6.7760   -2.6810    0.4860 C   0  0  0  0  0  0  0  0  0  0  0  0
    5.7865   -1.5297    0.2187 C   0  0  0  0  0  0  0  0  0  0  0  0
    4.4444   -1.8551   -0.5127 C   0  0  2  0  0  0  0  0  0  0  0  0
    4.1014   -0.6965   -1.2335 O   0  0  0  0  0  0  0  0  0  0  0  0
    4.7531   -0.3282   -2.4518 C   0  0  0  0  0  0  0  0  0  0  0  0
    3.4750   -1.9721    0.5036 O   0  0  0  0  0  0  0  0  0  0  0  0
    3.4191   -3.0414    1.4573 C   0  0  2  0  0  0  0  0  0  0  0  0
    3.9667   -2.8328    2.8878 C   0  0  0  0  0  0  0  0  0  0  0  0
    3.9899   -4.2487    3.3990 C   0  0  0  0  0  0  0  0  0  0  0  0
    4.1539   -4.6450    4.7319 C   0  0  0  0  0  0  0  0  0  0  0  0
    4.1491   -6.0286    5.0186 C   0  0  0  0  0  0  0  0  0  0  0  0
    3.9687   -6.9792    3.9889 C   0  0  0  0  0  0  0  0  0  0  0  0
    3.9400   -8.3011    4.3345 O   0  0  0  0  0  0  0  0  0  0  0  0
    3.8242   -6.5706    2.6381 C   0  0  0  0  0  0  0  0  0  0  0  0
    3.6718   -7.4800    1.6172 O   0  0  0  0  0  0  0  0  0  0  0  0
    4.7737   -8.3556    1.3639 C   0  0  0  0  0  0  0  0  0  0  0  0
    3.8247   -5.1766    2.3688 C   0  0  0  0  0  0  0  0  0  0  0  0
    3.7560   -4.4870    1.0130 C   0  0  1  0  0  0  0  0  0  0  0  0
    2.6023   -5.0049    0.1059 C   0  0  0  0  0  0  0  0  0  0  0  0
    2.0590   -3.9933   -0.9613 C   0  0  0  0  0  0  0  0  0  0  0  0
    2.9904   -3.4596   -1.9651 N   0  0  0  0  0  0  0  0  0  0  0  0
    2.3370   -2.5599   -2.9011 C   0  0  0  0  0  0  0  0  0  0  0  0
    4.3393   -3.0620   -1.5309 C   0  0  2  0  0  0  0  0  0  0  0  0
    5.1609   -4.2881   -1.1320 C   0  0  0  0  0  0  0  0  0  0  0  0
    5.1630   -4.6236    0.3506 C   0  0  1  0  0  0  0  0  0  0  0  0
    8.1094   -7.5720    3.4571 H   0  0  0  0  0  0  0  0  0  0  0  0
    9.2786   -6.3267    3.0210 H   0  0  0  0  0  0  0  0  0  0  0  0
    8.6012   -7.3995    1.7837 H   0  0  0  0  0  0  0  0  0  0  0  0
    6.3421   -6.4670    2.2192 H   0  0  0  0  0  0  0  0  0  0  0  0
    6.9523   -5.3735    3.4247 H   0  0  0  0  0  0  0  0  0  0  0  0
    8.3025   -4.2311    1.6963 H   0  0  0  0  0  0  0  0  0  0  0  0
    7.7819   -5.3174    0.4419 H   0  0  0  0  0  0  0  0  0  0  0  0
    7.4781   -2.2430    1.1917 H   0  0  0  0  0  0  0  0  0  0  0  0
    7.3732   -2.8698   -0.4104 H   0  0  0  0  0  0  0  0  0  0  0  0
    5.5459   -0.9773    1.1318 H   0  0  0  0  0  0  0  0  0  0  0  0
    6.3569   -0.8185   -0.3682 H   0  0  0  0  0  0  0  0  0  0  0  0
    4.3143    0.6205   -2.7768 H   0  0  0  0  0  0  0  0  0  0  0  0
    4.6158   -1.0355   -3.2692 H   0  0  0  0  0  0  0  0  0  0  0  0
    5.8071   -0.1895   -2.3101 H   0  0  0  0  0  0  0  0  0  0  0  0
    2.3443   -3.0715    1.6643 H   0  0  0  0  0  0  0  0  0  0  0  0
    4.9765   -2.4318    2.8833 H   0  0  0  0  0  0  0  0  0  0  0  0
    3.3343   -2.1827    3.4908 H   0  0  0  0  0  0  0  0  0  0  0  0
    4.2757   -3.9260    5.5238 H   0  0  0  0  0  0  0  0  0  0  0  0
    4.2682   -6.3711    6.0325 H   0  0  0  0  0  0  0  0  0  0  0  0
    3.8487   -8.8876    3.5992 H   0  0  0  0  0  0  0  0  0  0  0  0
    4.4522   -9.2263    0.7886 H   0  0  0  0  0  0  0  0  0  0  0  0
    5.2782   -8.7074    2.2635 H   0  0  0  0  0  0  0  0  0  0  0  0
    5.5258   -7.8455    0.7659 H   0  0  0  0  0  0  0  0  0  0  0  0
    2.8702   -5.9633   -0.3187 H   0  0  0  0  0  0  0  0  0  0  0  0
    1.7540   -5.2318    0.7497 H   0  0  0  0  0  0  0  0  0  0  0  0
    1.2519   -4.5075   -1.4973 H   0  0  0  0  0  0  0  0  0  0  0  0
    1.5723   -3.1492   -0.4725 H   0  0  0  0  0  0  0  0  0  0  0  0
    2.9951   -2.2877   -3.7231 H   0  0  0  0  0  0  0  0  0  0  0  0
    2.0190   -1.6529   -2.3953 H   0  0  0  0  0  0  0  0  0  0  0  0
    1.4639   -3.0314   -3.3585 H   0  0  0  0  0  0  0  0  0  0  0  0
    4.8821   -2.7974   -2.4362 H   0  0  0  0  0  0  0  0  0  0  0  0
    4.7897   -5.1573   -1.6769 H   0  0  0  0  0  0  0  0  0  0  0  0
    6.1708   -4.1797   -1.5159 H   0  0  0  0  0  0  0  0  0  0  0  0
    5.3848   -5.6877    0.3455 H   0  0  0  0  0  0  0  0  0  0  0  0
    5.8920   -3.7078    2.0086 H   0  0  0  0  0  0  0  0  0  0  0  0
  1  2  1  0
  1 30  1  0
  1 31  1  0
  1 32  1  0
  2  3  1  0
  2 33  1  0
  2 34  1  0
  3  4  1  0
  3 35  1  0
  3 36  1  0
  4 29  1  0
  4  5  1  0
  4 64  1  1
  5  6  1  0
  5 37  1  0
  5 38  1  0
  6  7  1  0
  6 39  1  0
  6 40  1  0
  7 27  1  0
  7  8  1  6
  7 10  1  0
  8  9  1  0
  9 41  1  0
  9 42  1  0
  9 43  1  0
 10 11  1  0
 11 22  1  0
 11 12  1  0
 11 44  1  1
 12 13  1  0
 12 45  1  0
 12 46  1  0
 13 21  2  0
 13 14  1  0
 14 15  2  0
 14 47  1  0
 15 16  1  0
 15 48  1  0
 16 17  1  0
 16 18  2  0
 17 49  1  0
 18 19  1  0
 18 21  1  0
 19 20  1  0
 20 50  1  0
 20 51  1  0
 20 52  1  0
 21 22  1  0
 22 29  1  0
 22 23  1  6
 23 24  1  0
 23 53  1  0
 23 54  1  0
 24 25  1  0
 24 55  1  0
 24 56  1  0
 25 26  1  0
 25 27  1  0
 26 57  1  0
 26 58  1  0
 26 59  1  0
 27 28  1  0
 27 60  1  6
 28 29  1  0
 28 61  1  0
 28 62  1  0
 29 63  1  6
M  CHG  1   4   1
M  END
>  <i_m_ct_stereo_status>  (162) 
1

>  <s_m_source_file>  (162) 
/var/tmp/pbs.5076255.sched01/tmpon41x2vr/43t03z2zi4.sdf

>  <i_m_source_file_index>  (162) 
30

>  <i_lp_mmshare_version>  (162) 
48012

>  <i_f3d_flags>  (162) 
0

>  <s_epik_input>  (162) 
W0NIM11bQ0gyXVtDSDJdTihbQ0gyXVtDSDJdMSlbQ0BASF0yW0NIMl1bQ0BASF0oTihbQ0gzXSlbQ0gyXVtDSDJdMylbQ0BAXTEoT1tDSDNdKU9bQ0BASF0oW0NAXTIzNClbQ0gyXWM1YzRjKE9bQ0gzXSljKFtPSF0pW2NIXVtjSF01

>  <s_epik_cmdline>  (162) 
J2VwaWtfcHl0aG9uJywgJy1waHQnLCAnMi4wJywgJy1waCcsICc3LjAnLCAnLXRuJywgJzgnLCAnLW1hJywgJzIwMCcsICctaW1hZScsICc8aW5maWxlLm1hZT4nLCAnLW9tYWUnLCAnPG91dGZpbGUubWFlPic=

>  <r_lp_tautomer_probability>  (162) 
1

>  <r_epik_Ionization_Penalty>  (162) 
0.0898429

>  <r_epik_Ionization_Penalty_Charging>  (162) 
0.0220587

>  <r_epik_Ionization_Penalty_Neutral>  (162) 
0.0677843

>  <r_epik_State_Penalty>  (162) 
0.264012

>  <r_epik_Charging_Adjusted_Penalty>  (162) 
0.286071

>  <i_epik_Tot_Q>  (162) 
1

>  <i_epik_Tot_abs_Q>  (162) 
1

>  <s_lp_Force_Field>  (162) 
OPLS3e

>  <r_lp_Energy>  (162) 
71.9554

>  <b_lp_Chiralities_Consistent>  (162) 
1

>  <s_lp_Variant>  (162) 
45:0-1

>  <s_i_glide_gridfile>  (162) 
pfpi4k_grid

>  <i_i_glide_lignum>  (162) 
30

>  <i_i_glide_rotatable_bonds>  (162) 
5

>  <r_i_docking_score>  (162) 
-1.66752

>  <r_i_glide_ligand_efficiency>  (162) 
-0.0575007

>  <r_i_glide_ligand_efficiency_sa>  (162) 
-0.17666

>  <r_i_glide_ligand_efficiency_ln>  (162) 
-0.38182

>  <r_i_glide_gscore>  (162) 
-1.66752

>  <r_i_glide_lipo>  (162) 
-0.380133

>  <r_i_glide_hbond>  (162) 
0

>  <r_i_glide_metal>  (162) 
-0

>  <r_i_glide_rewards>  (162) 
-0.657716

>  <r_i_glide_evdw>  (162) 
-20.6152

>  <r_i_glide_ecoul>  (162) 
2.05237

>  <r_i_glide_erotb>  (162) 
0.120574

>  <r_i_glide_esite>  (162) 
-0.0273436

>  <r_i_glide_emodel>  (162) 
-14.0985

>  <r_i_glide_energy>  (162) 
-18.5628

>  <r_i_glide_einternal>  (162) 
13.1999

>  <r_i_glide_intrahb_reward>  (162) 
-0

>  <i_i_glide_confnum>  (162) 
4

>  <i_i_glide_posenum>  (162) 
1

>  <r_i_glide_eff_state_penalty>  (162) 
0

>  <ligand_id>  (162) 
45

>  <original_smiles>  (162) 
CCCN1CCC2(OC)OC3Cc4ccc(O)c(OC)c4C34CCN(C)C2CC14

>  <smiles>  (162) 
[H]Oc1c([H])c([H])c2c(c1OC([H])([H])[H])C13C([H])([H])C([H])([H])N(C([H])([H])[H])C4([H])C([H])([H])C1([H])[N+]([H])(C([H])([H])C([H])([H])C([H])([H])[H])C([H])([H])C([H])([H])C4(OC([H])([H])[H])OC3([H])C2([H])[H]

$$$$
45:0:2
     RDKit          3D

 64 68  0  0  1  0  0  0  0  0999 V2000
    9.3309   -5.1769    1.8762 C   0  0  0  0  0  0  0  0  0  0  0  0
    8.5457   -4.1944    1.0127 C   0  0  0  0  0  0  0  0  0  0  0  0
    6.9878   -4.3853    1.0895 C   0  0  0  0  0  0  0  0  0  0  0  0
    6.1434   -3.3395    0.3872 N   0  0  1  0  0  0  0  0  0  0  0  0
    6.9203   -2.6465   -0.6955 C   0  0  0  0  0  0  0  0  0  0  0  0
    6.2387   -1.5394   -1.5003 C   0  0  0  0  0  0  0  0  0  0  0  0
    4.8217   -1.6722   -2.0770 C   0  0  2  0  0  0  0  0  0  0  0  0
    4.8716   -0.9510   -3.2465 O   0  0  0  0  0  0  0  0  0  0  0  0
    4.0467    0.1838   -3.3752 C   0  0  0  0  0  0  0  0  0  0  0  0
    3.9166   -1.0725   -1.1816 O   0  0  0  0  0  0  0  0  0  0  0  0
    3.6786   -1.6051    0.0820 C   0  0  2  0  0  0  0  0  0  0  0  0
    4.3193   -0.9866    1.3351 C   0  0  0  0  0  0  0  0  0  0  0  0
    3.9257   -2.0164    2.3481 C   0  0  0  0  0  0  0  0  0  0  0  0
    3.9585   -1.8426    3.7297 C   0  0  0  0  0  0  0  0  0  0  0  0
    3.5179   -2.9064    4.5287 C   0  0  0  0  0  0  0  0  0  0  0  0
    3.0345   -4.1140    3.9491 C   0  0  0  0  0  0  0  0  0  0  0  0
    2.5555   -5.0761    4.7709 O   0  0  0  0  0  0  0  0  0  0  0  0
    3.0312   -4.2794    2.5474 C   0  0  0  0  0  0  0  0  0  0  0  0
    2.5564   -5.4410    1.9694 O   0  0  0  0  0  0  0  0  0  0  0  0
    3.3544   -6.6037    2.1846 C   0  0  0  0  0  0  0  0  0  0  0  0
    3.4730   -3.2052    1.7617 C   0  0  0  0  0  0  0  0  0  0  0  0
    3.5796   -3.1295    0.2483 C   0  0  1  0  0  0  0  0  0  0  0  0
    2.3392   -3.6316   -0.5575 C   0  0  0  0  0  0  0  0  0  0  0  0
    2.1081   -3.0971   -2.0049 C   0  0  0  0  0  0  0  0  0  0  0  0
    3.0973   -3.3789   -3.0191 N   0  0  0  0  0  0  0  0  0  0  0  0
    2.7231   -2.8321   -4.3199 C   0  0  0  0  0  0  0  0  0  0  0  0
    4.4435   -3.0920   -2.5645 C   0  0  2  0  0  0  0  0  0  0  0  0
    4.9016   -4.1997   -1.6284 C   0  0  0  0  0  0  0  0  0  0  0  0
    4.8659   -3.8835   -0.1477 C   0  0  1  0  0  0  0  0  0  0  0  0
   10.3652   -4.8641    1.8025 H   0  0  0  0  0  0  0  0  0  0  0  0
    9.2383   -6.2129    1.5304 H   0  0  0  0  0  0  0  0  0  0  0  0
    9.0566   -5.1214    2.9313 H   0  0  0  0  0  0  0  0  0  0  0  0
    8.8402   -3.1732    1.2866 H   0  0  0  0  0  0  0  0  0  0  0  0
    8.9171   -4.3765   -0.0043 H   0  0  0  0  0  0  0  0  0  0  0  0
    6.7770   -5.4098    0.7286 H   0  0  0  0  0  0  0  0  0  0  0  0
    6.6395   -4.3816    2.1334 H   0  0  0  0  0  0  0  0  0  0  0  0
    7.7074   -2.0652   -0.2220 H   0  0  0  0  0  0  0  0  0  0  0  0
    7.3900   -3.3360   -1.4028 H   0  0  0  0  0  0  0  0  0  0  0  0
    6.2326   -0.6554   -0.8628 H   0  0  0  0  0  0  0  0  0  0  0  0
    6.9316   -1.4376   -2.3039 H   0  0  0  0  0  0  0  0  0  0  0  0
    4.1563    0.5285   -4.3911 H   0  0  0  0  0  0  0  0  0  0  0  0
    4.3920    0.9426   -2.7041 H   0  0  0  0  0  0  0  0  0  0  0  0
    2.9939   -0.0075   -3.1598 H   0  0  0  0  0  0  0  0  0  0  0  0
    2.6526   -1.2645    0.1705 H   0  0  0  0  0  0  0  0  0  0  0  0
    5.4041   -0.9342    1.2670 H   0  0  0  0  0  0  0  0  0  0  0  0
    3.9149    0.0046    1.5367 H   0  0  0  0  0  0  0  0  0  0  0  0
    4.2954   -0.9099    4.1569 H   0  0  0  0  0  0  0  0  0  0  0  0
    3.5083   -2.8173    5.5947 H   0  0  0  0  0  0  0  0  0  0  0  0
    2.3578   -5.8984    4.3292 H   0  0  0  0  0  0  0  0  0  0  0  0
    2.7759   -7.5086    1.9578 H   0  0  0  0  0  0  0  0  0  0  0  0
    3.7462   -6.6896    3.2005 H   0  0  0  0  0  0  0  0  0  0  0  0
    4.2271   -6.5807    1.5313 H   0  0  0  0  0  0  0  0  0  0  0  0
    2.2608   -4.7216   -0.5514 H   0  0  0  0  0  0  0  0  0  0  0  0
    1.4862   -3.2166   -0.0440 H   0  0  0  0  0  0  0  0  0  0  0  0
    1.1310   -3.4652   -2.3208 H   0  0  0  0  0  0  0  0  0  0  0  0
    2.0507   -2.0230   -2.0208 H   0  0  0  0  0  0  0  0  0  0  0  0
    3.4776   -3.1112   -5.0664 H   0  0  0  0  0  0  0  0  0  0  0  0
    2.6176   -1.7392   -4.3102 H   0  0  0  0  0  0  0  0  0  0  0  0
    1.7590   -3.2548   -4.6513 H   0  0  0  0  0  0  0  0  0  0  0  0
    5.0995   -3.2456   -3.4266 H   0  0  0  0  0  0  0  0  0  0  0  0
    4.2297   -5.0459   -1.6967 H   0  0  0  0  0  0  0  0  0  0  0  0
    5.8290   -4.6021   -1.9874 H   0  0  0  0  0  0  0  0  0  0  0  0
    4.7303   -4.8737    0.2665 H   0  0  0  0  0  0  0  0  0  0  0  0
    5.8877   -2.6616    1.1023 H   0  0  0  0  0  0  0  0  0  0  0  0
  1  2  1  0
  1 30  1  0
  1 31  1  0
  1 32  1  0
  2  3  1  0
  2 33  1  0
  2 34  1  0
  3  4  1  0
  3 35  1  0
  3 36  1  0
  4 29  1  0
  4  5  1  0
  4 64  1  1
  5  6  1  0
  5 37  1  0
  5 38  1  0
  6  7  1  0
  6 39  1  0
  6 40  1  0
  7 27  1  0
  7  8  1  6
  7 10  1  0
  8  9  1  0
  9 41  1  0
  9 42  1  0
  9 43  1  0
 10 11  1  0
 11 22  1  0
 11 12  1  0
 11 44  1  1
 12 13  1  0
 12 45  1  0
 12 46  1  0
 13 21  2  0
 13 14  1  0
 14 15  2  0
 14 47  1  0
 15 16  1  0
 15 48  1  0
 16 17  1  0
 16 18  2  0
 17 49  1  0
 18 19  1  0
 18 21  1  0
 19 20  1  0
 20 50  1  0
 20 51  1  0
 20 52  1  0
 21 22  1  0
 22 29  1  0
 22 23  1  6
 23 24  1  0
 23 53  1  0
 23 54  1  0
 24 25  1  0
 24 55  1  0
 24 56  1  0
 25 26  1  0
 25 27  1  0
 26 57  1  0
 26 58  1  0
 26 59  1  0
 27 28  1  0
 27 60  1  6
 28 29  1  0
 28 61  1  0
 28 62  1  0
 29 63  1  1
M  CHG  1   4   1
M  END
>  <i_m_ct_stereo_status>  (163) 
1

>  <s_m_source_file>  (163) 
/var/tmp/pbs.5076255.sched01/tmpon41x2vr/43t03z2zi4.sdf

>  <i_m_source_file_index>  (163) 
30

>  <i_lp_mmshare_version>  (163) 
48012

>  <i_f3d_flags>  (163) 
0

>  <s_epik_input>  (163) 
W0NIM11bQ0gyXVtDSDJdTihbQ0gyXVtDSDJdMSlbQ0BASF0yW0NIMl1bQ0BASF0oTihbQ0gzXSlbQ0gyXVtDSDJdMylbQ0BAXTEoT1tDSDNdKU9bQ0BASF0oW0NAXTIzNClbQ0gyXWM1YzRjKE9bQ0gzXSljKFtPSF0pW2NIXVtjSF01

>  <s_epik_cmdline>  (163) 
J2VwaWtfcHl0aG9uJywgJy1waHQnLCAnMi4wJywgJy1waCcsICc3LjAnLCAnLXRuJywgJzgnLCAnLW1hJywgJzIwMCcsICctaW1hZScsICc8aW5maWxlLm1hZT4nLCAnLW9tYWUnLCAnPG91dGZpbGUubWFlPic=

>  <r_lp_tautomer_probability>  (163) 
1

>  <r_epik_Ionization_Penalty>  (163) 
0.0898429

>  <r_epik_Ionization_Penalty_Charging>  (163) 
0.0220587

>  <r_epik_Ionization_Penalty_Neutral>  (163) 
0.0677843

>  <r_epik_State_Penalty>  (163) 
0.264012

>  <r_epik_Charging_Adjusted_Penalty>  (163) 
0.286071

>  <i_epik_Tot_Q>  (163) 
1

>  <i_epik_Tot_abs_Q>  (163) 
1

>  <s_lp_Force_Field>  (163) 
OPLS3e

>  <r_lp_Energy>  (163) 
71.9554

>  <b_lp_Chiralities_Consistent>  (163) 
1

>  <s_lp_Variant>  (163) 
45:0-1

>  <s_i_glide_gridfile>  (163) 
pfpi4k_grid

>  <i_i_glide_lignum>  (163) 
30

>  <i_i_glide_rotatable_bonds>  (163) 
5

>  <r_i_docking_score>  (163) 
-1.4086

>  <r_i_glide_ligand_efficiency>  (163) 
-0.0485722

>  <r_i_glide_ligand_efficiency_sa>  (163) 
-0.149229

>  <r_i_glide_ligand_efficiency_ln>  (163) 
-0.322533

>  <r_i_glide_gscore>  (163) 
-1.4086

>  <r_i_glide_lipo>  (163) 
-0.349836

>  <r_i_glide_hbond>  (163) 
0

>  <r_i_glide_metal>  (163) 
-0

>  <r_i_glide_rewards>  (163) 
-0.657716

>  <r_i_glide_evdw>  (163) 
-9.48588

>  <r_i_glide_ecoul>  (163) 
-0.131143

>  <r_i_glide_erotb>  (163) 
0.120574

>  <r_i_glide_esite>  (163) 
-0.0276524

>  <r_i_glide_emodel>  (163) 
-0.358746

>  <r_i_glide_energy>  (163) 
-9.61703

>  <r_i_glide_einternal>  (163) 
15.933

>  <r_i_glide_intrahb_reward>  (163) 
-0

>  <i_i_glide_confnum>  (163) 
6

>  <i_i_glide_posenum>  (163) 
11

>  <r_i_glide_eff_state_penalty>  (163) 
0

>  <ligand_id>  (163) 
45

>  <original_smiles>  (163) 
CCCN1CCC2(OC)OC3Cc4ccc(O)c(OC)c4C34CCN(C)C2CC14

>  <smiles>  (163) 
[H]Oc1c([H])c([H])c2c(c1OC([H])([H])[H])C13C([H])([H])C([H])([H])N(C([H])([H])[H])C4([H])C([H])([H])C1([H])[N+]([H])(C([H])([H])C([H])([H])C([H])([H])[H])C([H])([H])C([H])([H])C4(OC([H])([H])[H])OC3([H])C2([H])[H]

$$$$
45:1:0
     RDKit          3D

 64 68  0  0  1  0  0  0  0  0999 V2000
    8.8131   -3.9068    0.7908 C   0  0  0  0  0  0  0  0  0  0  0  0
    7.5118   -3.2678    0.3038 C   0  0  0  0  0  0  0  0  0  0  0  0
    6.3352   -4.2652    0.2788 C   0  0  0  0  0  0  0  0  0  0  0  0
    5.8394   -4.5727    1.6293 N   0  0  0  0  0  0  0  0  0  0  0  0
    5.3721   -5.9594    1.7454 C   0  0  0  0  0  0  0  0  0  0  0  0
    4.8736   -6.4521    3.1244 C   0  0  0  0  0  0  0  0  0  0  0  0
    3.6350   -5.6937    3.6953 C   0  0  2  0  0  0  0  0  0  0  0  0
    3.0620   -6.4673    4.7127 O   0  0  0  0  0  0  0  0  0  0  0  0
    2.4649   -7.7165    4.3737 C   0  0  0  0  0  0  0  0  0  0  0  0
    2.6682   -5.5239    2.6850 O   0  0  0  0  0  0  0  0  0  0  0  0
    2.6150   -4.4553    1.7451 C   0  0  2  0  0  0  0  0  0  0  0  0
    2.4271   -4.8446    0.2669 C   0  0  0  0  0  0  0  0  0  0  0  0
    2.9360   -3.6289   -0.4638 C   0  0  0  0  0  0  0  0  0  0  0  0
    2.8890   -3.4433   -1.8590 C   0  0  0  0  0  0  0  0  0  0  0  0
    3.4959   -2.3006   -2.4066 C   0  0  0  0  0  0  0  0  0  0  0  0
    4.1118   -1.3763   -1.5625 C   0  0  0  0  0  0  0  0  0  0  0  0
    4.7268   -0.2688   -2.1263 O   0  0  0  0  0  0  0  0  0  0  0  0
    4.1462   -1.5323   -0.1588 C   0  0  0  0  0  0  0  0  0  0  0  0
    4.7866   -0.6137    0.6273 O   0  0  0  0  0  0  0  0  0  0  0  0
    3.9672    0.2916    1.3442 C   0  0  0  0  0  0  0  0  0  0  0  0
    3.5409   -2.7092    0.3868 C   0  0  0  0  0  0  0  0  0  0  0  0
    3.5678   -3.2332    1.8381 C   0  0  1  0  0  0  0  0  0  0  0  0
    2.9143   -2.2275    2.8166 C   0  0  0  0  0  0  0  0  0  0  0  0
    2.2078   -2.6910    4.0844 C   0  0  0  0  0  0  0  0  0  0  0  0
    3.0487   -3.4550    5.0280 N   0  0  1  0  0  0  0  0  0  0  0  0
    2.2015   -4.0332    6.1020 C   0  0  0  0  0  0  0  0  0  0  0  0
    4.0771   -4.3850    4.4561 C   0  0  2  0  0  0  0  0  0  0  0  0
    5.2212   -3.6214    3.7811 C   0  0  0  0  0  0  0  0  0  0  0  0
    5.0480   -3.5077    2.2727 C   0  0  1  0  0  0  0  0  0  0  0  0
    9.6160   -3.1700    0.8104 H   0  0  0  0  0  0  0  0  0  0  0  0
    9.1121   -4.7375    0.1506 H   0  0  0  0  0  0  0  0  0  0  0  0
    8.6864   -4.2896    1.8019 H   0  0  0  0  0  0  0  0  0  0  0  0
    7.2938   -2.3940    0.9137 H   0  0  0  0  0  0  0  0  0  0  0  0
    7.6641   -2.8708   -0.7002 H   0  0  0  0  0  0  0  0  0  0  0  0
    5.5530   -3.8710   -0.3590 H   0  0  0  0  0  0  0  0  0  0  0  0
    6.6417   -5.1762   -0.2358 H   0  0  0  0  0  0  0  0  0  0  0  0
    4.6427   -6.1847    0.9808 H   0  0  0  0  0  0  0  0  0  0  0  0
    6.2242   -6.5893    1.4810 H   0  0  0  0  0  0  0  0  0  0  0  0
    4.6056   -7.4878    2.9681 H   0  0  0  0  0  0  0  0  0  0  0  0
    5.6707   -6.4608    3.8679 H   0  0  0  0  0  0  0  0  0  0  0  0
    1.7948   -8.0134    5.1783 H   0  0  0  0  0  0  0  0  0  0  0  0
    3.2106   -8.5044    4.2910 H   0  0  0  0  0  0  0  0  0  0  0  0
    1.8745   -7.6942    3.4564 H   0  0  0  0  0  0  0  0  0  0  0  0
    1.6256   -4.0548    1.9507 H   0  0  0  0  0  0  0  0  0  0  0  0
    2.9769   -5.7352   -0.0145 H   0  0  0  0  0  0  0  0  0  0  0  0
    1.3939   -5.0375    0.0084 H   0  0  0  0  0  0  0  0  0  0  0  0
    2.4093   -4.1504   -2.5207 H   0  0  0  0  0  0  0  0  0  0  0  0
    3.4876   -2.1390   -3.4730 H   0  0  0  0  0  0  0  0  0  0  0  0
    4.9296    0.3988   -1.5328 H   0  0  0  0  0  0  0  0  0  0  0  0
    4.4783    0.5750    2.2645 H   0  0  0  0  0  0  0  0  0  0  0  0
    3.0058   -0.0762    1.5989 H   0  0  0  0  0  0  0  0  0  0  0  0
    3.6853    1.1504    0.7629 H   0  0  0  0  0  0  0  0  0  0  0  0
    3.6382   -1.4793    3.1346 H   0  0  0  0  0  0  0  0  0  0  0  0
    2.0804   -1.7709    2.2813 H   0  0  0  0  0  0  0  0  0  0  0  0
    1.9018   -1.7805    4.6133 H   0  0  0  0  0  0  0  0  0  0  0  0
    1.2766   -3.2078    3.8604 H   0  0  0  0  0  0  0  0  0  0  0  0
    1.4698   -4.7341    5.6891 H   0  0  0  0  0  0  0  0  0  0  0  0
    1.6456   -3.2334    6.6062 H   0  0  0  0  0  0  0  0  0  0  0  0
    2.8058   -4.5466    6.8560 H   0  0  0  0  0  0  0  0  0  0  0  0
    4.5630   -4.7570    5.3593 H   0  0  0  0  0  0  0  0  0  0  0  0
    5.3020   -2.6230    4.2155 H   0  0  0  0  0  0  0  0  0  0  0  0
    6.1712   -4.0903    4.0262 H   0  0  0  0  0  0  0  0  0  0  0  0
    5.5823   -2.5875    2.0542 H   0  0  0  0  0  0  0  0  0  0  0  0
    3.6069   -2.7580    5.5022 H   0  0  0  0  0  0  0  0  0  0  0  0
  1  2  1  0
  1 30  1  0
  1 31  1  0
  1 32  1  0
  2  3  1  0
  2 33  1  0
  2 34  1  0
  3  4  1  0
  3 35  1  0
  3 36  1  0
  4 29  1  0
  4  5  1  0
  5  6  1  0
  5 37  1  0
  5 38  1  0
  6  7  1  0
  6 39  1  0
  6 40  1  0
  7 27  1  0
  7  8  1  1
  7 10  1  0
  8  9  1  0
  9 41  1  0
  9 42  1  0
  9 43  1  0
 10 11  1  0
 11 22  1  0
 11 12  1  0
 11 44  1  1
 12 13  1  0
 12 45  1  0
 12 46  1  0
 13 21  2  0
 13 14  1  0
 14 15  2  0
 14 47  1  0
 15 16  1  0
 15 48  1  0
 16 17  1  0
 16 18  2  0
 17 49  1  0
 18 19  1  0
 18 21  1  0
 19 20  1  0
 20 50  1  0
 20 51  1  0
 20 52  1  0
 21 22  1  0
 22 29  1  0
 22 23  1  1
 23 24  1  0
 23 53  1  0
 23 54  1  0
 24 25  1  0
 24 55  1  0
 24 56  1  0
 25 26  1  0
 25 27  1  0
 25 64  1  1
 26 57  1  0
 26 58  1  0
 26 59  1  0
 27 28  1  0
 27 60  1  1
 28 29  1  0
 28 61  1  0
 28 62  1  0
 29 63  1  6
M  CHG  1  25   1
M  END
>  <i_m_ct_stereo_status>  (164) 
1

>  <s_m_source_file>  (164) 
/var/tmp/pbs.5076255.sched01/tmpon41x2vr/43t03z2zi4.sdf

>  <i_m_source_file_index>  (164) 
31

>  <i_lp_mmshare_version>  (164) 
48012

>  <i_f3d_flags>  (164) 
0

>  <s_epik_input>  (164) 
W0NIM11bQ0gyXVtDSDJdTihbQ0gyXVtDSDJdMSlbQ0BASF0yW0NIMl1bQ0BASF0oTihbQ0gzXSlbQ0gyXVtDSDJdMylbQ0BAXTEoT1tDSDNdKU9bQ0BASF0oW0NAXTIzNClbQ0gyXWM1YzRjKE9bQ0gzXSljKFtPSF0pW2NIXVtjSF01

>  <s_epik_cmdline>  (164) 
J2VwaWtfcHl0aG9uJywgJy1waHQnLCAnMi4wJywgJy1waCcsICc3LjAnLCAnLXRuJywgJzgnLCAnLW1hJywgJzIwMCcsICctaW1hZScsICc8aW5maWxlLm1hZT4nLCAnLW9tYWUnLCAnPG91dGZpbGUubWFlPic=

>  <r_epik_Ionization_Penalty>  (164) 
0.179943

>  <r_epik_Ionization_Penalty_Charging>  (164) 
0.051972

>  <r_epik_Ionization_Penalty_Neutral>  (164) 
0.127971

>  <r_epik_State_Penalty>  (164) 
0.763407

>  <r_epik_Charging_Adjusted_Penalty>  (164) 
0.815379

>  <i_epik_Tot_Q>  (164) 
1

>  <i_epik_Tot_abs_Q>  (164) 
1

>  <s_lp_Force_Field>  (164) 
OPLS3e

>  <r_lp_Energy>  (164) 
70.971

>  <b_lp_Chiralities_Consistent>  (164) 
1

>  <s_lp_Variant>  (164) 
45:0-2

>  <s_i_glide_gridfile>  (164) 
pfpi4k_grid

>  <i_i_glide_lignum>  (164) 
31

>  <i_i_glide_rotatable_bonds>  (164) 
5

>  <r_i_docking_score>  (164) 
-2.67336

>  <r_i_glide_ligand_efficiency>  (164) 
-0.0921847

>  <r_i_glide_ligand_efficiency_sa>  (164) 
-0.28322

>  <r_i_glide_ligand_efficiency_ln>  (164) 
-0.612131

>  <r_i_glide_gscore>  (164) 
-2.67336

>  <r_i_glide_lipo>  (164) 
-0.516949

>  <r_i_glide_hbond>  (164) 
0

>  <r_i_glide_metal>  (164) 
-0

>  <r_i_glide_rewards>  (164) 
-0.657716

>  <r_i_glide_evdw>  (164) 
-17.1499

>  <r_i_glide_ecoul>  (164) 
-5.07848

>  <r_i_glide_erotb>  (164) 
0.120574

>  <r_i_glide_esite>  (164) 
0

>  <r_i_glide_emodel>  (164) 
-20.9455

>  <r_i_glide_energy>  (164) 
-22.2283

>  <r_i_glide_einternal>  (164) 
7.18585

>  <r_i_glide_intrahb_reward>  (164) 
-0

>  <i_i_glide_confnum>  (164) 
1

>  <i_i_glide_posenum>  (164) 
9

>  <r_i_glide_eff_state_penalty>  (164) 
0

>  <ligand_id>  (164) 
45

>  <original_smiles>  (164) 
CCCN1CCC2(OC)OC3Cc4ccc(O)c(OC)c4C34CCN(C)C2CC14

>  <smiles>  (164) 
[H]Oc1c([H])c([H])c2c(c1OC([H])([H])[H])C13C([H])([H])C([H])([H])[N+]([H])(C([H])([H])[H])C4([H])C([H])([H])C1([H])N(C([H])([H])C([H])([H])C([H])([H])[H])C([H])([H])C([H])([H])C4(OC([H])([H])[H])OC3([H])C2([H])[H]

$$$$
45:1:1
     RDKit          3D

 64 68  0  0  1  0  0  0  0  0999 V2000
    8.0482   -5.5689    2.8135 C   0  0  0  0  0  0  0  0  0  0  0  0
    7.3312   -5.3114    1.4842 C   0  0  0  0  0  0  0  0  0  0  0  0
    6.9131   -3.8355    1.3009 C   0  0  0  0  0  0  0  0  0  0  0  0
    6.4090   -3.5604   -0.0468 N   0  0  0  0  0  0  0  0  0  0  0  0
    6.6214   -2.1709   -0.4717 C   0  0  0  0  0  0  0  0  0  0  0  0
    6.1644   -1.7204   -1.8999 C   0  0  0  0  0  0  0  0  0  0  0  0
    4.6838   -1.8724   -2.2184 C   0  0  2  0  0  0  0  0  0  0  0  0
    4.4782   -1.0865   -3.3659 O   0  0  0  0  0  0  0  0  0  0  0  0
    3.5629    0.0004   -3.2731 C   0  0  0  0  0  0  0  0  0  0  0  0
    3.9880   -1.3531   -1.1109 O   0  0  0  0  0  0  0  0  0  0  0  0
    3.5513   -2.0784    0.0329 C   0  0  2  0  0  0  0  0  0  0  0  0
    3.7896   -1.3740    1.3729 C   0  0  0  0  0  0  0  0  0  0  0  0
    3.7862   -2.5211    2.3448 C   0  0  0  0  0  0  0  0  0  0  0  0
    3.8572   -2.4184    3.7202 C   0  0  0  0  0  0  0  0  0  0  0  0
    3.8991   -3.6051    4.4816 C   0  0  0  0  0  0  0  0  0  0  0  0
    3.8571   -4.8622    3.8427 C   0  0  0  0  0  0  0  0  0  0  0  0
    3.9670   -5.9570    4.6443 O   0  0  0  0  0  0  0  0  0  0  0  0
    3.7632   -4.9609    2.4447 C   0  0  0  0  0  0  0  0  0  0  0  0
    3.7442   -6.1664    1.7621 O   0  0  0  0  0  0  0  0  0  0  0  0
    2.8267   -7.1546    2.2111 C   0  0  0  0  0  0  0  0  0  0  0  0
    3.7592   -3.7604    1.6957 C   0  0  0  0  0  0  0  0  0  0  0  0
    3.7835   -3.6031    0.1832 C   0  0  1  0  0  0  0  0  0  0  0  0
    2.5841   -4.3440   -0.4793 C   0  0  0  0  0  0  0  0  0  0  0  0
    1.9817   -3.7436   -1.7981 C   0  0  0  0  0  0  0  0  0  0  0  0
    2.8981   -3.5896   -2.9685 N   0  0  1  0  0  0  0  0  0  0  0  0
    2.3067   -2.9338   -4.1507 C   0  0  0  0  0  0  0  0  0  0  0  0
    4.3303   -3.2882   -2.6851 C   0  0  2  0  0  0  0  0  0  0  0  0
    5.0775   -4.3628   -1.9011 C   0  0  0  0  0  0  0  0  0  0  0  0
    5.1175   -4.1743   -0.3884 C   0  0  1  0  0  0  0  0  0  0  0  0
    8.3385   -6.6132    2.9046 H   0  0  0  0  0  0  0  0  0  0  0  0
    7.3970   -5.3528    3.6605 H   0  0  0  0  0  0  0  0  0  0  0  0
    8.9572   -4.9709    2.8806 H   0  0  0  0  0  0  0  0  0  0  0  0
    7.9986   -5.5963    0.6694 H   0  0  0  0  0  0  0  0  0  0  0  0
    6.4652   -5.9745    1.4382 H   0  0  0  0  0  0  0  0  0  0  0  0
    6.1904   -3.5376    2.0550 H   0  0  0  0  0  0  0  0  0  0  0  0
    7.7889   -3.2072    1.4630 H   0  0  0  0  0  0  0  0  0  0  0  0
    6.2210   -1.4899    0.2593 H   0  0  0  0  0  0  0  0  0  0  0  0
    7.6991   -2.0179   -0.4151 H   0  0  0  0  0  0  0  0  0  0  0  0
    6.1700   -0.6300   -1.9683 H   0  0  0  0  0  0  0  0  0  0  0  0
    6.7829   -2.2088   -2.6788 H   0  0  0  0  0  0  0  0  0  0  0  0
    3.2386    0.2820   -4.2750 H   0  0  0  0  0  0  0  0  0  0  0  0
    4.0247    0.8667   -2.8070 H   0  0  0  0  0  0  0  0  0  0  0  0
    2.6575   -0.2666   -2.7220 H   0  0  0  0  0  0  0  0  0  0  0  0
    2.4792   -1.9697   -0.0276 H   0  0  0  0  0  0  0  0  0  0  0  0
    4.7297   -0.8361    1.4276 H   0  0  0  0  0  0  0  0  0  0  0  0
    2.9882   -0.6718    1.5898 H   0  0  0  0  0  0  0  0  0  0  0  0
    3.9132   -1.4561    4.2002 H   0  0  0  0  0  0  0  0  0  0  0  0
    3.9828   -3.5511    5.5474 H   0  0  0  0  0  0  0  0  0  0  0  0
    3.9800   -6.7754    4.1547 H   0  0  0  0  0  0  0  0  0  0  0  0
    2.6538   -7.8905    1.4207 H   0  0  0  0  0  0  0  0  0  0  0  0
    1.8654   -6.7053    2.4622 H   0  0  0  0  0  0  0  0  0  0  0  0
    3.2013   -7.7028    3.0762 H   0  0  0  0  0  0  0  0  0  0  0  0
    2.7968   -5.4137   -0.5667 H   0  0  0  0  0  0  0  0  0  0  0  0
    1.7777   -4.2968    0.2358 H   0  0  0  0  0  0  0  0  0  0  0  0
    1.2377   -4.4663   -2.1385 H   0  0  0  0  0  0  0  0  0  0  0  0
    1.4718   -2.7975   -1.6617 H   0  0  0  0  0  0  0  0  0  0  0  0
    2.0365   -1.9132   -3.9456 H   0  0  0  0  0  0  0  0  0  0  0  0
    1.3883   -3.4510   -4.4807 H   0  0  0  0  0  0  0  0  0  0  0  0
    3.0129   -2.9659   -4.9791 H   0  0  0  0  0  0  0  0  0  0  0  0
    4.8049   -3.3777   -3.6713 H   0  0  0  0  0  0  0  0  0  0  0  0
    4.6706   -5.3517   -2.0787 H   0  0  0  0  0  0  0  0  0  0  0  0
    6.0878   -4.3184   -2.3103 H   0  0  0  0  0  0  0  0  0  0  0  0
    5.1793   -5.1995   -0.0301 H   0  0  0  0  0  0  0  0  0  0  0  0
    3.0040   -4.5600   -3.2310 H   0  0  0  0  0  0  0  0  0  0  0  0
  1  2  1  0
  1 30  1  0
  1 31  1  0
  1 32  1  0
  2  3  1  0
  2 33  1  0
  2 34  1  0
  3  4  1  0
  3 35  1  0
  3 36  1  0
  4 29  1  0
  4  5  1  0
  5  6  1  0
  5 37  1  0
  5 38  1  0
  6  7  1  0
  6 39  1  0
  6 40  1  0
  7 27  1  0
  7  8  1  6
  7 10  1  0
  8  9  1  0
  9 41  1  0
  9 42  1  0
  9 43  1  0
 10 11  1  0
 11 22  1  0
 11 12  1  0
 11 44  1  6
 12 13  1  0
 12 45  1  0
 12 46  1  0
 13 21  2  0
 13 14  1  0
 14 15  2  0
 14 47  1  0
 15 16  1  0
 15 48  1  0
 16 17  1  0
 16 18  2  0
 17 49  1  0
 18 19  1  0
 18 21  1  0
 19 20  1  0
 20 50  1  0
 20 51  1  0
 20 52  1  0
 21 22  1  0
 22 29  1  0
 22 23  1  6
 23 24  1  0
 23 53  1  0
 23 54  1  0
 24 25  1  0
 24 55  1  0
 24 56  1  0
 25 26  1  0
 25 27  1  0
 25 64  1  6
 26 57  1  0
 26 58  1  0
 26 59  1  0
 27 28  1  0
 27 60  1  6
 28 29  1  0
 28 61  1  0
 28 62  1  0
 29 63  1  1
M  CHG  1  25   1
M  END
>  <i_m_ct_stereo_status>  (165) 
1

>  <s_m_source_file>  (165) 
/var/tmp/pbs.5076255.sched01/tmpon41x2vr/43t03z2zi4.sdf

>  <i_m_source_file_index>  (165) 
31

>  <i_lp_mmshare_version>  (165) 
48012

>  <i_f3d_flags>  (165) 
0

>  <s_epik_input>  (165) 
W0NIM11bQ0gyXVtDSDJdTihbQ0gyXVtDSDJdMSlbQ0BASF0yW0NIMl1bQ0BASF0oTihbQ0gzXSlbQ0gyXVtDSDJdMylbQ0BAXTEoT1tDSDNdKU9bQ0BASF0oW0NAXTIzNClbQ0gyXWM1YzRjKE9bQ0gzXSljKFtPSF0pW2NIXVtjSF01

>  <s_epik_cmdline>  (165) 
J2VwaWtfcHl0aG9uJywgJy1waHQnLCAnMi4wJywgJy1waCcsICc3LjAnLCAnLXRuJywgJzgnLCAnLW1hJywgJzIwMCcsICctaW1hZScsICc8aW5maWxlLm1hZT4nLCAnLW9tYWUnLCAnPG91dGZpbGUubWFlPic=

>  <r_epik_Ionization_Penalty>  (165) 
0.179943

>  <r_epik_Ionization_Penalty_Charging>  (165) 
0.051972

>  <r_epik_Ionization_Penalty_Neutral>  (165) 
0.127971

>  <r_epik_State_Penalty>  (165) 
0.763407

>  <r_epik_Charging_Adjusted_Penalty>  (165) 
0.815379

>  <i_epik_Tot_Q>  (165) 
1

>  <i_epik_Tot_abs_Q>  (165) 
1

>  <s_lp_Force_Field>  (165) 
OPLS3e

>  <r_lp_Energy>  (165) 
70.971

>  <b_lp_Chiralities_Consistent>  (165) 
1

>  <s_lp_Variant>  (165) 
45:0-2

>  <s_i_glide_gridfile>  (165) 
pfpi4k_grid

>  <i_i_glide_lignum>  (165) 
31

>  <i_i_glide_rotatable_bonds>  (165) 
5

>  <r_i_docking_score>  (165) 
-2.66796

>  <r_i_glide_ligand_efficiency>  (165) 
-0.0919986

>  <r_i_glide_ligand_efficiency_sa>  (165) 
-0.282649

>  <r_i_glide_ligand_efficiency_ln>  (165) 
-0.610895

>  <r_i_glide_gscore>  (165) 
-2.66796

>  <r_i_glide_lipo>  (165) 
-0.396968

>  <r_i_glide_hbond>  (165) 
0

>  <r_i_glide_metal>  (165) 
-0

>  <r_i_glide_rewards>  (165) 
-0.657716

>  <r_i_glide_evdw>  (165) 
-10.6035

>  <r_i_glide_ecoul>  (165) 
-7.94582

>  <r_i_glide_erotb>  (165) 
0.120574

>  <r_i_glide_esite>  (165) 
-0.0118012

>  <r_i_glide_emodel>  (165) 
-18.2081

>  <r_i_glide_energy>  (165) 
-18.5493

>  <r_i_glide_einternal>  (165) 
4.81632

>  <r_i_glide_intrahb_reward>  (165) 
-0

>  <i_i_glide_confnum>  (165) 
1

>  <i_i_glide_posenum>  (165) 
22

>  <r_i_glide_eff_state_penalty>  (165) 
0

>  <ligand_id>  (165) 
45

>  <original_smiles>  (165) 
CCCN1CCC2(OC)OC3Cc4ccc(O)c(OC)c4C34CCN(C)C2CC14

>  <smiles>  (165) 
[H]Oc1c([H])c([H])c2c(c1OC([H])([H])[H])C13C([H])([H])C([H])([H])[N+]([H])(C([H])([H])[H])C4([H])C([H])([H])C1([H])N(C([H])([H])C([H])([H])C([H])([H])[H])C([H])([H])C([H])([H])C4(OC([H])([H])[H])OC3([H])C2([H])[H]

$$$$
45:1:2
     RDKit          3D

 64 68  0  0  1  0  0  0  0  0999 V2000
    8.7914   -5.4550    1.0134 C   0  0  0  0  0  0  0  0  0  0  0  0
    7.7499   -6.0348    1.9862 C   0  0  0  0  0  0  0  0  0  0  0  0
    6.3383   -6.0005    1.3894 C   0  0  0  0  0  0  0  0  0  0  0  0
    5.3161   -6.4633    2.3341 N   0  0  0  0  0  0  0  0  0  0  0  0
    4.5599   -7.5983    1.8027 C   0  0  0  0  0  0  0  0  0  0  0  0
    3.4864   -8.2630    2.6960 C   0  0  0  0  0  0  0  0  0  0  0  0
    2.3105   -7.3269    3.1381 C   0  0  2  0  0  0  0  0  0  0  0  0
    1.2583   -8.1433    3.5899 O   0  0  0  0  0  0  0  0  0  0  0  0
    0.5807   -8.9810    2.6526 C   0  0  0  0  0  0  0  0  0  0  0  0
    1.8462   -6.5656    2.0433 O   0  0  0  0  0  0  0  0  0  0  0  0
    2.4007   -5.3270    1.5921 C   0  0  2  0  0  0  0  0  0  0  0  0
    2.6824   -5.2190    0.0803 C   0  0  0  0  0  0  0  0  0  0  0  0
    3.6862   -4.1087    0.0051 C   0  0  0  0  0  0  0  0  0  0  0  0
    4.1957   -3.5463   -1.1712 C   0  0  0  0  0  0  0  0  0  0  0  0
    5.1772   -2.5433   -1.0616 C   0  0  0  0  0  0  0  0  0  0  0  0
    5.6144   -2.1039    0.2065 C   0  0  0  0  0  0  0  0  0  0  0  0
    6.6108   -1.1754    0.2110 O   0  0  0  0  0  0  0  0  0  0  0  0
    5.0729   -2.6633    1.3986 C   0  0  0  0  0  0  0  0  0  0  0  0
    5.4781   -2.3086    2.6682 O   0  0  0  0  0  0  0  0  0  0  0  0
    5.6151   -0.9256    2.9553 C   0  0  0  0  0  0  0  0  0  0  0  0
    4.1142   -3.6985    1.2657 C   0  0  0  0  0  0  0  0  0  0  0  0
    3.4948   -4.5400    2.3806 C   0  0  1  0  0  0  0  0  0  0  0  0
    2.7846   -3.6284    3.4328 C   0  0  0  0  0  0  0  0  0  0  0  0
    1.5502   -4.2184    4.1795 C   0  0  0  0  0  0  0  0  0  0  0  0
    1.7527   -5.4706    4.9547 N   0  0  1  0  0  0  0  0  0  0  0  0
    0.4710   -6.0272    5.4542 C   0  0  0  0  0  0  0  0  0  0  0  0
    2.7008   -6.4911    4.4124 C   0  0  2  0  0  0  0  0  0  0  0  0
    4.1523   -5.9933    4.4132 C   0  0  0  0  0  0  0  0  0  0  0  0
    4.6065   -5.4057    3.0761 C   0  0  1  0  0  0  0  0  0  0  0  0
    9.7854   -5.5025    1.4569 H   0  0  0  0  0  0  0  0  0  0  0  0
    8.5918   -4.4097    0.7659 H   0  0  0  0  0  0  0  0  0  0  0  0
    8.8163   -6.0202    0.0801 H   0  0  0  0  0  0  0  0  0  0  0  0
    8.0190   -7.0608    2.2406 H   0  0  0  0  0  0  0  0  0  0  0  0
    7.7818   -5.4566    2.9104 H   0  0  0  0  0  0  0  0  0  0  0  0
    6.1550   -4.9873    1.0606 H   0  0  0  0  0  0  0  0  0  0  0  0
    6.3180   -6.6053    0.4829 H   0  0  0  0  0  0  0  0  0  0  0  0
    4.1358   -7.3626    0.8409 H   0  0  0  0  0  0  0  0  0  0  0  0
    5.2984   -8.3680    1.5808 H   0  0  0  0  0  0  0  0  0  0  0  0
    3.0967   -9.0876    2.0996 H   0  0  0  0  0  0  0  0  0  0  0  0
    3.9284   -8.7376    3.5749 H   0  0  0  0  0  0  0  0  0  0  0  0
   -0.3884   -9.2579    3.0678 H   0  0  0  0  0  0  0  0  0  0  0  0
    1.1223   -9.9102    2.4860 H   0  0  0  0  0  0  0  0  0  0  0  0
    0.3961   -8.5040    1.6887 H   0  0  0  0  0  0  0  0  0  0  0  0
    1.5206   -4.6907    1.6360 H   0  0  0  0  0  0  0  0  0  0  0  0
    3.1073   -6.1243   -0.3264 H   0  0  0  0  0  0  0  0  0  0  0  0
    1.7979   -4.9710   -0.5044 H   0  0  0  0  0  0  0  0  0  0  0  0
    3.8720   -3.8881   -2.1407 H   0  0  0  0  0  0  0  0  0  0  0  0
    5.6099   -2.1107   -1.9496 H   0  0  0  0  0  0  0  0  0  0  0  0
    6.8390   -0.8922    1.0851 H   0  0  0  0  0  0  0  0  0  0  0  0
    5.5988   -0.7682    4.0357 H   0  0  0  0  0  0  0  0  0  0  0  0
    4.7936   -0.3625    2.5120 H   0  0  0  0  0  0  0  0  0  0  0  0
    6.5648   -0.5255    2.6045 H   0  0  0  0  0  0  0  0  0  0  0  0
    3.5065   -3.2133    4.1372 H   0  0  0  0  0  0  0  0  0  0  0  0
    2.3845   -2.7640    2.8982 H   0  0  0  0  0  0  0  0  0  0  0  0
    1.2247   -3.4654    4.8979 H   0  0  0  0  0  0  0  0  0  0  0  0
    0.6980   -4.3392    3.5144 H   0  0  0  0  0  0  0  0  0  0  0  0
   -0.1827   -6.3235    4.6320 H   0  0  0  0  0  0  0  0  0  0  0  0
   -0.0565   -5.2763    6.0458 H   0  0  0  0  0  0  0  0  0  0  0  0
    0.6326   -6.8943    6.0991 H   0  0  0  0  0  0  0  0  0  0  0  0
    2.7256   -7.2426    5.2026 H   0  0  0  0  0  0  0  0  0  0  0  0
    4.2622   -5.2388    5.1959 H   0  0  0  0  0  0  0  0  0  0  0  0
    4.8211   -6.7978    4.7269 H   0  0  0  0  0  0  0  0  0  0  0  0
    5.3949   -4.7099    3.3654 H   0  0  0  0  0  0  0  0  0  0  0  0
    2.2306   -5.1704    5.7922 H   0  0  0  0  0  0  0  0  0  0  0  0
  1  2  1  0
  1 30  1  0
  1 31  1  0
  1 32  1  0
  2  3  1  0
  2 33  1  0
  2 34  1  0
  3  4  1  0
  3 35  1  0
  3 36  1  0
  4 29  1  0
  4  5  1  0
  5  6  1  0
  5 37  1  0
  5 38  1  0
  6  7  1  0
  6 39  1  0
  6 40  1  0
  7 27  1  0
  7  8  1  1
  7 10  1  0
  8  9  1  0
  9 41  1  0
  9 42  1  0
  9 43  1  0
 10 11  1  0
 11 22  1  0
 11 12  1  0
 11 44  1  6
 12 13  1  0
 12 45  1  0
 12 46  1  0
 13 21  2  0
 13 14  1  0
 14 15  2  0
 14 47  1  0
 15 16  1  0
 15 48  1  0
 16 17  1  0
 16 18  2  0
 17 49  1  0
 18 19  1  0
 18 21  1  0
 19 20  1  0
 20 50  1  0
 20 51  1  0
 20 52  1  0
 21 22  1  0
 22 29  1  0
 22 23  1  1
 23 24  1  0
 23 53  1  0
 23 54  1  0
 24 25  1  0
 24 55  1  0
 24 56  1  0
 25 26  1  0
 25 27  1  0
 25 64  1  1
 26 57  1  0
 26 58  1  0
 26 59  1  0
 27 28  1  0
 27 60  1  1
 28 29  1  0
 28 61  1  0
 28 62  1  0
 29 63  1  1
M  CHG  1  25   1
M  END
>  <i_m_ct_stereo_status>  (166) 
1

>  <s_m_source_file>  (166) 
/var/tmp/pbs.5076255.sched01/tmpon41x2vr/43t03z2zi4.sdf

>  <i_m_source_file_index>  (166) 
31

>  <i_lp_mmshare_version>  (166) 
48012

>  <i_f3d_flags>  (166) 
0

>  <s_epik_input>  (166) 
W0NIM11bQ0gyXVtDSDJdTihbQ0gyXVtDSDJdMSlbQ0BASF0yW0NIMl1bQ0BASF0oTihbQ0gzXSlbQ0gyXVtDSDJdMylbQ0BAXTEoT1tDSDNdKU9bQ0BASF0oW0NAXTIzNClbQ0gyXWM1YzRjKE9bQ0gzXSljKFtPSF0pW2NIXVtjSF01

>  <s_epik_cmdline>  (166) 
J2VwaWtfcHl0aG9uJywgJy1waHQnLCAnMi4wJywgJy1waCcsICc3LjAnLCAnLXRuJywgJzgnLCAnLW1hJywgJzIwMCcsICctaW1hZScsICc8aW5maWxlLm1hZT4nLCAnLW9tYWUnLCAnPG91dGZpbGUubWFlPic=

>  <r_epik_Ionization_Penalty>  (166) 
0.179943

>  <r_epik_Ionization_Penalty_Charging>  (166) 
0.051972

>  <r_epik_Ionization_Penalty_Neutral>  (166) 
0.127971

>  <r_epik_State_Penalty>  (166) 
0.763407

>  <r_epik_Charging_Adjusted_Penalty>  (166) 
0.815379

>  <i_epik_Tot_Q>  (166) 
1

>  <i_epik_Tot_abs_Q>  (166) 
1

>  <s_lp_Force_Field>  (166) 
OPLS3e

>  <r_lp_Energy>  (166) 
70.971

>  <b_lp_Chiralities_Consistent>  (166) 
1

>  <s_lp_Variant>  (166) 
45:0-2

>  <s_i_glide_gridfile>  (166) 
pfpi4k_grid

>  <i_i_glide_lignum>  (166) 
31

>  <i_i_glide_rotatable_bonds>  (166) 
5

>  <r_i_docking_score>  (166) 
-2.59418

>  <r_i_glide_ligand_efficiency>  (166) 
-0.0894545

>  <r_i_glide_ligand_efficiency_sa>  (166) 
-0.274833

>  <r_i_glide_ligand_efficiency_ln>  (166) 
-0.594001

>  <r_i_glide_gscore>  (166) 
-2.59418

>  <r_i_glide_lipo>  (166) 
-0.307232

>  <r_i_glide_hbond>  (166) 
0

>  <r_i_glide_metal>  (166) 
-0

>  <r_i_glide_rewards>  (166) 
-0.657716

>  <r_i_glide_evdw>  (166) 
-22.6132

>  <r_i_glide_ecoul>  (166) 
-4.0941

>  <r_i_glide_erotb>  (166) 
0.120574

>  <r_i_glide_esite>  (166) 
-0.00503348

>  <r_i_glide_emodel>  (166) 
-28.9275

>  <r_i_glide_energy>  (166) 
-26.7073

>  <r_i_glide_einternal>  (166) 
2.72134

>  <r_i_glide_intrahb_reward>  (166) 
-0

>  <i_i_glide_confnum>  (166) 
1

>  <i_i_glide_posenum>  (166) 
34

>  <r_i_glide_eff_state_penalty>  (166) 
0

>  <ligand_id>  (166) 
45

>  <original_smiles>  (166) 
CCCN1CCC2(OC)OC3Cc4ccc(O)c(OC)c4C34CCN(C)C2CC14

>  <smiles>  (166) 
[H]Oc1c([H])c([H])c2c(c1OC([H])([H])[H])C13C([H])([H])C([H])([H])[N+]([H])(C([H])([H])[H])C4([H])C([H])([H])C1([H])N(C([H])([H])C([H])([H])C([H])([H])[H])C([H])([H])C([H])([H])C4(OC([H])([H])[H])OC3([H])C2([H])[H]

$$$$
45:2:0
     RDKit          3D

 65 69  0  0  1  0  0  0  0  0999 V2000
    7.5246   -5.8923    3.0674 C   0  0  0  0  0  0  0  0  0  0  0  0
    6.5465   -4.8432    2.4932 C   0  0  0  0  0  0  0  0  0  0  0  0
    7.1070   -4.1192    1.2421 C   0  0  0  0  0  0  0  0  0  0  0  0
    6.1020   -3.2825    0.5099 N   0  0  1  0  0  0  0  0  0  0  0  0
    6.8022   -2.4218   -0.4861 C   0  0  0  0  0  0  0  0  0  0  0  0
    5.9650   -1.3888   -1.3004 C   0  0  0  0  0  0  0  0  0  0  0  0
    4.6118   -1.7775   -1.9493 C   0  0  2  0  0  0  0  0  0  0  0  0
    4.5785   -1.0392   -3.1385 O   0  0  0  0  0  0  0  0  0  0  0  0
    3.7992    0.1404   -3.1633 C   0  0  0  0  0  0  0  0  0  0  0  0
    3.5792   -1.3927   -1.0890 O   0  0  0  0  0  0  0  0  0  0  0  0
    3.3992   -1.9756    0.1878 C   0  0  2  0  0  0  0  0  0  0  0  0
    3.9025   -1.2545    1.4429 C   0  0  0  0  0  0  0  0  0  0  0  0
    3.6882   -2.3352    2.4673 C   0  0  0  0  0  0  0  0  0  0  0  0
    3.7054   -2.1678    3.8425 C   0  0  0  0  0  0  0  0  0  0  0  0
    3.4792   -3.3040    4.6487 C   0  0  0  0  0  0  0  0  0  0  0  0
    3.2171   -4.5681    4.0609 C   0  0  0  0  0  0  0  0  0  0  0  0
    2.9549   -5.6096    4.9027 O   0  0  0  0  0  0  0  0  0  0  0  0
    3.2090   -4.7373    2.6615 C   0  0  0  0  0  0  0  0  0  0  0  0
    2.9326   -5.9503    2.0478 O   0  0  0  0  0  0  0  0  0  0  0  0
    3.7939   -7.0659    2.3119 C   0  0  0  0  0  0  0  0  0  0  0  0
    3.4526   -3.5913    1.8694 C   0  0  0  0  0  0  0  0  0  0  0  0
    3.5603   -3.4982    0.3606 C   0  0  1  0  0  0  0  0  0  0  0  0
    2.4417   -4.2249   -0.4432 C   0  0  0  0  0  0  0  0  0  0  0  0
    2.0516   -3.6252   -1.8274 C   0  0  0  0  0  0  0  0  0  0  0  0
    3.0899   -3.6125   -2.8822 N   0  0  1  0  0  0  0  0  0  0  0  0
    2.6288   -2.9925   -4.1504 C   0  0  0  0  0  0  0  0  0  0  0  0
    4.4549   -3.2308   -2.4642 C   0  0  2  0  0  0  0  0  0  0  0  0
    5.0490   -4.2758   -1.5424 C   0  0  0  0  0  0  0  0  0  0  0  0
    4.9382   -4.0459   -0.0502 C   0  0  1  0  0  0  0  0  0  0  0  0
    7.0210   -6.4277    3.8692 H   0  0  0  0  0  0  0  0  0  0  0  0
    8.4501   -5.4674    3.4706 H   0  0  0  0  0  0  0  0  0  0  0  0
    7.7927   -6.6502    2.3224 H   0  0  0  0  0  0  0  0  0  0  0  0
    5.6672   -5.3938    2.2046 H   0  0  0  0  0  0  0  0  0  0  0  0
    6.2024   -4.1264    3.2597 H   0  0  0  0  0  0  0  0  0  0  0  0
    7.9212   -3.4627    1.5689 H   0  0  0  0  0  0  0  0  0  0  0  0
    7.5729   -4.8359    0.5460 H   0  0  0  0  0  0  0  0  0  0  0  0
    7.5365   -1.8488    0.0714 H   0  0  0  0  0  0  0  0  0  0  0  0
    7.4354   -3.0152   -1.1561 H   0  0  0  0  0  0  0  0  0  0  0  0
    5.8358   -0.4543   -0.7377 H   0  0  0  0  0  0  0  0  0  0  0  0
    6.5719   -1.1913   -2.1678 H   0  0  0  0  0  0  0  0  0  0  0  0
    3.7607    0.5505   -4.1677 H   0  0  0  0  0  0  0  0  0  0  0  0
    4.2269    0.8888   -2.5236 H   0  0  0  0  0  0  0  0  0  0  0  0
    2.7719   -0.0502   -2.8551 H   0  0  0  0  0  0  0  0  0  0  0  0
    2.3283   -1.8598    0.3219 H   0  0  0  0  0  0  0  0  0  0  0  0
    4.9600   -1.0020    1.3874 H   0  0  0  0  0  0  0  0  0  0  0  0
    3.3302   -0.3495    1.6526 H   0  0  0  0  0  0  0  0  0  0  0  0
    3.8788   -1.1971    4.2892 H   0  0  0  0  0  0  0  0  0  0  0  0
    3.4758   -3.2094    5.7162 H   0  0  0  0  0  0  0  0  0  0  0  0
    2.8908   -6.4485    4.4745 H   0  0  0  0  0  0  0  0  0  0  0  0
    3.2519   -8.0086    2.1737 H   0  0  0  0  0  0  0  0  0  0  0  0
    4.2330   -7.0618    3.3106 H   0  0  0  0  0  0  0  0  0  0  0  0
    4.6288   -7.0743    1.6067 H   0  0  0  0  0  0  0  0  0  0  0  0
    2.6009   -5.3055   -0.4849 H   0  0  0  0  0  0  0  0  0  0  0  0
    1.5390   -4.1426    0.1308 H   0  0  0  0  0  0  0  0  0  0  0  0
    1.2660   -4.2467   -2.2165 H   0  0  0  0  0  0  0  0  0  0  0  0
    1.5791   -2.6538   -1.7561 H   0  0  0  0  0  0  0  0  0  0  0  0
    2.3333   -1.9374   -4.0520 H   0  0  0  0  0  0  0  0  0  0  0  0
    1.7589   -3.5394   -4.5150 H   0  0  0  0  0  0  0  0  0  0  0  0
    3.4114   -3.0712   -4.9107 H   0  0  0  0  0  0  0  0  0  0  0  0
    5.0816   -3.3070   -3.3570 H   0  0  0  0  0  0  0  0  0  0  0  0
    4.6204   -5.2471   -1.7502 H   0  0  0  0  0  0  0  0  0  0  0  0
    6.0860   -4.3420   -1.8050 H   0  0  0  0  0  0  0  0  0  0  0  0
    4.9647   -5.0712    0.3116 H   0  0  0  0  0  0  0  0  0  0  0  0
    5.7055   -2.6687    1.2180 H   0  0  0  0  0  0  0  0  0  0  0  0
    3.1618   -4.6344   -3.0384 H   0  0  0  0  0  0  0  0  0  0  0  0
  1  2  1  0
  1 30  1  0
  1 31  1  0
  1 32  1  0
  2  3  1  0
  2 33  1  0
  2 34  1  0
  3  4  1  0
  3 35  1  0
  3 36  1  0
  4 29  1  0
  4  5  1  0
  4 64  1  1
  5  6  1  0
  5 37  1  0
  5 38  1  0
  6  7  1  0
  6 39  1  0
  6 40  1  0
  7 27  1  0
  7  8  1  6
  7 10  1  0
  8  9  1  0
  9 41  1  0
  9 42  1  0
  9 43  1  0
 10 11  1  0
 11 22  1  0
 11 12  1  0
 11 44  1  1
 12 13  1  0
 12 45  1  0
 12 46  1  0
 13 21  2  0
 13 14  1  0
 14 15  2  0
 14 47  1  0
 15 16  1  0
 15 48  1  0
 16 17  1  0
 16 18  2  0
 17 49  1  0
 18 19  1  0
 18 21  1  0
 19 20  1  0
 20 50  1  0
 20 51  1  0
 20 52  1  0
 21 22  1  0
 22 29  1  0
 22 23  1  6
 23 24  1  0
 23 53  1  0
 23 54  1  0
 24 25  1  0
 24 55  1  0
 24 56  1  0
 25 26  1  0
 25 27  1  0
 25 65  1  6
 26 57  1  0
 26 58  1  0
 26 59  1  0
 27 28  1  0
 27 60  1  6
 28 29  1  0
 28 61  1  0
 28 62  1  0
 29 63  1  1
M  CHG  2   4   1  25   1
M  END
>  <i_m_ct_stereo_status>  (167) 
1

>  <s_m_source_file>  (167) 
/var/tmp/pbs.5076255.sched01/tmpon41x2vr/43t03z2zi4.sdf

>  <i_m_source_file_index>  (167) 
32

>  <i_lp_mmshare_version>  (167) 
48012

>  <i_f3d_flags>  (167) 
0

>  <s_epik_input>  (167) 
W0NIM11bQ0gyXVtDSDJdTihbQ0gyXVtDSDJdMSlbQ0BASF0yW0NIMl1bQ0BASF0oTihbQ0gzXSlbQ0gyXVtDSDJdMylbQ0BAXTEoT1tDSDNdKU9bQ0BASF0oW0NAXTIzNClbQ0gyXWM1YzRjKE9bQ0gzXSljKFtPSF0pW2NIXVtjSF01

>  <s_epik_cmdline>  (167) 
J2VwaWtfcHl0aG9uJywgJy1waHQnLCAnMi4wJywgJy1waCcsICc3LjAnLCAnLXRuJywgJzgnLCAnLW1hJywgJzIwMCcsICctaW1hZScsICc8aW5maWxlLm1hZT4nLCAnLW9tYWUnLCAnPG91dGZpbGUubWFlPic=

>  <r_lp_tautomer_probability>  (167) 
1

>  <r_epik_Ionization_Penalty>  (167) 
2.29757

>  <r_epik_Ionization_Penalty_Charging>  (167) 
2.29548

>  <r_epik_Ionization_Penalty_Neutral>  (167) 
0.00209715

>  <r_epik_State_Penalty>  (167) 
1.63446

>  <r_epik_Charging_Adjusted_Penalty>  (167) 
3.92994

>  <i_epik_Tot_Q>  (167) 
2

>  <i_epik_Tot_abs_Q>  (167) 
2

>  <s_lp_Force_Field>  (167) 
OPLS3e

>  <r_lp_Energy>  (167) 
79.2446

>  <b_lp_Chiralities_Consistent>  (167) 
1

>  <s_lp_Variant>  (167) 
45:0-3

>  <s_i_glide_gridfile>  (167) 
pfpi4k_grid

>  <i_i_glide_lignum>  (167) 
32

>  <i_i_glide_rotatable_bonds>  (167) 
5

>  <r_i_docking_score>  (167) 
-2.71321

>  <r_i_glide_ligand_efficiency>  (167) 
-0.0935589

>  <r_i_glide_ligand_efficiency_sa>  (167) 
-0.287443

>  <r_i_glide_ligand_efficiency_ln>  (167) 
-0.621256

>  <r_i_glide_gscore>  (167) 
-2.71321

>  <r_i_glide_lipo>  (167) 
-0.330276

>  <r_i_glide_hbond>  (167) 
0

>  <r_i_glide_metal>  (167) 
-0

>  <r_i_glide_rewards>  (167) 
-0.650844

>  <r_i_glide_evdw>  (167) 
-11.5604

>  <r_i_glide_ecoul>  (167) 
-8.25323

>  <r_i_glide_erotb>  (167) 
0.120034

>  <r_i_glide_esite>  (167) 
-0.0361187

>  <r_i_glide_emodel>  (167) 
-20.8301

>  <r_i_glide_energy>  (167) 
-19.8136

>  <r_i_glide_einternal>  (167) 
6.14781

>  <r_i_glide_intrahb_reward>  (167) 
-0

>  <i_i_glide_confnum>  (167) 
4

>  <i_i_glide_posenum>  (167) 
12

>  <r_i_glide_eff_state_penalty>  (167) 
0

>  <ligand_id>  (167) 
45

>  <original_smiles>  (167) 
CCCN1CCC2(OC)OC3Cc4ccc(O)c(OC)c4C34CCN(C)C2CC14

>  <smiles>  (167) 
[H]Oc1c([H])c([H])c2c(c1OC([H])([H])[H])C13C([H])([H])C([H])([H])[N+]([H])(C([H])([H])[H])C4([H])C([H])([H])C1([H])[N+]([H])(C([H])([H])C([H])([H])C([H])([H])[H])C([H])([H])C([H])([H])C4(OC([H])([H])[H])OC3([H])C2([H])[H]

$$$$
45:2:1
     RDKit          3D

 65 69  0  0  1  0  0  0  0  0999 V2000
    7.8818   -6.6401    1.7969 C   0  0  0  0  0  0  0  0  0  0  0  0
    6.3690   -6.7490    2.0453 C   0  0  0  0  0  0  0  0  0  0  0  0
    5.9001   -8.1718    2.3899 C   0  0  0  0  0  0  0  0  0  0  0  0
    4.4288   -8.2942    2.5866 N   0  0  1  0  0  0  0  0  0  0  0  0
    4.0319   -9.7054    2.3598 C   0  0  0  0  0  0  0  0  0  0  0  0
    2.5387  -10.0700    2.3753 C   0  0  0  0  0  0  0  0  0  0  0  0
    1.6407   -9.5886    3.5844 C   0  0  2  0  0  0  0  0  0  0  0  0
    0.6379  -10.5681    3.7589 O   0  0  0  0  0  0  0  0  0  0  0  0
    0.9237  -11.8785    4.2771 C   0  0  0  0  0  0  0  0  0  0  0  0
    0.9608   -8.4508    3.1228 O   0  0  0  0  0  0  0  0  0  0  0  0
    1.5991   -7.2062    2.8028 C   0  0  2  0  0  0  0  0  0  0  0  0
    1.9358   -6.8593    1.3355 C   0  0  0  0  0  0  0  0  0  0  0  0
    2.8364   -5.6597    1.5231 C   0  0  0  0  0  0  0  0  0  0  0  0
    3.2300   -4.7539    0.5126 C   0  0  0  0  0  0  0  0  0  0  0  0
    4.0818   -3.6915    0.8910 C   0  0  0  0  0  0  0  0  0  0  0  0
    4.5160   -3.5326    2.2189 C   0  0  0  0  0  0  0  0  0  0  0  0
    5.3905   -2.5103    2.4765 O   0  0  0  0  0  0  0  0  0  0  0  0
    4.0950   -4.4469    3.2465 C   0  0  0  0  0  0  0  0  0  0  0  0
    4.4692   -4.4063    4.5629 O   0  0  0  0  0  0  0  0  0  0  0  0
    4.7715   -3.1475    5.1560 C   0  0  0  0  0  0  0  0  0  0  0  0
    3.2536   -5.5216    2.8293 C   0  0  0  0  0  0  0  0  0  0  0  0
    2.7519   -6.6815    3.7024 C   0  0  1  0  0  0  0  0  0  0  0  0
    2.1487   -6.2367    5.0743 C   0  0  0  0  0  0  0  0  0  0  0  0
    1.0453   -7.1501    5.6900 C   0  0  0  0  0  0  0  0  0  0  0  0
    1.4228   -8.5566    5.9993 N   0  0  1  0  0  0  0  0  0  0  0  0
    0.2522   -9.3322    6.4756 C   0  0  0  0  0  0  0  0  0  0  0  0
    2.2833   -9.2863    5.0119 C   0  0  2  0  0  0  0  0  0  0  0  0
    3.6964   -8.7095    4.9706 C   0  0  0  0  0  0  0  0  0  0  0  0
    3.9362   -7.6813    3.8692 C   0  0  1  0  0  0  0  0  0  0  0  0
    8.1529   -5.6064    1.5754 H   0  0  0  0  0  0  0  0  0  0  0  0
    8.2078   -7.2539    0.9549 H   0  0  0  0  0  0  0  0  0  0  0  0
    8.4574   -6.9418    2.6744 H   0  0  0  0  0  0  0  0  0  0  0  0
    6.1310   -6.0694    2.8614 H   0  0  0  0  0  0  0  0  0  0  0  0
    5.8397   -6.3896    1.1597 H   0  0  0  0  0  0  0  0  0  0  0  0
    6.2110   -8.8078    1.5596 H   0  0  0  0  0  0  0  0  0  0  0  0
    6.4348   -8.5561    3.2591 H   0  0  0  0  0  0  0  0  0  0  0  0
    4.3524   -9.9691    1.3544 H   0  0  0  0  0  0  0  0  0  0  0  0
    4.5855  -10.3987    2.9934 H   0  0  0  0  0  0  0  0  0  0  0  0
    2.0279   -9.8105    1.4370 H   0  0  0  0  0  0  0  0  0  0  0  0
    2.5854  -11.1545    2.3349 H   0  0  0  0  0  0  0  0  0  0  0  0
    0.0000  -12.4587    4.3206 H   0  0  0  0  0  0  0  0  0  0  0  0
    1.3198  -11.9002    5.2860 H   0  0  0  0  0  0  0  0  0  0  0  0
    1.6227  -12.4292    3.6614 H   0  0  0  0  0  0  0  0  0  0  0  0
    0.7826   -6.5006    2.9765 H   0  0  0  0  0  0  0  0  0  0  0  0
    2.5010   -7.6524    0.8773 H   0  0  0  0  0  0  0  0  0  0  0  0
    1.0582   -6.6344    0.7285 H   0  0  0  0  0  0  0  0  0  0  0  0
    2.9136   -4.8675   -0.5082 H   0  0  0  0  0  0  0  0  0  0  0  0
    4.4177   -2.9983    0.1300 H   0  0  0  0  0  0  0  0  0  0  0  0
    5.5611   -1.9520    1.7300 H   0  0  0  0  0  0  0  0  0  0  0  0
    4.6212   -3.2088    6.2340 H   0  0  0  0  0  0  0  0  0  0  0  0
    4.1176   -2.3583    4.7815 H   0  0  0  0  0  0  0  0  0  0  0  0
    5.8119   -2.8685    4.9836 H   0  0  0  0  0  0  0  0  0  0  0  0
    2.9363   -6.0355    5.8047 H   0  0  0  0  0  0  0  0  0  0  0  0
    1.6565   -5.2719    4.9184 H   0  0  0  0  0  0  0  0  0  0  0  0
    0.7378   -6.7000    6.6327 H   0  0  0  0  0  0  0  0  0  0  0  0
    0.1443   -7.1315    5.0815 H   0  0  0  0  0  0  0  0  0  0  0  0
   -0.5407   -9.4091    5.7322 H   0  0  0  0  0  0  0  0  0  0  0  0
   -0.1777   -8.8701    7.3621 H   0  0  0  0  0  0  0  0  0  0  0  0
    0.5295  -10.3383    6.7704 H   0  0  0  0  0  0  0  0  0  0  0  0
    2.5152  -10.2231    5.5052 H   0  0  0  0  0  0  0  0  0  0  0  0
    3.9063   -8.2571    5.9404 H   0  0  0  0  0  0  0  0  0  0  0  0
    4.4200   -9.5217    4.9244 H   0  0  0  0  0  0  0  0  0  0  0  0
    4.7560   -7.0949    4.2760 H   0  0  0  0  0  0  0  0  0  0  0  0
    4.0108   -7.7534    1.8410 H   0  0  0  0  0  0  0  0  0  0  0  0
    2.0153   -8.5022    6.8112 H   0  0  0  0  0  0  0  0  0  0  0  0
  1  2  1  0
  1 30  1  0
  1 31  1  0
  1 32  1  0
  2  3  1  0
  2 33  1  0
  2 34  1  0
  3  4  1  0
  3 35  1  0
  3 36  1  0
  4 29  1  0
  4  5  1  0
  4 64  1  6
  5  6  1  0
  5 37  1  0
  5 38  1  0
  6  7  1  0
  6 39  1  0
  6 40  1  0
  7 27  1  0
  7  8  1  1
  7 10  1  0
  8  9  1  0
  9 41  1  0
  9 42  1  0
  9 43  1  0
 10 11  1  0
 11 22  1  0
 11 12  1  0
 11 44  1  1
 12 13  1  0
 12 45  1  0
 12 46  1  0
 13 21  2  0
 13 14  1  0
 14 15  2  0
 14 47  1  0
 15 16  1  0
 15 48  1  0
 16 17  1  0
 16 18  2  0
 17 49  1  0
 18 19  1  0
 18 21  1  0
 19 20  1  0
 20 50  1  0
 20 51  1  0
 20 52  1  0
 21 22  1  0
 22 29  1  0
 22 23  1  1
 23 24  1  0
 23 53  1  0
 23 54  1  0
 24 25  1  0
 24 55  1  0
 24 56  1  0
 25 26  1  0
 25 27  1  0
 25 65  1  1
 26 57  1  0
 26 58  1  0
 26 59  1  0
 27 28  1  0
 27 60  1  1
 28 29  1  0
 28 61  1  0
 28 62  1  0
 29 63  1  1
M  CHG  2   4   1  25   1
M  END
>  <i_m_ct_stereo_status>  (168) 
1

>  <s_m_source_file>  (168) 
/var/tmp/pbs.5076255.sched01/tmpon41x2vr/43t03z2zi4.sdf

>  <i_m_source_file_index>  (168) 
32

>  <i_lp_mmshare_version>  (168) 
48012

>  <i_f3d_flags>  (168) 
0

>  <s_epik_input>  (168) 
W0NIM11bQ0gyXVtDSDJdTihbQ0gyXVtDSDJdMSlbQ0BASF0yW0NIMl1bQ0BASF0oTihbQ0gzXSlbQ0gyXVtDSDJdMylbQ0BAXTEoT1tDSDNdKU9bQ0BASF0oW0NAXTIzNClbQ0gyXWM1YzRjKE9bQ0gzXSljKFtPSF0pW2NIXVtjSF01

>  <s_epik_cmdline>  (168) 
J2VwaWtfcHl0aG9uJywgJy1waHQnLCAnMi4wJywgJy1waCcsICc3LjAnLCAnLXRuJywgJzgnLCAnLW1hJywgJzIwMCcsICctaW1hZScsICc8aW5maWxlLm1hZT4nLCAnLW9tYWUnLCAnPG91dGZpbGUubWFlPic=

>  <r_lp_tautomer_probability>  (168) 
1

>  <r_epik_Ionization_Penalty>  (168) 
2.29757

>  <r_epik_Ionization_Penalty_Charging>  (168) 
2.29548

>  <r_epik_Ionization_Penalty_Neutral>  (168) 
0.00209715

>  <r_epik_State_Penalty>  (168) 
1.63446

>  <r_epik_Charging_Adjusted_Penalty>  (168) 
3.92994

>  <i_epik_Tot_Q>  (168) 
2

>  <i_epik_Tot_abs_Q>  (168) 
2

>  <s_lp_Force_Field>  (168) 
OPLS3e

>  <r_lp_Energy>  (168) 
79.2446

>  <b_lp_Chiralities_Consistent>  (168) 
1

>  <s_lp_Variant>  (168) 
45:0-3

>  <s_i_glide_gridfile>  (168) 
pfpi4k_grid

>  <i_i_glide_lignum>  (168) 
32

>  <i_i_glide_rotatable_bonds>  (168) 
5

>  <r_i_docking_score>  (168) 
-2.32361

>  <r_i_glide_ligand_efficiency>  (168) 
-0.0801245

>  <r_i_glide_ligand_efficiency_sa>  (168) 
-0.246168

>  <r_i_glide_ligand_efficiency_ln>  (168) 
-0.532048

>  <r_i_glide_gscore>  (168) 
-2.32361

>  <r_i_glide_lipo>  (168) 
-0.121743

>  <r_i_glide_hbond>  (168) 
0

>  <r_i_glide_metal>  (168) 
-0

>  <r_i_glide_rewards>  (168) 
-0.650844

>  <r_i_glide_evdw>  (168) 
-20.0152

>  <r_i_glide_ecoul>  (168) 
-4.24515

>  <r_i_glide_erotb>  (168) 
0.120034

>  <r_i_glide_esite>  (168) 
-0.0335237

>  <r_i_glide_emodel>  (168) 
-21.9983

>  <r_i_glide_energy>  (168) 
-24.2604

>  <r_i_glide_einternal>  (168) 
13.7359

>  <r_i_glide_intrahb_reward>  (168) 
-0

>  <i_i_glide_confnum>  (168) 
1

>  <i_i_glide_posenum>  (168) 
34

>  <r_i_glide_eff_state_penalty>  (168) 
0

>  <ligand_id>  (168) 
45

>  <original_smiles>  (168) 
CCCN1CCC2(OC)OC3Cc4ccc(O)c(OC)c4C34CCN(C)C2CC14

>  <smiles>  (168) 
[H]Oc1c([H])c([H])c2c(c1OC([H])([H])[H])C13C([H])([H])C([H])([H])[N+]([H])(C([H])([H])[H])C4([H])C([H])([H])C1([H])[N+]([H])(C([H])([H])C([H])([H])C([H])([H])[H])C([H])([H])C([H])([H])C4(OC([H])([H])[H])OC3([H])C2([H])[H]

$$$$
45:2:2
     RDKit          3D

 65 69  0  0  1  0  0  0  0  0999 V2000
    8.8568   -5.7827    2.3763 C   0  0  0  0  0  0  0  0  0  0  0  0
    7.9441   -4.6819    1.8248 C   0  0  0  0  0  0  0  0  0  0  0  0
    7.5880   -4.7663    0.3596 C   0  0  0  0  0  0  0  0  0  0  0  0
    6.5066   -3.7845   -0.0139 N   0  0  1  0  0  0  0  0  0  0  0  0
    7.0849   -2.7768   -0.9405 C   0  0  0  0  0  0  0  0  0  0  0  0
    6.1491   -1.6446   -1.3837 C   0  0  0  0  0  0  0  0  0  0  0  0
    4.7197   -1.8964   -1.9361 C   0  0  2  0  0  0  0  0  0  0  0  0
    4.4899   -1.0586   -3.0318 O   0  0  0  0  0  0  0  0  0  0  0  0
    4.6087    0.2991   -2.8161 C   0  0  0  0  0  0  0  0  0  0  0  0
    3.8316   -1.6118   -0.9105 O   0  0  0  0  0  0  0  0  0  0  0  0
    3.7994   -2.4032    0.2797 C   0  0  2  0  0  0  0  0  0  0  0  0
    4.5112   -1.9301    1.5562 C   0  0  0  0  0  0  0  0  0  0  0  0
    4.4362   -3.1657    2.4184 C   0  0  0  0  0  0  0  0  0  0  0  0
    4.6587   -3.2367    3.8003 C   0  0  0  0  0  0  0  0  0  0  0  0
    4.5243   -4.4979    4.4268 C   0  0  0  0  0  0  0  0  0  0  0  0
    4.1632   -5.6380    3.6887 C   0  0  0  0  0  0  0  0  0  0  0  0
    4.1171   -6.8174    4.3981 O   0  0  0  0  0  0  0  0  0  0  0  0
    3.9125   -5.5664    2.2847 C   0  0  0  0  0  0  0  0  0  0  0  0
    3.5527   -6.6347    1.4664 O   0  0  0  0  0  0  0  0  0  0  0  0
    2.8620   -7.7365    2.0373 C   0  0  0  0  0  0  0  0  0  0  0  0
    4.0743   -4.3055    1.6704 C   0  0  0  0  0  0  0  0  0  0  0  0
    3.9490   -3.9355    0.1946 C   0  0  1  0  0  0  0  0  0  0  0  0
    2.6695   -4.5067   -0.4898 C   0  0  0  0  0  0  0  0  0  0  0  0
    2.1079   -3.7139   -1.7114 C   0  0  0  0  0  0  0  0  0  0  0  0
    2.9956   -3.4794   -2.8721 N   0  0  1  0  0  0  0  0  0  0  0  0
    2.3781   -2.7004   -3.9594 C   0  0  0  0  0  0  0  0  0  0  0  0
    4.4197   -3.2081   -2.6289 C   0  0  2  0  0  0  0  0  0  0  0  0
    5.1168   -4.3773   -2.0182 C   0  0  0  0  0  0  0  0  0  0  0  0
    5.2422   -4.4221   -0.5084 C   0  0  1  0  0  0  0  0  0  0  0  0
    9.0879   -5.6169    3.4313 H   0  0  0  0  0  0  0  0  0  0  0  0
    9.8125   -5.8291    1.8528 H   0  0  0  0  0  0  0  0  0  0  0  0
    8.3662   -6.7464    2.3012 H   0  0  0  0  0  0  0  0  0  0  0  0
    7.0285   -4.6211    2.4083 H   0  0  0  0  0  0  0  0  0  0  0  0
    8.5294   -3.7915    1.9378 H   0  0  0  0  0  0  0  0  0  0  0  0
    8.5074   -4.5979   -0.1955 H   0  0  0  0  0  0  0  0  0  0  0  0
    7.3472   -5.7964    0.1628 H   0  0  0  0  0  0  0  0  0  0  0  0
    7.9050   -2.2979   -0.4224 H   0  0  0  0  0  0  0  0  0  0  0  0
    7.5819   -3.2192   -1.8030 H   0  0  0  0  0  0  0  0  0  0  0  0
    6.1593   -0.7967   -0.6892 H   0  0  0  0  0  0  0  0  0  0  0  0
    6.6205   -1.3416   -2.2646 H   0  0  0  0  0  0  0  0  0  0  0  0
    4.3099    1.0041   -3.6176 H   0  0  0  0  0  0  0  0  0  0  0  0
    5.5998    0.4911   -2.5483 H   0  0  0  0  0  0  0  0  0  0  0  0
    4.1784    0.5016   -1.8814 H   0  0  0  0  0  0  0  0  0  0  0  0
    2.7627   -2.2523    0.5636 H   0  0  0  0  0  0  0  0  0  0  0  0
    5.5570   -1.7012    1.3814 H   0  0  0  0  0  0  0  0  0  0  0  0
    4.0290   -1.0627    2.0132 H   0  0  0  0  0  0  0  0  0  0  0  0
    4.9525   -2.3620    4.3725 H   0  0  0  0  0  0  0  0  0  0  0  0
    4.7253   -4.5882    5.4934 H   0  0  0  0  0  0  0  0  0  0  0  0
    3.8863   -7.5515    3.8599 H   0  0  0  0  0  0  0  0  0  0  0  0
    2.2942   -8.2436    1.2600 H   0  0  0  0  0  0  0  0  0  0  0  0
    2.1500   -7.4208    2.8015 H   0  0  0  0  0  0  0  0  0  0  0  0
    3.5631   -8.4557    2.4623 H   0  0  0  0  0  0  0  0  0  0  0  0
    2.7761   -5.5645   -0.6988 H   0  0  0  0  0  0  0  0  0  0  0  0
    1.8604   -4.4960    0.2408 H   0  0  0  0  0  0  0  0  0  0  0  0
    1.2489   -4.2600   -2.0686 H   0  0  0  0  0  0  0  0  0  0  0  0
    1.7277   -2.7576   -1.4219 H   0  0  0  0  0  0  0  0  0  0  0  0
    2.2073   -1.6934   -3.6285 H   0  0  0  0  0  0  0  0  0  0  0  0
    1.4434   -3.1438   -4.2834 H   0  0  0  0  0  0  0  0  0  0  0  0
    3.0404   -2.6673   -4.8138 H   0  0  0  0  0  0  0  0  0  0  0  0
    4.8836   -3.1632   -3.6206 H   0  0  0  0  0  0  0  0  0  0  0  0
    4.6995   -5.2977   -2.3471 H   0  0  0  0  0  0  0  0  0  0  0  0
    6.0442   -4.4160   -2.5483 H   0  0  0  0  0  0  0  0  0  0  0  0
    5.2898   -5.4762   -0.2644 H   0  0  0  0  0  0  0  0  0  0  0  0
    6.2594   -3.3036    0.8197 H   0  0  0  0  0  0  0  0  0  0  0  0
    3.0160   -4.3962   -3.2529 H   0  0  0  0  0  0  0  0  0  0  0  0
  1  2  1  0
  1 30  1  0
  1 31  1  0
  1 32  1  0
  2  3  1  0
  2 33  1  0
  2 34  1  0
  3  4  1  0
  3 35  1  0
  3 36  1  0
  4 29  1  0
  4  5  1  0
  4 64  1  1
  5  6  1  0
  5 37  1  0
  5 38  1  0
  6  7  1  0
  6 39  1  0
  6 40  1  0
  7 27  1  0
  7  8  1  6
  7 10  1  0
  8  9  1  0
  9 41  1  0
  9 42  1  0
  9 43  1  0
 10 11  1  0
 11 22  1  0
 11 12  1  0
 11 44  1  1
 12 13  1  0
 12 45  1  0
 12 46  1  0
 13 21  2  0
 13 14  1  0
 14 15  2  0
 14 47  1  0
 15 16  1  0
 15 48  1  0
 16 17  1  0
 16 18  2  0
 17 49  1  0
 18 19  1  0
 18 21  1  0
 19 20  1  0
 20 50  1  0
 20 51  1  0
 20 52  1  0
 21 22  1  0
 22 29  1  0
 22 23  1  6
 23 24  1  0
 23 53  1  0
 23 54  1  0
 24 25  1  0
 24 55  1  0
 24 56  1  0
 25 26  1  0
 25 27  1  0
 25 65  1  6
 26 57  1  0
 26 58  1  0
 26 59  1  0
 27 28  1  0
 27 60  1  6
 28 29  1  0
 28 61  1  0
 28 62  1  0
 29 63  1  1
M  CHG  2   4   1  25   1
M  END
>  <i_m_ct_stereo_status>  (169) 
1

>  <s_m_source_file>  (169) 
/var/tmp/pbs.5076255.sched01/tmpon41x2vr/43t03z2zi4.sdf

>  <i_m_source_file_index>  (169) 
32

>  <i_lp_mmshare_version>  (169) 
48012

>  <i_f3d_flags>  (169) 
0

>  <s_epik_input>  (169) 
W0NIM11bQ0gyXVtDSDJdTihbQ0gyXVtDSDJdMSlbQ0BASF0yW0NIMl1bQ0BASF0oTihbQ0gzXSlbQ0gyXVtDSDJdMylbQ0BAXTEoT1tDSDNdKU9bQ0BASF0oW0NAXTIzNClbQ0gyXWM1YzRjKE9bQ0gzXSljKFtPSF0pW2NIXVtjSF01

>  <s_epik_cmdline>  (169) 
J2VwaWtfcHl0aG9uJywgJy1waHQnLCAnMi4wJywgJy1waCcsICc3LjAnLCAnLXRuJywgJzgnLCAnLW1hJywgJzIwMCcsICctaW1hZScsICc8aW5maWxlLm1hZT4nLCAnLW9tYWUnLCAnPG91dGZpbGUubWFlPic=

>  <r_lp_tautomer_probability>  (169) 
1

>  <r_epik_Ionization_Penalty>  (169) 
2.29757

>  <r_epik_Ionization_Penalty_Charging>  (169) 
2.29548

>  <r_epik_Ionization_Penalty_Neutral>  (169) 
0.00209715

>  <r_epik_State_Penalty>  (169) 
1.63446

>  <r_epik_Charging_Adjusted_Penalty>  (169) 
3.92994

>  <i_epik_Tot_Q>  (169) 
2

>  <i_epik_Tot_abs_Q>  (169) 
2

>  <s_lp_Force_Field>  (169) 
OPLS3e

>  <r_lp_Energy>  (169) 
79.2446

>  <b_lp_Chiralities_Consistent>  (169) 
1

>  <s_lp_Variant>  (169) 
45:0-3

>  <s_i_glide_gridfile>  (169) 
pfpi4k_grid

>  <i_i_glide_lignum>  (169) 
32

>  <i_i_glide_rotatable_bonds>  (169) 
5

>  <r_i_docking_score>  (169) 
-2.07394

>  <r_i_glide_ligand_efficiency>  (169) 
-0.0715151

>  <r_i_glide_ligand_efficiency_sa>  (169) 
-0.219717

>  <r_i_glide_ligand_efficiency_ln>  (169) 
-0.474879

>  <r_i_glide_gscore>  (169) 
-2.07394

>  <r_i_glide_lipo>  (169) 
-0.567069

>  <r_i_glide_hbond>  (169) 
0

>  <r_i_glide_metal>  (169) 
-0

>  <r_i_glide_rewards>  (169) 
-0.650844

>  <r_i_glide_evdw>  (169) 
1.00839

>  <r_i_glide_ecoul>  (169) 
-6.68137

>  <r_i_glide_erotb>  (169) 
0.120034

>  <r_i_glide_esite>  (169) 
-0.0242717

>  <r_i_glide_emodel>  (169) 
-4.86213

>  <r_i_glide_energy>  (169) 
-5.67298

>  <r_i_glide_einternal>  (169) 
4.00828

>  <r_i_glide_intrahb_reward>  (169) 
-0

>  <i_i_glide_confnum>  (169) 
6

>  <i_i_glide_posenum>  (169) 
26

>  <r_i_glide_eff_state_penalty>  (169) 
0

>  <ligand_id>  (169) 
45

>  <original_smiles>  (169) 
CCCN1CCC2(OC)OC3Cc4ccc(O)c(OC)c4C34CCN(C)C2CC14

>  <smiles>  (169) 
[H]Oc1c([H])c([H])c2c(c1OC([H])([H])[H])C13C([H])([H])C([H])([H])[N+]([H])(C([H])([H])[H])C4([H])C([H])([H])C1([H])[N+]([H])(C([H])([H])C([H])([H])C([H])([H])[H])C([H])([H])C([H])([H])C4(OC([H])([H])[H])OC3([H])C2([H])[H]

$$$$
45:3:0
     RDKit          3D

 63 67  0  0  1  0  0  0  0  0999 V2000
    8.0878   -5.6426    2.8240 C   0  0  0  0  0  0  0  0  0  0  0  0
    7.4059   -5.3918    1.4767 C   0  0  0  0  0  0  0  0  0  0  0  0
    6.8605   -3.9484    1.3655 C   0  0  0  0  0  0  0  0  0  0  0  0
    6.3800   -3.6607    0.0120 N   0  0  0  0  0  0  0  0  0  0  0  0
    6.6369   -2.2795   -0.3694 C   0  0  0  0  0  0  0  0  0  0  0  0
    6.2288   -1.8004   -1.7951 C   0  0  0  0  0  0  0  0  0  0  0  0
    4.7584   -1.8649   -2.1461 C   0  0  2  0  0  0  0  0  0  0  0  0
    4.6149   -1.0461   -3.2917 O   0  0  0  0  0  0  0  0  0  0  0  0
    3.8095    0.1159   -3.1472 C   0  0  0  0  0  0  0  0  0  0  0  0
    4.0265   -1.3657   -1.0388 O   0  0  0  0  0  0  0  0  0  0  0  0
    3.5907   -2.1142    0.0802 C   0  0  2  0  0  0  0  0  0  0  0  0
    3.7999   -1.4854    1.4700 C   0  0  0  0  0  0  0  0  0  0  0  0
    3.7125   -2.6846    2.3606 C   0  0  0  0  0  0  0  0  0  0  0  0
    3.7328   -2.6341    3.7654 C   0  0  0  0  0  0  0  0  0  0  0  0
    3.7245   -3.8641    4.4596 C   0  0  0  0  0  0  0  0  0  0  0  0
    3.6699   -5.0944    3.7671 C   0  0  0  0  0  0  0  0  0  0  0  0
    3.7480   -6.2291    4.4994 O   0  0  0  0  0  0  0  0  0  0  0  0
    3.6155   -5.1308    2.3412 C   0  0  0  0  0  0  0  0  0  0  0  0
    3.5940   -6.2954    1.6327 O   0  0  0  0  0  0  0  0  0  0  0  0
    2.5743   -7.2442    1.9445 C   0  0  0  0  0  0  0  0  0  0  0  0
    3.6676   -3.8703    1.6708 C   0  0  0  0  0  0  0  0  0  0  0  0
    3.7623   -3.6563    0.1764 C   0  0  1  0  0  0  0  0  0  0  0  0
    2.5503   -4.2876   -0.5733 C   0  0  0  0  0  0  0  0  0  0  0  0
    2.0320   -3.5857   -1.8622 C   0  0  0  0  0  0  0  0  0  0  0  0
    2.9640   -3.4362   -2.9690 N   0  0  0  0  0  0  0  0  0  0  0  0
    2.4524   -2.8225   -4.1849 C   0  0  0  0  0  0  0  0  0  0  0  0
    4.3572   -3.2254   -2.6662 C   0  0  2  0  0  0  0  0  0  0  0  0
    5.0906   -4.3282   -1.9043 C   0  0  0  0  0  0  0  0  0  0  0  0
    5.0875   -4.2301   -0.3807 C   0  0  1  0  0  0  0  0  0  0  0  0
    8.4331   -6.6732    2.9021 H   0  0  0  0  0  0  0  0  0  0  0  0
    7.4044   -5.4533    3.6500 H   0  0  0  0  0  0  0  0  0  0  0  0
    8.9664   -5.0031    2.9290 H   0  0  0  0  0  0  0  0  0  0  0  0
    8.1164   -5.5684    0.6735 H   0  0  0  0  0  0  0  0  0  0  0  0
    6.5930   -6.1115    1.3595 H   0  0  0  0  0  0  0  0  0  0  0  0
    6.0947   -3.7457    2.1134 H   0  0  0  0  0  0  0  0  0  0  0  0
    7.6816   -3.2561    1.5592 H   0  0  0  0  0  0  0  0  0  0  0  0
    6.2369   -1.6051    0.3485 H   0  0  0  0  0  0  0  0  0  0  0  0
    7.7143   -2.1555   -0.2916 H   0  0  0  0  0  0  0  0  0  0  0  0
    6.2261   -0.7147   -1.7766 H   0  0  0  0  0  0  0  0  0  0  0  0
    6.8602   -2.2811   -2.5574 H   0  0  0  0  0  0  0  0  0  0  0  0
    3.8085    0.6932   -4.0822 H   0  0  0  0  0  0  0  0  0  0  0  0
    4.1794    0.7444   -2.3472 H   0  0  0  0  0  0  0  0  0  0  0  0
    2.7826   -0.1679   -2.8814 H   0  0  0  0  0  0  0  0  0  0  0  0
    2.5167   -1.9773    0.0284 H   0  0  0  0  0  0  0  0  0  0  0  0
    4.7638   -0.9980    1.5890 H   0  0  0  0  0  0  0  0  0  0  0  0
    3.0150   -0.7690    1.6846 H   0  0  0  0  0  0  0  0  0  0  0  0
    3.8161   -1.7036    4.2694 H   0  0  0  0  0  0  0  0  0  0  0  0
    3.7859   -3.8676    5.5171 H   0  0  0  0  0  0  0  0  0  0  0  0
    3.7638   -7.0060    3.9846 H   0  0  0  0  0  0  0  0  0  0  0  0
    2.4462   -7.9618    1.1323 H   0  0  0  0  0  0  0  0  0  0  0  0
    1.6229   -6.7356    2.0872 H   0  0  0  0  0  0  0  0  0  0  0  0
    2.8037   -7.8225    2.8375 H   0  0  0  0  0  0  0  0  0  0  0  0
    2.7276   -5.3478   -0.7243 H   0  0  0  0  0  0  0  0  0  0  0  0
    1.7216   -4.2680    0.1141 H   0  0  0  0  0  0  0  0  0  0  0  0
    1.2501   -4.2352   -2.2233 H   0  0  0  0  0  0  0  0  0  0  0  0
    1.5694   -2.6610   -1.6726 H   0  0  0  0  0  0  0  0  0  0  0  0
    3.1785   -2.9190   -4.9897 H   0  0  0  0  0  0  0  0  0  0  0  0
    2.2038   -1.7721   -4.0769 H   0  0  0  0  0  0  0  0  0  0  0  0
    1.5673   -3.3504   -4.5049 H   0  0  0  0  0  0  0  0  0  0  0  0
    4.8742   -3.2787   -3.6358 H   0  0  0  0  0  0  0  0  0  0  0  0
    4.6718   -5.3053   -2.1517 H   0  0  0  0  0  0  0  0  0  0  0  0
    6.1001   -4.2257   -2.2914 H   0  0  0  0  0  0  0  0  0  0  0  0
    5.1225   -5.2781   -0.0608 H   0  0  0  0  0  0  0  0  0  0  0  0
  1  2  1  0
  1 30  1  0
  1 31  1  0
  1 32  1  0
  2  3  1  0
  2 33  1  0
  2 34  1  0
  3  4  1  0
  3 35  1  0
  3 36  1  0
  4 29  1  0
  4  5  1  0
  5  6  1  0
  5 37  1  0
  5 38  1  0
  6  7  1  0
  6 39  1  0
  6 40  1  0
  7 27  1  0
  7  8  1  6
  7 10  1  0
  8  9  1  0
  9 41  1  0
  9 42  1  0
  9 43  1  0
 10 11  1  0
 11 22  1  0
 11 12  1  0
 11 44  1  6
 12 13  1  0
 12 45  1  0
 12 46  1  0
 13 21  2  0
 13 14  1  0
 14 15  2  0
 14 47  1  0
 15 16  1  0
 15 48  1  0
 16 17  1  0
 16 18  2  0
 17 49  1  0
 18 19  1  0
 18 21  1  0
 19 20  1  0
 20 50  1  0
 20 51  1  0
 20 52  1  0
 21 22  1  0
 22 29  1  0
 22 23  1  6
 23 24  1  0
 23 53  1  0
 23 54  1  0
 24 25  1  0
 24 55  1  0
 24 56  1  0
 25 26  1  0
 25 27  1  0
 26 57  1  0
 26 58  1  0
 26 59  1  0
 27 28  1  0
 27 60  1  6
 28 29  1  0
 28 61  1  0
 28 62  1  0
 29 63  1  1
M  END
>  <i_m_ct_stereo_status>  (170) 
1

>  <s_m_source_file>  (170) 
/var/tmp/pbs.5076255.sched01/tmpon41x2vr/43t03z2zi4.sdf

>  <i_m_source_file_index>  (170) 
33

>  <i_lp_mmshare_version>  (170) 
48012

>  <i_f3d_flags>  (170) 
0

>  <s_epik_input>  (170) 
W0NIM11bQ0gyXVtDSDJdTihbQ0gyXVtDSDJdMSlbQ0BASF0yW0NIMl1bQ0BASF0oTihbQ0gzXSlbQ0gyXVtDSDJdMylbQ0BAXTEoT1tDSDNdKU9bQ0BASF0oW0NAXTIzNClbQ0gyXWM1YzRjKE9bQ0gzXSljKFtPSF0pW2NIXVtjSF01

>  <s_epik_cmdline>  (170) 
J2VwaWtfcHl0aG9uJywgJy1waHQnLCAnMi4wJywgJy1waCcsICc3LjAnLCAnLXRuJywgJzgnLCAnLW1hJywgJzIwMCcsICctaW1hZScsICc8aW5maWxlLm1hZT4nLCAnLW9tYWUnLCAnPG91dGZpbGUubWFlPic=

>  <r_lp_tautomer_probability>  (170) 
1

>  <r_epik_Ionization_Penalty>  (170) 
3.42857

>  <r_epik_Ionization_Penalty_Charging>  (170) 
0

>  <r_epik_Ionization_Penalty_Neutral>  (170) 
3.42857

>  <r_epik_State_Penalty>  (170) 
2.30336

>  <r_epik_Charging_Adjusted_Penalty>  (170) 
2.30336

>  <i_epik_Tot_Q>  (170) 
0

>  <i_epik_Tot_abs_Q>  (170) 
0

>  <s_lp_Force_Field>  (170) 
OPLS3e

>  <r_lp_Energy>  (170) 
69.486

>  <b_lp_Chiralities_Consistent>  (170) 
1

>  <s_lp_Variant>  (170) 
45:0-4

>  <s_i_glide_gridfile>  (170) 
pfpi4k_grid

>  <i_i_glide_lignum>  (170) 
33

>  <i_i_glide_rotatable_bonds>  (170) 
5

>  <r_i_docking_score>  (170) 
-1.73042

>  <r_i_glide_ligand_efficiency>  (170) 
-0.0596696

>  <r_i_glide_ligand_efficiency_sa>  (170) 
-0.183324

>  <r_i_glide_ligand_efficiency_ln>  (170) 
-0.396222

>  <r_i_glide_gscore>  (170) 
-1.73042

>  <r_i_glide_lipo>  (170) 
-0.436404

>  <r_i_glide_hbond>  (170) 
0

>  <r_i_glide_metal>  (170) 
-0

>  <r_i_glide_rewards>  (170) 
-0.664588

>  <r_i_glide_evdw>  (170) 
-13.9689

>  <r_i_glide_ecoul>  (170) 
-0.249889

>  <r_i_glide_erotb>  (170) 
0.121119

>  <r_i_glide_esite>  (170) 
-0.0146179

>  <r_i_glide_emodel>  (170) 
-11.6769

>  <r_i_glide_energy>  (170) 
-14.2188

>  <r_i_glide_einternal>  (170) 
3.59702

>  <r_i_glide_intrahb_reward>  (170) 
-0

>  <i_i_glide_confnum>  (170) 
3

>  <i_i_glide_posenum>  (170) 
35

>  <r_i_glide_eff_state_penalty>  (170) 
0

>  <ligand_id>  (170) 
45

>  <original_smiles>  (170) 
CCCN1CCC2(OC)OC3Cc4ccc(O)c(OC)c4C34CCN(C)C2CC14

>  <smiles>  (170) 
[H]Oc1c([H])c([H])c2c(c1OC([H])([H])[H])C13C([H])([H])C([H])([H])N(C([H])([H])[H])C4([H])C([H])([H])C1([H])N(C([H])([H])C([H])([H])C([H])([H])[H])C([H])([H])C([H])([H])C4(OC([H])([H])[H])OC3([H])C2([H])[H]

$$$$
46:0:0
     RDKit          3D

 64 70  0  0  1  0  0  0  0  0999 V2000
    2.3941   -2.7680   -3.9992 C   0  0  0  0  0  0  0  0  0  0  0  0
    3.0600   -1.9962   -2.8707 C   0  0  2  0  0  0  0  0  0  0  0  0
    3.7953   -0.7250   -3.3034 C   0  0  0  0  0  0  0  0  0  0  0  0
    4.7095   -0.4789   -2.1428 C   0  0  1  0  0  0  0  0  0  0  0  0
    4.2255   -0.5326   -0.7637 O   0  0  0  0  0  0  0  0  0  0  0  0
    4.8369   -1.7192   -1.3179 C   0  0  2  0  0  0  0  0  0  0  0  0
    6.1705   -2.0402   -0.7712 C   0  0  0  0  0  0  0  0  0  0  0  0
    7.0851   -2.3449   -1.5188 O   0  0  0  0  0  0  0  0  0  0  0  0
    6.4200   -2.0054    0.7206 C   0  0  0  0  0  0  0  0  0  0  0  0
    5.7110   -3.1651    1.4480 C   0  0  1  0  0  0  0  0  0  0  0  0
    4.1886   -3.0552    1.5724 C   0  0  1  0  0  0  0  0  0  0  0  0
    3.5992   -1.7560    1.5669 O   0  0  0  0  0  0  0  0  0  0  0  0
    3.5558   -4.0503    0.5756 C   0  0  1  0  0  0  0  0  0  0  0  0
    2.4161   -4.4778    1.3158 O   0  0  0  0  0  0  0  0  0  0  0  0
    3.0726   -3.5246   -0.8059 C   0  0  0  0  0  0  0  0  0  0  0  0
    1.8775   -3.7401   -1.1015 O   0  0  0  0  0  0  0  0  0  0  0  0
    3.9666   -2.8138   -1.8733 C   0  0  1  0  0  0  0  0  0  0  0  0
    4.8283   -3.7953   -2.7105 C   0  0  0  0  0  0  0  0  0  0  0  0
    4.6000   -5.2166    0.4753 C   0  0  2  0  0  0  0  0  0  0  0  0
    4.2343   -6.5742    1.1772 C   0  0  1  0  0  0  0  0  0  0  0  0
    4.6146   -7.6230    0.3100 O   0  0  0  0  0  0  0  0  0  0  0  0
    4.8553   -6.8031    2.5955 C   0  0  1  0  0  0  0  0  0  0  0  0
    3.7568   -6.4446    3.5918 C   0  0  0  0  0  0  0  0  0  0  0  0
    5.5166   -8.1679    2.9076 C   0  0  0  0  0  0  0  0  0  0  0  0
    6.8799   -7.5163    3.0204 C   0  0  1  0  0  0  0  0  0  0  0  0
    7.8926   -7.7099    1.9203 C   0  0  0  0  0  0  0  0  0  0  0  0
    7.6783   -6.5478    0.9393 C   0  0  0  0  0  0  0  0  0  0  0  0
    6.9500   -5.4414    1.6768 C   0  0  1  0  0  0  0  0  0  0  0  0
    8.1080   -4.7171    1.9311 O   0  0  0  0  0  0  0  0  0  0  0  0
    5.9855   -4.5850    0.8184 C   0  0  2  0  0  0  0  0  0  0  0  0
    6.2497   -6.1574    2.8389 C   0  0  1  0  0  0  0  0  0  0  0  0
    6.2858   -5.3304    3.9890 O   0  0  0  0  0  0  0  0  0  0  0  0
    3.1072   -3.0784   -4.7533 H   0  0  0  0  0  0  0  0  0  0  0  0
    1.6481   -2.1246   -4.4326 H   0  0  0  0  0  0  0  0  0  0  0  0
    1.8961   -3.6492   -3.6302 H   0  0  0  0  0  0  0  0  0  0  0  0
    2.2425   -1.5802   -2.3046 H   0  0  0  0  0  0  0  0  0  0  0  0
    4.3871   -0.8835   -4.2112 H   0  0  0  0  0  0  0  0  0  0  0  0
    3.1329    0.1130   -3.4956 H   0  0  0  0  0  0  0  0  0  0  0  0
    5.5859    0.1224   -2.2840 H   0  0  0  0  0  0  0  0  0  0  0  0
    7.4910   -2.1174    0.8617 H   0  0  0  0  0  0  0  0  0  0  0  0
    6.1421   -1.0533    1.1659 H   0  0  0  0  0  0  0  0  0  0  0  0
    6.0868   -3.1441    2.4776 H   0  0  0  0  0  0  0  0  0  0  0  0
    3.9911   -3.3907    2.5753 H   0  0  0  0  0  0  0  0  0  0  0  0
    3.4611   -1.4378    0.7019 H   0  0  0  0  0  0  0  0  0  0  0  0
    1.8950   -3.7148    1.4493 H   0  0  0  0  0  0  0  0  0  0  0  0
    5.2611   -3.2995   -3.5867 H   0  0  0  0  0  0  0  0  0  0  0  0
    4.2638   -4.6373   -3.0860 H   0  0  0  0  0  0  0  0  0  0  0  0
    5.6678   -4.2246   -2.1604 H   0  0  0  0  0  0  0  0  0  0  0  0
    4.6163   -5.4740   -0.5823 H   0  0  0  0  0  0  0  0  0  0  0  0
    3.1563   -6.7200    1.2127 H   0  0  0  0  0  0  0  0  0  0  0  0
    5.5192   -7.5286    0.0954 H   0  0  0  0  0  0  0  0  0  0  0  0
    4.0814   -6.6362    4.6192 H   0  0  0  0  0  0  0  0  0  0  0  0
    2.8577   -7.0420    3.4385 H   0  0  0  0  0  0  0  0  0  0  0  0
    3.4872   -5.3935    3.5379 H   0  0  0  0  0  0  0  0  0  0  0  0
    5.2045   -8.5868    3.8608 H   0  0  0  0  0  0  0  0  0  0  0  0
    5.4610   -8.9265    2.1338 H   0  0  0  0  0  0  0  0  0  0  0  0
    7.2661   -7.6904    4.0220 H   0  0  0  0  0  0  0  0  0  0  0  0
    8.9106   -7.6960    2.3523 H   0  0  0  0  0  0  0  0  0  0  0  0
    7.7407   -8.6398    1.3963 H   0  0  0  0  0  0  0  0  0  0  0  0
    8.5701   -6.2760    0.3624 H   0  0  0  0  0  0  0  0  0  0  0  0
    6.9050   -6.7474    0.2730 H   0  0  0  0  0  0  0  0  0  0  0  0
    7.8628   -4.0673    2.5638 H   0  0  0  0  0  0  0  0  0  0  0  0
    6.5279   -4.4765   -0.1134 H   0  0  0  0  0  0  0  0  0  0  0  0
    6.1217   -5.9074    4.6899 H   0  0  0  0  0  0  0  0  0  0  0  0
  1  2  1  0
  1 33  1  0
  1 34  1  0
  1 35  1  0
  2 17  1  0
  2  3  1  0
  2 36  1  1
  3  4  1  0
  3 37  1  0
  3 38  1  0
  4  6  1  0
  4  5  1  0
  4 39  1  6
  6  5  1  1
  6 17  1  0
  6  7  1  0
  7  8  2  0
  7  9  1  0
  9 10  1  0
  9 40  1  0
  9 41  1  0
 10 30  1  0
 10 11  1  0
 10 42  1  1
 11 12  1  0
 11 13  1  0
 11 43  1  1
 12 44  1  0
 13 14  1  1
 13 15  1  0
 13 19  1  0
 14 45  1  0
 15 16  2  0
 15 17  1  0
 17 18  1  6
 18 46  1  0
 18 47  1  0
 18 48  1  0
 19 30  1  0
 19 20  1  0
 19 49  1  6
 20 21  1  0
 20 22  1  0
 20 50  1  1
 21 51  1  0
 22 31  1  0
 22 23  1  1
 22 24  1  0
 23 52  1  0
 23 53  1  0
 23 54  1  0
 24 25  1  0
 24 55  1  0
 24 56  1  0
 25 31  1  0
 25 26  1  0
 25 57  1  1
 26 27  1  0
 26 58  1  0
 26 59  1  0
 27 28  1  0
 27 60  1  0
 27 61  1  0
 28 29  1  1
 28 30  1  0
 28 31  1  0
 29 62  1  0
 30 63  1  6
 31 32  1  1
 32 64  1  0
M  END
>  <i_m_ct_stereo_status>  (171) 
1

>  <s_m_source_file>  (171) 
/var/tmp/pbs.5076255.sched01/tmpon41x2vr/43t03z2zi4.sdf

>  <i_m_source_file_index>  (171) 
34

>  <i_lp_mmshare_version>  (171) 
48012

>  <i_f3d_flags>  (171) 
0

>  <s_epik_input>  (171) 
TzFbQ0BASF0oW0NAXTEyMylbQ0gyXVtDQEBIXShbQ0gzXSlbQ0BdMyhbQ0gzXSlDKD1PKVtDQEBdNChbT0hdKVtDQEhdNVtDQEBIXShbQ0BASF0oW0NIMl1DMj1PKVtDQEhdNFtPSF0pW0NAQF02KFtPSF0pW0NAQF03KFtPSF0pW0NAQF0oW0NIM10pKFtDQEBIXTVbT0hdKVtDSDJdW0NASF03W0NIMl1bQ0gyXTY=

>  <s_epik_cmdline>  (171) 
J2VwaWtfcHl0aG9uJywgJy1waHQnLCAnMi4wJywgJy1waCcsICc3LjAnLCAnLXRuJywgJzgnLCAnLW1hJywgJzIwMCcsICctaW1hZScsICc8aW5maWxlLm1hZT4nLCAnLW9tYWUnLCAnPG91dGZpbGUubWFlPic=

>  <r_lp_tautomer_probability>  (171) 
1

>  <r_epik_Ionization_Penalty>  (171) 
8.47298e-07

>  <r_epik_Ionization_Penalty_Charging>  (171) 
0

>  <r_epik_Ionization_Penalty_Neutral>  (171) 
8.47298e-07

>  <r_epik_State_Penalty>  (171) 
-0

>  <r_epik_Charging_Adjusted_Penalty>  (171) 
0

>  <i_epik_Tot_Q>  (171) 
0

>  <i_epik_Tot_abs_Q>  (171) 
0

>  <s_lp_Force_Field>  (171) 
OPLS3e

>  <r_lp_Energy>  (171) 
81.674

>  <b_lp_Chiralities_Consistent>  (171) 
1

>  <s_lp_Variant>  (171) 
46:0-1

>  <s_i_glide_gridfile>  (171) 
pfpi4k_grid

>  <i_i_glide_lignum>  (171) 
34

>  <i_i_glide_rotatable_bonds>  (171) 
5

>  <r_i_docking_score>  (171) 
-3.15108

>  <r_i_glide_ligand_efficiency>  (171) 
-0.0984713

>  <r_i_glide_ligand_efficiency_sa>  (171) 
-0.312627

>  <r_i_glide_ligand_efficiency_ln>  (171) 
-0.705613

>  <r_i_glide_gscore>  (171) 
-3.15108

>  <r_i_glide_lipo>  (171) 
-0.811582

>  <r_i_glide_hbond>  (171) 
-0.17016

>  <r_i_glide_metal>  (171) 
-0

>  <r_i_glide_rewards>  (171) 
-0.907603

>  <r_i_glide_evdw>  (171) 
-18.8625

>  <r_i_glide_ecoul>  (171) 
-1.81886

>  <r_i_glide_erotb>  (171) 
0

>  <r_i_glide_esite>  (171) 
-0.0457826

>  <r_i_glide_emodel>  (171) 
-26.9438

>  <r_i_glide_energy>  (171) 
-20.6813

>  <r_i_glide_einternal>  (171) 
2.71791

>  <r_i_glide_intrahb_reward>  (171) 
-0.5

>  <i_i_glide_confnum>  (171) 
1

>  <i_i_glide_posenum>  (171) 
36

>  <r_i_glide_eff_state_penalty>  (171) 
0

>  <ligand_id>  (171) 
46

>  <original_smiles>  (171) 
CC1CC2OC23C(=O)CC2C(O)C(O)(C(=O)C13C)C1C(O)C3(C)CC4CCC(O)(C21)C43O

>  <smiles>  (171) 
[H]OC1([H])C2(O[H])C(=O)C3(C([H])([H])[H])C4(OC4([H])C([H])([H])C3([H])C([H])([H])[H])C(=O)C([H])([H])C1([H])C1([H])C2([H])C([H])(O[H])C2(C([H])([H])[H])C([H])([H])C3([H])C([H])([H])C([H])([H])C1(O[H])C32O[H]

$$$$
46:0:1
     RDKit          3D

 64 70  0  0  1  0  0  0  0  0999 V2000
    3.0570   -2.8402   -3.6561 C   0  0  0  0  0  0  0  0  0  0  0  0
    3.3053   -2.2343   -2.2589 C   0  0  2  0  0  0  0  0  0  0  0  0
    4.0459   -0.8935   -2.3087 C   0  0  0  0  0  0  0  0  0  0  0  0
    4.6169   -0.7326   -0.9274 C   0  0  1  0  0  0  0  0  0  0  0  0
    3.7643   -0.9343    0.2136 O   0  0  0  0  0  0  0  0  0  0  0  0
    4.5749   -2.0451   -0.2226 C   0  0  2  0  0  0  0  0  0  0  0  0
    5.7762   -2.3612    0.6074 C   0  0  0  0  0  0  0  0  0  0  0  0
    6.9185   -2.2881    0.1396 O   0  0  0  0  0  0  0  0  0  0  0  0
    5.5972   -2.7029    2.0822 C   0  0  0  0  0  0  0  0  0  0  0  0
    4.8229   -4.0147    2.4083 C   0  0  1  0  0  0  0  0  0  0  0  0
    3.3092   -3.9961    2.1507 C   0  0  1  0  0  0  0  0  0  0  0  0
    2.7252   -2.7103    2.1572 O   0  0  0  0  0  0  0  0  0  0  0  0
    3.0458   -4.8292    0.8858 C   0  0  1  0  0  0  0  0  0  0  0  0
    1.8106   -5.4961    1.1525 O   0  0  0  0  0  0  0  0  0  0  0  0
    2.8911   -4.0091   -0.4410 C   0  0  0  0  0  0  0  0  0  0  0  0
    1.8069   -4.1426   -1.0328 O   0  0  0  0  0  0  0  0  0  0  0  0
    3.9785   -3.1210   -1.1417 C   0  0  1  0  0  0  0  0  0  0  0  0
    5.0772   -3.9700   -1.8332 C   0  0  0  0  0  0  0  0  0  0  0  0
    4.1885   -5.9066    0.8849 C   0  0  2  0  0  0  0  0  0  0  0  0
    3.7992   -7.3889    1.2565 C   0  0  1  0  0  0  0  0  0  0  0  0
    4.5369   -8.2503    0.4211 O   0  0  0  0  0  0  0  0  0  0  0  0
    4.0058   -7.8176    2.7400 C   0  0  1  0  0  0  0  0  0  0  0  0
    2.6472   -7.6814    3.4377 C   0  0  0  0  0  0  0  0  0  0  0  0
    4.6674   -9.1925    3.0217 C   0  0  0  0  0  0  0  0  0  0  0  0
    5.9056   -8.5183    3.5951 C   0  0  1  0  0  0  0  0  0  0  0  0
    7.2032   -8.4876    2.7954 C   0  0  0  0  0  0  0  0  0  0  0  0
    7.1144   -7.2297    1.9128 C   0  0  0  0  0  0  0  0  0  0  0  0
    6.1348   -6.2680    2.6275 C   0  0  1  0  0  0  0  0  0  0  0  0
    7.0184   -5.5297    3.4441 O   0  0  0  0  0  0  0  0  0  0  0  0
    5.3767   -5.2885    1.6915 C   0  0  2  0  0  0  0  0  0  0  0  0
    5.2151   -7.1675    3.4588 C   0  0  1  0  0  0  0  0  0  0  0  0
    4.8995   -6.5318    4.6821 O   0  0  0  0  0  0  0  0  0  0  0  0
    3.9877   -3.0273   -4.1958 H   0  0  0  0  0  0  0  0  0  0  0  0
    2.4595   -2.1532   -4.2620 H   0  0  0  0  0  0  0  0  0  0  0  0
    2.4967   -3.7745   -3.5908 H   0  0  0  0  0  0  0  0  0  0  0  0
    2.3084   -1.9579   -1.9215 H   0  0  0  0  0  0  0  0  0  0  0  0
    4.8618   -0.9147   -3.0367 H   0  0  0  0  0  0  0  0  0  0  0  0
    3.3862   -0.0731   -2.5984 H   0  0  0  0  0  0  0  0  0  0  0  0
    5.4814   -0.1051   -0.7756 H   0  0  0  0  0  0  0  0  0  0  0  0
    6.6043   -2.7898    2.4799 H   0  0  0  0  0  0  0  0  0  0  0  0
    5.1359   -1.8539    2.5949 H   0  0  0  0  0  0  0  0  0  0  0  0
    4.9153   -4.1281    3.4934 H   0  0  0  0  0  0  0  0  0  0  0  0
    2.8522   -4.4976    3.0017 H   0  0  0  0  0  0  0  0  0  0  0  0
    2.8989   -2.2806    2.9786 H   0  0  0  0  0  0  0  0  0  0  0  0
    1.9103   -5.9993    1.9284 H   0  0  0  0  0  0  0  0  0  0  0  0
    5.6673   -3.3665   -2.5172 H   0  0  0  0  0  0  0  0  0  0  0  0
    4.6334   -4.7592   -2.4273 H   0  0  0  0  0  0  0  0  0  0  0  0
    5.7743   -4.4334   -1.1478 H   0  0  0  0  0  0  0  0  0  0  0  0
    4.5183   -5.9803   -0.1478 H   0  0  0  0  0  0  0  0  0  0  0  0
    2.7824   -7.6238    0.9370 H   0  0  0  0  0  0  0  0  0  0  0  0
    4.2157   -9.1339    0.5421 H   0  0  0  0  0  0  0  0  0  0  0  0
    2.6948   -8.0298    4.4703 H   0  0  0  0  0  0  0  0  0  0  0  0
    1.8819   -8.2853    2.9470 H   0  0  0  0  0  0  0  0  0  0  0  0
    2.3088   -6.6497    3.4725 H   0  0  0  0  0  0  0  0  0  0  0  0
    4.1393   -9.7776    3.7770 H   0  0  0  0  0  0  0  0  0  0  0  0
    4.8963   -9.8298    2.1691 H   0  0  0  0  0  0  0  0  0  0  0  0
    6.0404   -8.8318    4.6274 H   0  0  0  0  0  0  0  0  0  0  0  0
    8.0551   -8.3868    3.4712 H   0  0  0  0  0  0  0  0  0  0  0  0
    7.3641   -9.3958    2.2113 H   0  0  0  0  0  0  0  0  0  0  0  0
    8.0917   -6.7903    1.6955 H   0  0  0  0  0  0  0  0  0  0  0  0
    6.7217   -7.5165    0.9457 H   0  0  0  0  0  0  0  0  0  0  0  0
    7.4782   -6.1459    3.9892 H   0  0  0  0  0  0  0  0  0  0  0  0
    6.1364   -4.9704    0.9750 H   0  0  0  0  0  0  0  0  0  0  0  0
    4.4497   -7.1705    5.1999 H   0  0  0  0  0  0  0  0  0  0  0  0
  1  2  1  0
  1 33  1  0
  1 34  1  0
  1 35  1  0
  2 17  1  0
  2  3  1  0
  2 36  1  1
  3  4  1  0
  3 37  1  0
  3 38  1  0
  4  6  1  0
  4  5  1  0
  4 39  1  6
  6  5  1  1
  6 17  1  0
  6  7  1  0
  7  8  2  0
  7  9  1  0
  9 10  1  0
  9 40  1  0
  9 41  1  0
 10 30  1  0
 10 11  1  0
 10 42  1  1
 11 12  1  0
 11 13  1  0
 11 43  1  1
 12 44  1  0
 13 14  1  1
 13 15  1  0
 13 19  1  0
 14 45  1  0
 15 16  2  0
 15 17  1  0
 17 18  1  6
 18 46  1  0
 18 47  1  0
 18 48  1  0
 19 30  1  0
 19 20  1  0
 19 49  1  6
 20 21  1  0
 20 22  1  0
 20 50  1  6
 21 51  1  0
 22 31  1  0
 22 23  1  1
 22 24  1  0
 23 52  1  0
 23 53  1  0
 23 54  1  0
 24 25  1  0
 24 55  1  0
 24 56  1  0
 25 31  1  0
 25 26  1  0
 25 57  1  1
 26 27  1  0
 26 58  1  0
 26 59  1  0
 27 28  1  0
 27 60  1  0
 27 61  1  0
 28 29  1  1
 28 30  1  0
 28 31  1  0
 29 62  1  0
 30 63  1  6
 31 32  1  1
 32 64  1  0
M  END
>  <i_m_ct_stereo_status>  (172) 
1

>  <s_m_source_file>  (172) 
/var/tmp/pbs.5076255.sched01/tmpon41x2vr/43t03z2zi4.sdf

>  <i_m_source_file_index>  (172) 
34

>  <i_lp_mmshare_version>  (172) 
48012

>  <i_f3d_flags>  (172) 
0

>  <s_epik_input>  (172) 
TzFbQ0BASF0oW0NAXTEyMylbQ0gyXVtDQEBIXShbQ0gzXSlbQ0BdMyhbQ0gzXSlDKD1PKVtDQEBdNChbT0hdKVtDQEhdNVtDQEBIXShbQ0BASF0oW0NIMl1DMj1PKVtDQEhdNFtPSF0pW0NAQF02KFtPSF0pW0NAQF03KFtPSF0pW0NAQF0oW0NIM10pKFtDQEBIXTVbT0hdKVtDSDJdW0NASF03W0NIMl1bQ0gyXTY=

>  <s_epik_cmdline>  (172) 
J2VwaWtfcHl0aG9uJywgJy1waHQnLCAnMi4wJywgJy1waCcsICc3LjAnLCAnLXRuJywgJzgnLCAnLW1hJywgJzIwMCcsICctaW1hZScsICc8aW5maWxlLm1hZT4nLCAnLW9tYWUnLCAnPG91dGZpbGUubWFlPic=

>  <r_lp_tautomer_probability>  (172) 
1

>  <r_epik_Ionization_Penalty>  (172) 
8.47298e-07

>  <r_epik_Ionization_Penalty_Charging>  (172) 
0

>  <r_epik_Ionization_Penalty_Neutral>  (172) 
8.47298e-07

>  <r_epik_State_Penalty>  (172) 
-0

>  <r_epik_Charging_Adjusted_Penalty>  (172) 
0

>  <i_epik_Tot_Q>  (172) 
0

>  <i_epik_Tot_abs_Q>  (172) 
0

>  <s_lp_Force_Field>  (172) 
OPLS3e

>  <r_lp_Energy>  (172) 
81.674

>  <b_lp_Chiralities_Consistent>  (172) 
1

>  <s_lp_Variant>  (172) 
46:0-1

>  <s_i_glide_gridfile>  (172) 
pfpi4k_grid

>  <i_i_glide_lignum>  (172) 
34

>  <i_i_glide_rotatable_bonds>  (172) 
5

>  <r_i_docking_score>  (172) 
-2.49784

>  <r_i_glide_ligand_efficiency>  (172) 
-0.0780574

>  <r_i_glide_ligand_efficiency_sa>  (172) 
-0.247817

>  <r_i_glide_ligand_efficiency_ln>  (172) 
-0.559333

>  <r_i_glide_gscore>  (172) 
-2.49784

>  <r_i_glide_lipo>  (172) 
-0.619718

>  <r_i_glide_hbond>  (172) 
-0.000612268

>  <r_i_glide_metal>  (172) 
-0

>  <r_i_glide_rewards>  (172) 
-0.43101

>  <r_i_glide_evdw>  (172) 
-21.3628

>  <r_i_glide_ecoul>  (172) 
-2.3033

>  <r_i_glide_erotb>  (172) 
0

>  <r_i_glide_esite>  (172) 
-0.0328611

>  <r_i_glide_emodel>  (172) 
-26.3604

>  <r_i_glide_energy>  (172) 
-23.6661

>  <r_i_glide_einternal>  (172) 
0.926233

>  <r_i_glide_intrahb_reward>  (172) 
-0

>  <i_i_glide_confnum>  (172) 
2

>  <i_i_glide_posenum>  (172) 
37

>  <r_i_glide_eff_state_penalty>  (172) 
0

>  <ligand_id>  (172) 
46

>  <original_smiles>  (172) 
CC1CC2OC23C(=O)CC2C(O)C(O)(C(=O)C13C)C1C(O)C3(C)CC4CCC(O)(C21)C43O

>  <smiles>  (172) 
[H]OC1([H])C2(O[H])C(=O)C3(C([H])([H])[H])C4(OC4([H])C([H])([H])C3([H])C([H])([H])[H])C(=O)C([H])([H])C1([H])C1([H])C2([H])C([H])(O[H])C2(C([H])([H])[H])C([H])([H])C3([H])C([H])([H])C([H])([H])C1(O[H])C32O[H]

$$$$
46:0:2
     RDKit          3D

 64 70  0  0  1  0  0  0  0  0999 V2000
    3.0993   -2.9754   -3.6732 C   0  0  0  0  0  0  0  0  0  0  0  0
    3.4147   -2.3318   -2.3076 C   0  0  2  0  0  0  0  0  0  0  0  0
    4.1942   -1.0252   -2.4274 C   0  0  0  0  0  0  0  0  0  0  0  0
    4.8148   -0.8433   -1.0657 C   0  0  1  0  0  0  0  0  0  0  0  0
    3.9932   -0.9954    0.1069 O   0  0  0  0  0  0  0  0  0  0  0  0
    4.7506   -2.1338   -0.3285 C   0  0  2  0  0  0  0  0  0  0  0  0
    5.9541   -2.4637    0.4812 C   0  0  0  0  0  0  0  0  0  0  0  0
    7.0888   -2.4551   -0.0118 O   0  0  0  0  0  0  0  0  0  0  0  0
    5.7822   -2.7207    1.9725 C   0  0  0  0  0  0  0  0  0  0  0  0
    4.9706   -3.9748    2.3716 C   0  0  1  0  0  0  0  0  0  0  0  0
    3.4565   -3.8767    2.1377 C   0  0  1  0  0  0  0  0  0  0  0  0
    2.9137   -2.5652    2.1301 O   0  0  0  0  0  0  0  0  0  0  0  0
    3.1154   -4.7714    0.9357 C   0  0  1  0  0  0  0  0  0  0  0  0
    1.8589   -5.3580    1.2732 O   0  0  0  0  0  0  0  0  0  0  0  0
    2.9609   -4.0284   -0.4313 C   0  0  0  0  0  0  0  0  0  0  0  0
    1.8580   -4.1514   -1.0038 O   0  0  0  0  0  0  0  0  0  0  0  0
    4.0739   -3.2142   -1.1890 C   0  0  1  0  0  0  0  0  0  0  0  0
    5.1251   -4.1353   -1.8633 C   0  0  0  0  0  0  0  0  0  0  0  0
    4.2098   -5.8952    0.9616 C   0  0  2  0  0  0  0  0  0  0  0  0
    3.7651   -7.3421    1.3998 C   0  0  1  0  0  0  0  0  0  0  0  0
    4.4353   -8.2400    0.5378 O   0  0  0  0  0  0  0  0  0  0  0  0
    4.0007   -7.7257    2.8981 C   0  0  1  0  0  0  0  0  0  0  0  0
    2.6715   -7.4926    3.6282 C   0  0  0  0  0  0  0  0  0  0  0  0
    4.6075   -9.1136    3.2192 C   0  0  0  0  0  0  0  0  0  0  0  0
    5.8883   -8.4810    3.7370 C   0  0  1  0  0  0  0  0  0  0  0  0
    7.1653   -8.5437    2.9040 C   0  0  0  0  0  0  0  0  0  0  0  0
    7.1030   -7.3234    1.9731 C   0  0  0  0  0  0  0  0  0  0  0  0
    6.1892   -6.2891    2.6611 C   0  0  1  0  0  0  0  0  0  0  0  0
    7.1292   -5.5674    3.4222 O   0  0  0  0  0  0  0  0  0  0  0  0
    5.4490   -5.3057    1.7096 C   0  0  2  0  0  0  0  0  0  0  0  0
    5.2546   -7.1063    3.5587 C   0  0  1  0  0  0  0  0  0  0  0  0
    5.0106   -6.4030    4.7564 O   0  0  0  0  0  0  0  0  0  0  0  0
    4.0043   -3.2405   -4.2243 H   0  0  0  0  0  0  0  0  0  0  0  0
    2.5244   -2.2915   -4.2993 H   0  0  0  0  0  0  0  0  0  0  0  0
    2.4940   -3.8726   -3.5585 H   0  0  0  0  0  0  0  0  0  0  0  0
    2.4521   -1.9961   -1.9261 H   0  0  0  0  0  0  0  0  0  0  0  0
    4.9943   -1.1125   -3.1744 H   0  0  0  0  0  0  0  0  0  0  0  0
    3.5730   -0.1714   -2.7063 H   0  0  0  0  0  0  0  0  0  0  0  0
    5.7239   -0.2716   -0.9834 H   0  0  0  0  0  0  0  0  0  0  0  0
    6.7753   -2.8535    2.3759 H   0  0  0  0  0  0  0  0  0  0  0  0
    5.3832   -1.8312    2.4621 H   0  0  0  0  0  0  0  0  0  0  0  0
    5.0883   -4.0485    3.4598 H   0  0  0  0  0  0  0  0  0  0  0  0
    3.0114   -4.3232    3.0264 H   0  0  0  0  0  0  0  0  0  0  0  0
    3.1749   -2.0829    1.3508 H   0  0  0  0  0  0  0  0  0  0  0  0
    1.9461   -5.7784    2.1127 H   0  0  0  0  0  0  0  0  0  0  0  0
    5.7254   -3.5854   -2.5874 H   0  0  0  0  0  0  0  0  0  0  0  0
    4.6401   -4.9344   -2.4100 H   0  0  0  0  0  0  0  0  0  0  0  0
    5.8116   -4.5986   -1.1658 H   0  0  0  0  0  0  0  0  0  0  0  0
    4.5176   -6.0189   -0.0702 H   0  0  0  0  0  0  0  0  0  0  0  0
    2.7267   -7.5416    1.1254 H   0  0  0  0  0  0  0  0  0  0  0  0
    4.2009   -8.0347   -0.3474 H   0  0  0  0  0  0  0  0  0  0  0  0
    2.7334   -7.7971    4.6692 H   0  0  0  0  0  0  0  0  0  0  0  0
    1.8655   -8.0790    3.1882 H   0  0  0  0  0  0  0  0  0  0  0  0
    2.3839   -6.4461    3.6283 H   0  0  0  0  0  0  0  0  0  0  0  0
    4.0733   -9.6402    4.0138 H   0  0  0  0  0  0  0  0  0  0  0  0
    4.7704   -9.7765    2.3731 H   0  0  0  0  0  0  0  0  0  0  0  0
    6.0296   -8.7515    4.7772 H   0  0  0  0  0  0  0  0  0  0  0  0
    8.0365   -8.4578    3.5567 H   0  0  0  0  0  0  0  0  0  0  0  0
    7.2648   -9.4884    2.3610 H   0  0  0  0  0  0  0  0  0  0  0  0
    8.0973   -6.9430    1.7091 H   0  0  0  0  0  0  0  0  0  0  0  0
    6.6732   -7.6398    1.0350 H   0  0  0  0  0  0  0  0  0  0  0  0
    7.5586   -6.1800    4.0019 H   0  0  0  0  0  0  0  0  0  0  0  0
    6.2105   -5.0626    0.9615 H   0  0  0  0  0  0  0  0  0  0  0  0
    4.5559   -6.9971    5.3214 H   0  0  0  0  0  0  0  0  0  0  0  0
  1  2  1  0
  1 33  1  0
  1 34  1  0
  1 35  1  0
  2 17  1  0
  2  3  1  0
  2 36  1  1
  3  4  1  0
  3 37  1  0
  3 38  1  0
  4  6  1  0
  4  5  1  0
  4 39  1  6
  6  5  1  1
  6 17  1  0
  6  7  1  0
  7  8  2  0
  7  9  1  0
  9 10  1  0
  9 40  1  0
  9 41  1  0
 10 30  1  0
 10 11  1  0
 10 42  1  1
 11 12  1  0
 11 13  1  0
 11 43  1  1
 12 44  1  0
 13 14  1  1
 13 15  1  0
 13 19  1  0
 14 45  1  0
 15 16  2  0
 15 17  1  0
 17 18  1  6
 18 46  1  0
 18 47  1  0
 18 48  1  0
 19 30  1  0
 19 20  1  0
 19 49  1  6
 20 21  1  0
 20 22  1  0
 20 50  1  6
 21 51  1  0
 22 31  1  0
 22 23  1  1
 22 24  1  0
 23 52  1  0
 23 53  1  0
 23 54  1  0
 24 25  1  0
 24 55  1  0
 24 56  1  0
 25 31  1  0
 25 26  1  0
 25 57  1  1
 26 27  1  0
 26 58  1  0
 26 59  1  0
 27 28  1  0
 27 60  1  0
 27 61  1  0
 28 29  1  1
 28 30  1  0
 28 31  1  0
 29 62  1  0
 30 63  1  6
 31 32  1  1
 32 64  1  0
M  END
>  <i_m_ct_stereo_status>  (173) 
1

>  <s_m_source_file>  (173) 
/var/tmp/pbs.5076255.sched01/tmpon41x2vr/43t03z2zi4.sdf

>  <i_m_source_file_index>  (173) 
34

>  <i_lp_mmshare_version>  (173) 
48012

>  <i_f3d_flags>  (173) 
0

>  <s_epik_input>  (173) 
TzFbQ0BASF0oW0NAXTEyMylbQ0gyXVtDQEBIXShbQ0gzXSlbQ0BdMyhbQ0gzXSlDKD1PKVtDQEBdNChbT0hdKVtDQEhdNVtDQEBIXShbQ0BASF0oW0NIMl1DMj1PKVtDQEhdNFtPSF0pW0NAQF02KFtPSF0pW0NAQF03KFtPSF0pW0NAQF0oW0NIM10pKFtDQEBIXTVbT0hdKVtDSDJdW0NASF03W0NIMl1bQ0gyXTY=

>  <s_epik_cmdline>  (173) 
J2VwaWtfcHl0aG9uJywgJy1waHQnLCAnMi4wJywgJy1waCcsICc3LjAnLCAnLXRuJywgJzgnLCAnLW1hJywgJzIwMCcsICctaW1hZScsICc8aW5maWxlLm1hZT4nLCAnLW9tYWUnLCAnPG91dGZpbGUubWFlPic=

>  <r_lp_tautomer_probability>  (173) 
1

>  <r_epik_Ionization_Penalty>  (173) 
8.47298e-07

>  <r_epik_Ionization_Penalty_Charging>  (173) 
0

>  <r_epik_Ionization_Penalty_Neutral>  (173) 
8.47298e-07

>  <r_epik_State_Penalty>  (173) 
-0

>  <r_epik_Charging_Adjusted_Penalty>  (173) 
0

>  <i_epik_Tot_Q>  (173) 
0

>  <i_epik_Tot_abs_Q>  (173) 
0

>  <s_lp_Force_Field>  (173) 
OPLS3e

>  <r_lp_Energy>  (173) 
81.674

>  <b_lp_Chiralities_Consistent>  (173) 
1

>  <s_lp_Variant>  (173) 
46:0-1

>  <s_i_glide_gridfile>  (173) 
pfpi4k_grid

>  <i_i_glide_lignum>  (173) 
34

>  <i_i_glide_rotatable_bonds>  (173) 
5

>  <r_i_docking_score>  (173) 
-2.39497

>  <r_i_glide_ligand_efficiency>  (173) 
-0.0748429

>  <r_i_glide_ligand_efficiency_sa>  (173) 
-0.237611

>  <r_i_glide_ligand_efficiency_ln>  (173) 
-0.5363

>  <r_i_glide_gscore>  (173) 
-2.39497

>  <r_i_glide_lipo>  (173) 
-0.606943

>  <r_i_glide_hbond>  (173) 
0

>  <r_i_glide_metal>  (173) 
-0

>  <r_i_glide_rewards>  (173) 
-0.43403

>  <r_i_glide_evdw>  (173) 
-20.9012

>  <r_i_glide_ecoul>  (173) 
-1.85739

>  <r_i_glide_erotb>  (173) 
0

>  <r_i_glide_esite>  (173) 
-0.0303313

>  <r_i_glide_emodel>  (173) 
-25.4894

>  <r_i_glide_energy>  (173) 
-22.7586

>  <r_i_glide_einternal>  (173) 
0.522162

>  <r_i_glide_intrahb_reward>  (173) 
-0

>  <i_i_glide_confnum>  (173) 
2

>  <i_i_glide_posenum>  (173) 
5

>  <r_i_glide_eff_state_penalty>  (173) 
0

>  <ligand_id>  (173) 
46

>  <original_smiles>  (173) 
CC1CC2OC23C(=O)CC2C(O)C(O)(C(=O)C13C)C1C(O)C3(C)CC4CCC(O)(C21)C43O

>  <smiles>  (173) 
[H]OC1([H])C2(O[H])C(=O)C3(C([H])([H])[H])C4(OC4([H])C([H])([H])C3([H])C([H])([H])[H])C(=O)C([H])([H])C1([H])C1([H])C2([H])C([H])(O[H])C2(C([H])([H])[H])C([H])([H])C3([H])C([H])([H])C([H])([H])C1(O[H])C32O[H]

$$$$
47:0:0
     RDKit          3D

 81 85  0  0  1  0  0  0  0  0999 V2000
    6.3260    0.1295    5.9128 C   0  0  0  0  0  0  0  0  0  0  0  0
    5.1637   -0.0993    5.1199 O   0  0  0  0  0  0  0  0  0  0  0  0
    3.8891   -0.3267    5.7457 C   0  0  1  0  0  0  0  0  0  0  0  0
    3.5799    0.8112    6.8597 C   0  0  0  0  0  0  0  0  0  0  0  0
    2.9939    2.2856    6.4261 C   0  0  0  0  0  0  0  0  0  0  0  0
    1.4457    2.4471    5.9537 C   0  0  2  0  0  0  0  0  0  0  0  0
    0.6889    2.3607    7.1534 O   0  0  0  0  0  0  0  0  0  0  0  0
    1.3474    1.2610    5.1773 C   0  0  1  0  0  0  0  0  0  0  0  0
   -0.1047    0.6089    5.2324 C   0  0  0  0  0  0  0  0  0  0  0  0
   -0.6225    0.1867    3.8953 C   0  0  0  0  0  0  0  0  0  0  0  0
    0.1172    1.1362    2.9996 C   0  0  1  0  0  0  0  0  0  0  0  0
   -0.5514    0.9670    1.7784 O   0  0  0  0  0  0  0  0  0  0  0  0
   -0.1842    2.6860    3.5853 C   0  0  1  0  0  0  0  0  0  0  0  0
   -1.6075    2.7201    3.8094 O   0  0  0  0  0  0  0  0  0  0  0  0
   -2.3712    3.6888    3.2832 C   0  0  0  0  0  0  0  0  0  0  0  0
   -3.8323    3.3018    3.2555 C   0  0  0  0  0  0  0  0  0  0  0  0
   -1.9990    4.8003    2.8949 O   0  0  0  0  0  0  0  0  0  0  0  0
    0.7142    3.3910    4.8402 C   0  0  1  0  0  0  0  0  0  0  0  0
   -0.1137    4.4922    5.5589 C   0  0  0  0  0  0  0  0  0  0  0  0
    1.7831    4.1079    4.0504 C   0  0  1  0  0  0  0  0  0  0  0  0
    2.7025    4.7829    4.9069 O   0  0  0  0  0  0  0  0  0  0  0  0
    3.4718    5.7827    4.4339 C   0  0  0  0  0  0  0  0  0  0  0  0
    4.3576    6.4025    5.5030 C   0  0  0  0  0  0  0  0  0  0  0  0
    3.5131    6.1712    3.2658 O   0  0  0  0  0  0  0  0  0  0  0  0
    2.4032    3.0195    3.2045 C   0  0  0  0  0  0  0  0  0  0  0  0
    2.2259    1.5359    3.7872 C   0  0  1  0  0  0  0  0  0  0  0  0
    3.6083    1.3495    3.7369 O   0  0  0  0  0  0  0  0  0  0  0  0
    1.6331    0.5340    2.9062 C   0  0  2  0  0  0  0  0  0  0  0  0
    2.0510    0.7534    1.5578 O   0  0  0  0  0  0  0  0  0  0  0  0
    2.2555   -0.9314    3.4251 C   0  0  1  0  0  0  0  0  0  0  0  0
    3.2875   -1.5396    2.4580 C   0  0  0  0  0  0  0  0  0  0  0  0
    2.7762   -1.1802    4.9713 C   0  0  2  0  0  0  0  0  0  0  0  0
    1.6901   -1.7516    5.7300 O   0  0  0  0  0  0  0  0  0  0  0  0
    1.1324   -2.9684    5.5200 C   0  0  0  0  0  0  0  0  0  0  0  0
   -0.0647   -3.2474    6.4174 C   0  0  0  0  0  0  0  0  0  0  0  0
    1.5238   -3.7787    4.6853 O   0  0  0  0  0  0  0  0  0  0  0  0
    3.9586   -1.8553    5.7660 C   0  0  0  0  0  0  0  0  0  0  0  0
    4.9769   -2.7023    5.0174 C   0  0  0  0  0  0  0  0  0  0  0  0
    3.8732   -2.4560    7.1607 C   0  0  0  0  0  0  0  0  0  0  0  0
    7.1941    0.1423    5.2541 H   0  0  0  0  0  0  0  0  0  0  0  0
    6.4740   -0.6661    6.6660 H   0  0  0  0  0  0  0  0  0  0  0  0
    6.3044    1.1004    6.4078 H   0  0  0  0  0  0  0  0  0  0  0  0
    2.8798    0.3717    7.5627 H   0  0  0  0  0  0  0  0  0  0  0  0
    4.4613    0.9441    7.4700 H   0  0  0  0  0  0  0  0  0  0  0  0
    3.1082    2.9207    7.3035 H   0  0  0  0  0  0  0  0  0  0  0  0
    3.6963    2.7219    5.7343 H   0  0  0  0  0  0  0  0  0  0  0  0
    0.8158    3.1630    7.6354 H   0  0  0  0  0  0  0  0  0  0  0  0
    1.6366    0.5209    5.8630 H   0  0  0  0  0  0  0  0  0  0  0  0
   -0.1719   -0.2358    5.9323 H   0  0  0  0  0  0  0  0  0  0  0  0
   -0.8457    1.2882    5.6582 H   0  0  0  0  0  0  0  0  0  0  0  0
   -0.4290   -0.8661    3.6724 H   0  0  0  0  0  0  0  0  0  0  0  0
   -1.7127    0.2978    3.8392 H   0  0  0  0  0  0  0  0  0  0  0  0
    0.0634    0.8734    1.0567 H   0  0  0  0  0  0  0  0  0  0  0  0
   -0.0452    3.3416    2.7114 H   0  0  0  0  0  0  0  0  0  0  0  0
   -3.9498    2.3979    2.6686 H   0  0  0  0  0  0  0  0  0  0  0  0
   -4.4463    4.0686    2.7931 H   0  0  0  0  0  0  0  0  0  0  0  0
   -4.1768    3.1071    4.2725 H   0  0  0  0  0  0  0  0  0  0  0  0
   -0.4578    5.2593    4.8684 H   0  0  0  0  0  0  0  0  0  0  0  0
    0.4904    5.0145    6.3097 H   0  0  0  0  0  0  0  0  0  0  0  0
   -0.9776    4.0781    6.0685 H   0  0  0  0  0  0  0  0  0  0  0  0
    1.3390    4.8568    3.3834 H   0  0  0  0  0  0  0  0  0  0  0  0
    3.7420    6.8630    6.2898 H   0  0  0  0  0  0  0  0  0  0  0  0
    4.9958    7.1757    5.0712 H   0  0  0  0  0  0  0  0  0  0  0  0
    4.9903    5.6420    5.9596 H   0  0  0  0  0  0  0  0  0  0  0  0
    1.9432    3.0809    2.2132 H   0  0  0  0  0  0  0  0  0  0  0  0
    3.4154    3.3520    2.9473 H   0  0  0  0  0  0  0  0  0  0  0  0
    3.9352    1.7389    2.9295 H   0  0  0  0  0  0  0  0  0  0  0  0
    1.7624    0.0331    1.0002 H   0  0  0  0  0  0  0  0  0  0  0  0
    1.4508   -1.6341    3.2708 H   0  0  0  0  0  0  0  0  0  0  0  0
    4.2248   -0.9934    2.4486 H   0  0  0  0  0  0  0  0  0  0  0  0
    2.9189   -1.6054    1.4318 H   0  0  0  0  0  0  0  0  0  0  0  0
    3.4996   -2.5720    2.7389 H   0  0  0  0  0  0  0  0  0  0  0  0
   -0.9076   -2.6089    6.1324 H   0  0  0  0  0  0  0  0  0  0  0  0
    0.1789   -3.0447    7.4664 H   0  0  0  0  0  0  0  0  0  0  0  0
   -0.3785   -4.2880    6.3290 H   0  0  0  0  0  0  0  0  0  0  0  0
    4.5574   -3.6752    4.7850 H   0  0  0  0  0  0  0  0  0  0  0  0
    5.8751   -2.8420    5.6242 H   0  0  0  0  0  0  0  0  0  0  0  0
    5.2953   -2.2240    4.0830 H   0  0  0  0  0  0  0  0  0  0  0  0
    3.5669   -3.4991    7.1077 H   0  0  0  0  0  0  0  0  0  0  0  0
    3.1527   -1.9048    7.7811 H   0  0  0  0  0  0  0  0  0  0  0  0
    4.8413   -2.3964    7.6551 H   0  0  0  0  0  0  0  0  0  0  0  0
  1  2  1  0
  1 40  1  0
  1 41  1  0
  1 42  1  0
  3  2  1  6
  3 32  1  0
  3 37  1  0
  3  4  1  0
  4  5  1  0
  4 43  1  0
  4 44  1  0
  5  6  1  0
  5 45  1  0
  5 46  1  0
  6 18  1  0
  6  7  1  1
  6  8  1  0
  7 47  1  0
  8 26  1  0
  8  9  1  0
  8 48  1  1
  9 10  1  0
  9 49  1  0
  9 50  1  0
 10 11  1  0
 10 51  1  0
 10 52  1  0
 11 28  1  0
 11 12  1  6
 11 13  1  0
 12 53  1  0
 13 14  1  0
 13 18  1  0
 13 54  1  6
 14 15  1  0
 15 16  1  0
 15 17  2  0
 16 55  1  0
 16 56  1  0
 16 57  1  0
 18 19  1  1
 18 20  1  0
 19 58  1  0
 19 59  1  0
 19 60  1  0
 20 21  1  0
 20 25  1  0
 20 61  1  6
 21 22  1  0
 22 23  1  0
 22 24  2  0
 23 62  1  0
 23 63  1  0
 23 64  1  0
 25 26  1  0
 25 65  1  0
 25 66  1  0
 26 27  1  1
 26 28  1  0
 27 67  1  0
 28 29  1  6
 28 30  1  0
 29 68  1  0
 30 31  1  0
 30 32  1  0
 30 69  1  1
 31 70  1  0
 31 71  1  0
 31 72  1  0
 32 33  1  1
 32 37  1  0
 33 34  1  0
 34 35  1  0
 34 36  2  0
 35 73  1  0
 35 74  1  0
 35 75  1  0
 37 38  1  0
 37 39  1  0
 38 76  1  0
 38 77  1  0
 38 78  1  0
 39 79  1  0
 39 80  1  0
 39 81  1  0
M  END
>  <i_m_ct_stereo_status>  (174) 
1

>  <s_m_source_file>  (174) 
/var/tmp/pbs.5076255.sched01/tmpon41x2vr/43t03z2zi4.sdf

>  <i_m_source_file_index>  (174) 
35

>  <i_lp_mmshare_version>  (174) 
48012

>  <i_f3d_flags>  (174) 
0

>  <s_epik_input>  (174) 
W0NIM11PW0NAXTEyW0NAQF0oQzIoW0NIM10pW0NIM10pKE9DKD1PKVtDSDNdKVtDQEhdKFtDSDNdKVtDQEBdMyhbT0hdKVtDQEBdNChbT0hdKVtDSDJdW0NIMl1bQ0BASF01W0NAQF0oW09IXSkoW0NIMl1bQ0gyXTEpW0NAXShbQ0gzXSkoW0NAQEhdNE9DKD1PKVtDSDNdKVtDQEBIXShPQyg9TylbQ0gzXSlbQ0gyXVtDQF0zNVtPSF0=

>  <s_epik_cmdline>  (174) 
J2VwaWtfcHl0aG9uJywgJy1waHQnLCAnMi4wJywgJy1waCcsICc3LjAnLCAnLXRuJywgJzgnLCAnLW1hJywgJzIwMCcsICctaW1hZScsICc8aW5maWxlLm1hZT4nLCAnLW9tYWUnLCAnPG91dGZpbGUubWFlPic=

>  <r_lp_tautomer_probability>  (174) 
1

>  <r_epik_Ionization_Penalty>  (174) 
2.37358e-07

>  <r_epik_Ionization_Penalty_Charging>  (174) 
0

>  <r_epik_Ionization_Penalty_Neutral>  (174) 
2.37358e-07

>  <r_epik_State_Penalty>  (174) 
-0

>  <r_epik_Charging_Adjusted_Penalty>  (174) 
0

>  <i_epik_Tot_Q>  (174) 
0

>  <i_epik_Tot_abs_Q>  (174) 
0

>  <s_epik_Chemistry_Notes>  (174) 
This compound has an ester and may undergo hydrolysis at high or low pH.

>  <s_lp_Force_Field>  (174) 
OPLS3e

>  <r_lp_Energy>  (174) 
305.908

>  <b_lp_Chiralities_Consistent>  (174) 
1

>  <s_lp_Variant>  (174) 
47:0-1

>  <s_i_glide_gridfile>  (174) 
pfpi4k_grid

>  <i_i_glide_lignum>  (174) 
35

>  <i_i_glide_rotatable_bonds>  (174) 
11

>  <r_i_docking_score>  (174) 
-2.46106

>  <r_i_glide_ligand_efficiency>  (174) 
-0.0631041

>  <r_i_glide_ligand_efficiency_sa>  (174) 
-0.213999

>  <r_i_glide_ligand_efficiency_ln>  (174) 
-0.527721

>  <r_i_glide_gscore>  (174) 
-2.46106

>  <r_i_glide_lipo>  (174) 
-0.119244

>  <r_i_glide_hbond>  (174) 
-0.16

>  <r_i_glide_metal>  (174) 
-0

>  <r_i_glide_rewards>  (174) 
0

>  <r_i_glide_evdw>  (174) 
-24.9068

>  <r_i_glide_ecoul>  (174) 
-6.61506

>  <r_i_glide_erotb>  (174) 
0.128715

>  <r_i_glide_esite>  (174) 
-0.0729305

>  <r_i_glide_emodel>  (174) 
-33.2894

>  <r_i_glide_energy>  (174) 
-31.5219

>  <r_i_glide_einternal>  (174) 
6.44525

>  <r_i_glide_intrahb_reward>  (174) 
-0

>  <i_i_glide_confnum>  (174) 
3

>  <i_i_glide_posenum>  (174) 
22

>  <r_i_glide_eff_state_penalty>  (174) 
0

>  <ligand_id>  (174) 
47

>  <original_smiles>  (174) 
COC12CCC3(O)C4CCC5(O)C(OC(C)=O)C3(C)C(OC(C)=O)CC4(O)C5(O)C(C)C1(OC(C)=O)C2(C)C

>  <smiles>  (174) 
[H]OC12C([H])([H])C([H])([H])C3([H])C4(O[H])C([H])([H])C([H])(OC(=O)C([H])([H])[H])C(C([H])([H])[H])(C1([H])OC(=O)C([H])([H])[H])C3(O[H])C([H])([H])C([H])([H])C1(OC([H])([H])[H])C(OC(=O)C([H])([H])[H])(C([H])(C([H])([H])[H])C24O[H])C1(C([H])([H])[H])C([H])([H])[H]

$$$$
47:0:1
     RDKit          3D

 81 85  0  0  1  0  0  0  0  0999 V2000
    6.2246    0.1074    6.0115 C   0  0  0  0  0  0  0  0  0  0  0  0
    5.0847   -0.1696    5.2057 O   0  0  0  0  0  0  0  0  0  0  0  0
    3.7894   -0.3703    5.8432 C   0  0  1  0  0  0  0  0  0  0  0  0
    3.4845    0.7921    6.9108 C   0  0  0  0  0  0  0  0  0  0  0  0
    2.9272    2.2683    6.4359 C   0  0  0  0  0  0  0  0  0  0  0  0
    1.3823    2.4407    5.9306 C   0  0  2  0  0  0  0  0  0  0  0  0
    0.6190    2.4113    7.1333 O   0  0  0  0  0  0  0  0  0  0  0  0
    1.2788    1.2353    5.1898 C   0  0  1  0  0  0  0  0  0  0  0  0
   -0.1870    0.6027    5.2400 C   0  0  0  0  0  0  0  0  0  0  0  0
   -0.6990    0.1536    3.9003 C   0  0  0  0  0  0  0  0  0  0  0  0
    0.0803    1.0718    2.9941 C   0  0  1  0  0  0  0  0  0  0  0  0
   -0.5032    0.9311    1.7189 O   0  0  0  0  0  0  0  0  0  0  0  0
   -0.2121    2.6404    3.5374 C   0  0  1  0  0  0  0  0  0  0  0  0
   -1.6370    2.7221    3.7433 O   0  0  0  0  0  0  0  0  0  0  0  0
   -2.3777    3.7061    3.2049 C   0  0  0  0  0  0  0  0  0  0  0  0
   -3.8378    3.3298    3.0840 C   0  0  0  0  0  0  0  0  0  0  0  0
   -1.9881    4.8235    2.8611 O   0  0  0  0  0  0  0  0  0  0  0  0
    0.6764    3.3683    4.7799 C   0  0  1  0  0  0  0  0  0  0  0  0
   -0.1214    4.5086    5.4730 C   0  0  0  0  0  0  0  0  0  0  0  0
    1.7714    4.0475    3.9805 C   0  0  1  0  0  0  0  0  0  0  0  0
    2.6981    4.7399    4.8215 O   0  0  0  0  0  0  0  0  0  0  0  0
    3.4534    5.7402    4.3359 C   0  0  0  0  0  0  0  0  0  0  0  0
    4.3403    6.3690    5.4005 C   0  0  0  0  0  0  0  0  0  0  0  0
    3.4787    6.1273    3.1716 O   0  0  0  0  0  0  0  0  0  0  0  0
    2.3975    2.9275    3.1738 C   0  0  0  0  0  0  0  0  0  0  0  0
    2.1942    1.4662    3.8140 C   0  0  1  0  0  0  0  0  0  0  0  0
    3.5791    1.2732    3.7678 O   0  0  0  0  0  0  0  0  0  0  0  0
    1.6068    0.4506    2.9501 C   0  0  2  0  0  0  0  0  0  0  0  0
    2.0477    0.5971    1.6023 O   0  0  0  0  0  0  0  0  0  0  0  0
    2.1790   -1.0270    3.5274 C   0  0  1  0  0  0  0  0  0  0  0  0
    3.2056   -1.6886    2.5788 C   0  0  0  0  0  0  0  0  0  0  0  0
    2.6744   -1.2399    5.0668 C   0  0  2  0  0  0  0  0  0  0  0  0
    1.5523   -1.7615    5.8461 O   0  0  0  0  0  0  0  0  0  0  0  0
    0.9799   -2.9755    5.6492 C   0  0  0  0  0  0  0  0  0  0  0  0
   -0.2418   -3.2000    6.5374 C   0  0  0  0  0  0  0  0  0  0  0  0
    1.3551   -3.8272    4.8468 O   0  0  0  0  0  0  0  0  0  0  0  0
    3.8392   -1.9012    5.9032 C   0  0  0  0  0  0  0  0  0  0  0  0
    4.8555   -2.7788    5.1859 C   0  0  0  0  0  0  0  0  0  0  0  0
    3.7169   -2.4538    7.3164 C   0  0  0  0  0  0  0  0  0  0  0  0
    7.1079    0.0931    5.3751 H   0  0  0  0  0  0  0  0  0  0  0  0
    6.3595   -0.6337    6.8029 H   0  0  0  0  0  0  0  0  0  0  0  0
    6.1891    1.1066    6.4451 H   0  0  0  0  0  0  0  0  0  0  0  0
    2.7614    0.3874    7.6242 H   0  0  0  0  0  0  0  0  0  0  0  0
    4.3546    0.9361    7.5405 H   0  0  0  0  0  0  0  0  0  0  0  0
    3.0475    2.9350    7.2965 H   0  0  0  0  0  0  0  0  0  0  0  0
    3.6471    2.6746    5.7358 H   0  0  0  0  0  0  0  0  0  0  0  0
    0.7343    3.2285    7.5723 H   0  0  0  0  0  0  0  0  0  0  0  0
    1.5444    0.5116    5.8938 H   0  0  0  0  0  0  0  0  0  0  0  0
   -0.2819   -0.2115    5.9602 H   0  0  0  0  0  0  0  0  0  0  0  0
   -0.9161    1.3106    5.6386 H   0  0  0  0  0  0  0  0  0  0  0  0
   -0.5182   -0.9001    3.7051 H   0  0  0  0  0  0  0  0  0  0  0  0
   -1.7794    0.2844    3.8295 H   0  0  0  0  0  0  0  0  0  0  0  0
   -0.1198    1.5347    1.1004 H   0  0  0  0  0  0  0  0  0  0  0  0
   -0.0625    3.2666    2.6550 H   0  0  0  0  0  0  0  0  0  0  0  0
   -3.9139    2.4631    2.4343 H   0  0  0  0  0  0  0  0  0  0  0  0
   -4.4176    4.1274    2.6225 H   0  0  0  0  0  0  0  0  0  0  0  0
   -4.2462    3.0846    4.0625 H   0  0  0  0  0  0  0  0  0  0  0  0
   -0.4369    5.2701    4.7676 H   0  0  0  0  0  0  0  0  0  0  0  0
    0.4827    5.0317    6.2195 H   0  0  0  0  0  0  0  0  0  0  0  0
   -1.0040    4.1238    5.9803 H   0  0  0  0  0  0  0  0  0  0  0  0
    1.3346    4.7752    3.2910 H   0  0  0  0  0  0  0  0  0  0  0  0
    3.7275    6.8214    6.1819 H   0  0  0  0  0  0  0  0  0  0  0  0
    4.9698    7.1439    4.9624 H   0  0  0  0  0  0  0  0  0  0  0  0
    4.9828    5.6121    5.8509 H   0  0  0  0  0  0  0  0  0  0  0  0
    1.9441    2.9619    2.1772 H   0  0  0  0  0  0  0  0  0  0  0  0
    3.4146    3.2453    2.9273 H   0  0  0  0  0  0  0  0  0  0  0  0
    3.8955    1.5789    2.9410 H   0  0  0  0  0  0  0  0  0  0  0  0
    1.5160    0.0387    1.0519 H   0  0  0  0  0  0  0  0  0  0  0  0
    1.3562   -1.7080    3.3665 H   0  0  0  0  0  0  0  0  0  0  0  0
    4.1586   -1.1599    2.5601 H   0  0  0  0  0  0  0  0  0  0  0  0
    2.8464   -1.7781    1.5531 H   0  0  0  0  0  0  0  0  0  0  0  0
    3.3986   -2.7147    2.8956 H   0  0  0  0  0  0  0  0  0  0  0  0
   -1.0656   -2.5591    6.2221 H   0  0  0  0  0  0  0  0  0  0  0  0
   -0.0118   -2.9855    7.5838 H   0  0  0  0  0  0  0  0  0  0  0  0
   -0.5790   -4.2356    6.4697 H   0  0  0  0  0  0  0  0  0  0  0  0
    4.4243   -3.7605    4.9772 H   0  0  0  0  0  0  0  0  0  0  0  0
    5.7501   -2.9173    5.7946 H   0  0  0  0  0  0  0  0  0  0  0  0
    5.1842   -2.3439    4.2389 H   0  0  0  0  0  0  0  0  0  0  0  0
    3.3896   -3.4946    7.2999 H   0  0  0  0  0  0  0  0  0  0  0  0
    3.0020   -1.8775    7.9137 H   0  0  0  0  0  0  0  0  0  0  0  0
    4.6811   -2.4046    7.8305 H   0  0  0  0  0  0  0  0  0  0  0  0
  1  2  1  0
  1 40  1  0
  1 41  1  0
  1 42  1  0
  3  2  1  6
  3 32  1  0
  3 37  1  0
  3  4  1  0
  4  5  1  0
  4 43  1  0
  4 44  1  0
  5  6  1  0
  5 45  1  0
  5 46  1  0
  6 18  1  0
  6  7  1  1
  6  8  1  0
  7 47  1  0
  8 26  1  0
  8  9  1  0
  8 48  1  1
  9 10  1  0
  9 49  1  0
  9 50  1  0
 10 11  1  0
 10 51  1  0
 10 52  1  0
 11 28  1  0
 11 12  1  6
 11 13  1  0
 12 53  1  0
 13 14  1  0
 13 18  1  0
 13 54  1  6
 14 15  1  0
 15 16  1  0
 15 17  2  0
 16 55  1  0
 16 56  1  0
 16 57  1  0
 18 19  1  1
 18 20  1  0
 19 58  1  0
 19 59  1  0
 19 60  1  0
 20 21  1  0
 20 25  1  0
 20 61  1  6
 21 22  1  0
 22 23  1  0
 22 24  2  0
 23 62  1  0
 23 63  1  0
 23 64  1  0
 25 26  1  0
 25 65  1  0
 25 66  1  0
 26 27  1  1
 26 28  1  0
 27 67  1  0
 28 29  1  6
 28 30  1  0
 29 68  1  0
 30 31  1  0
 30 32  1  0
 30 69  1  1
 31 70  1  0
 31 71  1  0
 31 72  1  0
 32 33  1  1
 32 37  1  0
 33 34  1  0
 34 35  1  0
 34 36  2  0
 35 73  1  0
 35 74  1  0
 35 75  1  0
 37 38  1  0
 37 39  1  0
 38 76  1  0
 38 77  1  0
 38 78  1  0
 39 79  1  0
 39 80  1  0
 39 81  1  0
M  END
>  <i_m_ct_stereo_status>  (175) 
1

>  <s_m_source_file>  (175) 
/var/tmp/pbs.5076255.sched01/tmpon41x2vr/43t03z2zi4.sdf

>  <i_m_source_file_index>  (175) 
35

>  <i_lp_mmshare_version>  (175) 
48012

>  <i_f3d_flags>  (175) 
0

>  <s_epik_input>  (175) 
W0NIM11PW0NAXTEyW0NAQF0oQzIoW0NIM10pW0NIM10pKE9DKD1PKVtDSDNdKVtDQEhdKFtDSDNdKVtDQEBdMyhbT0hdKVtDQEBdNChbT0hdKVtDSDJdW0NIMl1bQ0BASF01W0NAQF0oW09IXSkoW0NIMl1bQ0gyXTEpW0NAXShbQ0gzXSkoW0NAQEhdNE9DKD1PKVtDSDNdKVtDQEBIXShPQyg9TylbQ0gzXSlbQ0gyXVtDQF0zNVtPSF0=

>  <s_epik_cmdline>  (175) 
J2VwaWtfcHl0aG9uJywgJy1waHQnLCAnMi4wJywgJy1waCcsICc3LjAnLCAnLXRuJywgJzgnLCAnLW1hJywgJzIwMCcsICctaW1hZScsICc8aW5maWxlLm1hZT4nLCAnLW9tYWUnLCAnPG91dGZpbGUubWFlPic=

>  <r_lp_tautomer_probability>  (175) 
1

>  <r_epik_Ionization_Penalty>  (175) 
2.37358e-07

>  <r_epik_Ionization_Penalty_Charging>  (175) 
0

>  <r_epik_Ionization_Penalty_Neutral>  (175) 
2.37358e-07

>  <r_epik_State_Penalty>  (175) 
-0

>  <r_epik_Charging_Adjusted_Penalty>  (175) 
0

>  <i_epik_Tot_Q>  (175) 
0

>  <i_epik_Tot_abs_Q>  (175) 
0

>  <s_epik_Chemistry_Notes>  (175) 
This compound has an ester and may undergo hydrolysis at high or low pH.

>  <s_lp_Force_Field>  (175) 
OPLS3e

>  <r_lp_Energy>  (175) 
305.908

>  <b_lp_Chiralities_Consistent>  (175) 
1

>  <s_lp_Variant>  (175) 
47:0-1

>  <s_i_glide_gridfile>  (175) 
pfpi4k_grid

>  <i_i_glide_lignum>  (175) 
35

>  <i_i_glide_rotatable_bonds>  (175) 
11

>  <r_i_docking_score>  (175) 
-2.33291

>  <r_i_glide_ligand_efficiency>  (175) 
-0.0598182

>  <r_i_glide_ligand_efficiency_sa>  (175) 
-0.202856

>  <r_i_glide_ligand_efficiency_ln>  (175) 
-0.500242

>  <r_i_glide_gscore>  (175) 
-2.33291

>  <r_i_glide_lipo>  (175) 
-0.101547

>  <r_i_glide_hbond>  (175) 
-0.16

>  <r_i_glide_metal>  (175) 
-0

>  <r_i_glide_rewards>  (175) 
0

>  <r_i_glide_evdw>  (175) 
-25.484

>  <r_i_glide_ecoul>  (175) 
-5.66677

>  <r_i_glide_erotb>  (175) 
0.128715

>  <r_i_glide_esite>  (175) 
-0.075861

>  <r_i_glide_emodel>  (175) 
-33.0156

>  <r_i_glide_energy>  (175) 
-31.1508

>  <r_i_glide_einternal>  (175) 
6.00068

>  <r_i_glide_intrahb_reward>  (175) 
-0

>  <i_i_glide_confnum>  (175) 
1

>  <i_i_glide_posenum>  (175) 
24

>  <r_i_glide_eff_state_penalty>  (175) 
0

>  <ligand_id>  (175) 
47

>  <original_smiles>  (175) 
COC12CCC3(O)C4CCC5(O)C(OC(C)=O)C3(C)C(OC(C)=O)CC4(O)C5(O)C(C)C1(OC(C)=O)C2(C)C

>  <smiles>  (175) 
[H]OC12C([H])([H])C([H])([H])C3([H])C4(O[H])C([H])([H])C([H])(OC(=O)C([H])([H])[H])C(C([H])([H])[H])(C1([H])OC(=O)C([H])([H])[H])C3(O[H])C([H])([H])C([H])([H])C1(OC([H])([H])[H])C(OC(=O)C([H])([H])[H])(C([H])(C([H])([H])[H])C24O[H])C1(C([H])([H])[H])C([H])([H])[H]

$$$$
47:0:2
     RDKit          3D

 81 85  0  0  1  0  0  0  0  0999 V2000
    2.3184   -4.8052    7.2226 C   0  0  0  0  0  0  0  0  0  0  0  0
    2.8745   -5.0083    5.9217 O   0  0  0  0  0  0  0  0  0  0  0  0
    2.0554   -4.8793    4.7499 C   0  0  1  0  0  0  0  0  0  0  0  0
    1.3260   -3.4355    4.7248 C   0  0  0  0  0  0  0  0  0  0  0  0
    2.1254   -2.0863    4.2305 C   0  0  0  0  0  0  0  0  0  0  0  0
    2.4551   -1.8452    2.6483 C   0  0  2  0  0  0  0  0  0  0  0  0
    1.2184   -1.4304    2.0793 O   0  0  0  0  0  0  0  0  0  0  0  0
    2.8018   -3.1902    2.3222 C   0  0  1  0  0  0  0  0  0  0  0  0
    2.4284   -3.5945    0.8263 C   0  0  0  0  0  0  0  0  0  0  0  0
    3.4897   -4.2962    0.0606 C   0  0  0  0  0  0  0  0  0  0  0  0
    4.6913   -3.7920    0.7711 C   0  0  1  0  0  0  0  0  0  0  0  0
    5.7845   -4.2499    0.0081 O   0  0  0  0  0  0  0  0  0  0  0  0
    4.5833   -2.0974    0.7165 C   0  0  1  0  0  0  0  0  0  0  0  0
    4.1356   -1.6629   -0.5852 O   0  0  0  0  0  0  0  0  0  0  0  0
    4.9812   -1.5693   -1.6302 C   0  0  0  0  0  0  0  0  0  0  0  0
    4.2948   -1.0923   -2.9040 C   0  0  0  0  0  0  0  0  0  0  0  0
    6.1856   -1.8278   -1.6004 O   0  0  0  0  0  0  0  0  0  0  0  0
    3.7264   -1.1846    1.8656 C   0  0  1  0  0  0  0  0  0  0  0  0
    3.3078    0.1901    1.2785 C   0  0  0  0  0  0  0  0  0  0  0  0
    4.8046   -0.8912    2.8819 C   0  0  1  0  0  0  0  0  0  0  0  0
    4.3288   -0.1348    3.9900 O   0  0  0  0  0  0  0  0  0  0  0  0
    5.1788    0.5331    4.8005 C   0  0  0  0  0  0  0  0  0  0  0  0
    4.4622    1.3024    5.8953 C   0  0  0  0  0  0  0  0  0  0  0  0
    6.4121    0.5620    4.6989 O   0  0  0  0  0  0  0  0  0  0  0  0
    5.3267   -2.2642    3.2521 C   0  0  0  0  0  0  0  0  0  0  0  0
    4.2898   -3.4605    3.0278 C   0  0  1  0  0  0  0  0  0  0  0  0
    4.4824   -3.8901    4.3445 O   0  0  0  0  0  0  0  0  0  0  0  0
    4.7363   -4.5872    2.2078 C   0  0  2  0  0  0  0  0  0  0  0  0
    6.1136   -4.8640    2.4502 O   0  0  0  0  0  0  0  0  0  0  0  0
    3.8462   -5.9130    2.7248 C   0  0  1  0  0  0  0  0  0  0  0  0
    4.6946   -6.9272    3.5195 C   0  0  0  0  0  0  0  0  0  0  0  0
    2.3739   -5.7563    3.4511 C   0  0  2  0  0  0  0  0  0  0  0  0
    1.3446   -5.9019    2.4484 O   0  0  0  0  0  0  0  0  0  0  0  0
    1.0435   -7.0482    1.8000 C   0  0  0  0  0  0  0  0  0  0  0  0
   -0.0740   -6.8620    0.7824 C   0  0  0  0  0  0  0  0  0  0  0  0
    1.5648   -8.1399    2.0130 O   0  0  0  0  0  0  0  0  0  0  0  0
    1.5623   -6.3227    4.6730 C   0  0  0  0  0  0  0  0  0  0  0  0
    2.1339   -7.5005    5.4612 C   0  0  0  0  0  0  0  0  0  0  0  0
    0.0411   -6.4629    4.7457 C   0  0  0  0  0  0  0  0  0  0  0  0
    3.0538   -5.1277    7.9598 H   0  0  0  0  0  0  0  0  0  0  0  0
    1.4089   -5.3956    7.3728 H   0  0  0  0  0  0  0  0  0  0  0  0
    2.1088   -3.7556    7.4188 H   0  0  0  0  0  0  0  0  0  0  0  0
    0.4420   -3.5384    4.1077 H   0  0  0  0  0  0  0  0  0  0  0  0
    0.9022   -3.2520    5.7068 H   0  0  0  0  0  0  0  0  0  0  0  0
    1.5123   -1.2401    4.5414 H   0  0  0  0  0  0  0  0  0  0  0  0
    2.9986   -1.9748    4.8612 H   0  0  0  0  0  0  0  0  0  0  0  0
    1.3151   -1.2444    1.1489 H   0  0  0  0  0  0  0  0  0  0  0  0
    1.9489   -3.7170    2.6212 H   0  0  0  0  0  0  0  0  0  0  0  0
    1.6302   -4.3131    0.7595 H   0  0  0  0  0  0  0  0  0  0  0  0
    2.0876   -2.7442    0.2395 H   0  0  0  0  0  0  0  0  0  0  0  0
    3.3831   -5.3836    0.1003 H   0  0  0  0  0  0  0  0  0  0  0  0
    3.4423   -4.0395   -1.0025 H   0  0  0  0  0  0  0  0  0  0  0  0
    6.5685   -3.8715    0.3802 H   0  0  0  0  0  0  0  0  0  0  0  0
    5.6133   -1.7233    0.7569 H   0  0  0  0  0  0  0  0  0  0  0  0
    3.4616   -1.7450   -3.1557 H   0  0  0  0  0  0  0  0  0  0  0  0
    4.9796   -1.0902   -3.7504 H   0  0  0  0  0  0  0  0  0  0  0  0
    3.9169   -0.0780   -2.7723 H   0  0  0  0  0  0  0  0  0  0  0  0
    4.1555    0.7446    0.8656 H   0  0  0  0  0  0  0  0  0  0  0  0
    2.8462    0.8250    2.0398 H   0  0  0  0  0  0  0  0  0  0  0  0
    2.5687    0.0849    0.4811 H   0  0  0  0  0  0  0  0  0  0  0  0
    5.6133   -0.3173    2.4170 H   0  0  0  0  0  0  0  0  0  0  0  0
    3.8155    2.0698    5.4560 H   0  0  0  0  0  0  0  0  0  0  0  0
    5.1786    1.7925    6.5554 H   0  0  0  0  0  0  0  0  0  0  0  0
    3.8439    0.6303    6.4894 H   0  0  0  0  0  0  0  0  0  0  0  0
    6.2167   -2.4352    2.6472 H   0  0  0  0  0  0  0  0  0  0  0  0
    5.7644   -2.1777    4.2592 H   0  0  0  0  0  0  0  0  0  0  0  0
    4.1490   -3.2535    4.9651 H   0  0  0  0  0  0  0  0  0  0  0  0
    6.3478   -5.5903    1.8919 H   0  0  0  0  0  0  0  0  0  0  0  0
    3.6686   -6.4978    1.8298 H   0  0  0  0  0  0  0  0  0  0  0  0
    4.9904   -6.5489    4.4944 H   0  0  0  0  0  0  0  0  0  0  0  0
    5.5979   -7.2344    2.9928 H   0  0  0  0  0  0  0  0  0  0  0  0
    4.1366   -7.8514    3.6677 H   0  0  0  0  0  0  0  0  0  0  0  0
    0.2925   -6.3083   -0.0834 H   0  0  0  0  0  0  0  0  0  0  0  0
   -0.9134   -6.3186    1.2180 H   0  0  0  0  0  0  0  0  0  0  0  0
   -0.4521   -7.8264    0.4464 H   0  0  0  0  0  0  0  0  0  0  0  0
    1.9989   -8.4267    4.9066 H   0  0  0  0  0  0  0  0  0  0  0  0
    1.6316   -7.6005    6.4222 H   0  0  0  0  0  0  0  0  0  0  0  0
    3.1980   -7.3724    5.6703 H   0  0  0  0  0  0  0  0  0  0  0  0
   -0.2754   -7.4178    4.3295 H   0  0  0  0  0  0  0  0  0  0  0  0
   -0.4499   -5.6598    4.1895 H   0  0  0  0  0  0  0  0  0  0  0  0
   -0.2977   -6.4048    5.7761 H   0  0  0  0  0  0  0  0  0  0  0  0
  1  2  1  0
  1 40  1  0
  1 41  1  0
  1 42  1  0
  3  2  1  1
  3 32  1  0
  3 37  1  0
  3  4  1  0
  4  5  1  0
  4 43  1  0
  4 44  1  0
  5  6  1  0
  5 45  1  0
  5 46  1  0
  6 18  1  0
  6  7  1  6
  6  8  1  0
  7 47  1  0
  8 26  1  0
  8  9  1  0
  8 48  1  1
  9 10  1  0
  9 49  1  0
  9 50  1  0
 10 11  1  0
 10 51  1  0
 10 52  1  0
 11 28  1  0
 11 12  1  6
 11 13  1  0
 12 53  1  0
 13 14  1  0
 13 18  1  0
 13 54  1  6
 14 15  1  0
 15 16  1  0
 15 17  2  0
 16 55  1  0
 16 56  1  0
 16 57  1  0
 18 19  1  6
 18 20  1  0
 19 58  1  0
 19 59  1  0
 19 60  1  0
 20 21  1  0
 20 25  1  0
 20 61  1  6
 21 22  1  0
 22 23  1  0
 22 24  2  0
 23 62  1  0
 23 63  1  0
 23 64  1  0
 25 26  1  0
 25 65  1  0
 25 66  1  0
 26 27  1  1
 26 28  1  0
 27 67  1  0
 28 29  1  1
 28 30  1  0
 29 68  1  0
 30 31  1  0
 30 32  1  0
 30 69  1  6
 31 70  1  0
 31 71  1  0
 31 72  1  0
 32 33  1  6
 32 37  1  0
 33 34  1  0
 34 35  1  0
 34 36  2  0
 35 73  1  0
 35 74  1  0
 35 75  1  0
 37 38  1  0
 37 39  1  0
 38 76  1  0
 38 77  1  0
 38 78  1  0
 39 79  1  0
 39 80  1  0
 39 81  1  0
M  END
>  <i_m_ct_stereo_status>  (176) 
1

>  <s_m_source_file>  (176) 
/var/tmp/pbs.5076255.sched01/tmpon41x2vr/43t03z2zi4.sdf

>  <i_m_source_file_index>  (176) 
35

>  <i_lp_mmshare_version>  (176) 
48012

>  <i_f3d_flags>  (176) 
0

>  <s_epik_input>  (176) 
W0NIM11PW0NAXTEyW0NAQF0oQzIoW0NIM10pW0NIM10pKE9DKD1PKVtDSDNdKVtDQEhdKFtDSDNdKVtDQEBdMyhbT0hdKVtDQEBdNChbT0hdKVtDSDJdW0NIMl1bQ0BASF01W0NAQF0oW09IXSkoW0NIMl1bQ0gyXTEpW0NAXShbQ0gzXSkoW0NAQEhdNE9DKD1PKVtDSDNdKVtDQEBIXShPQyg9TylbQ0gzXSlbQ0gyXVtDQF0zNVtPSF0=

>  <s_epik_cmdline>  (176) 
J2VwaWtfcHl0aG9uJywgJy1waHQnLCAnMi4wJywgJy1waCcsICc3LjAnLCAnLXRuJywgJzgnLCAnLW1hJywgJzIwMCcsICctaW1hZScsICc8aW5maWxlLm1hZT4nLCAnLW9tYWUnLCAnPG91dGZpbGUubWFlPic=

>  <r_lp_tautomer_probability>  (176) 
1

>  <r_epik_Ionization_Penalty>  (176) 
2.37358e-07

>  <r_epik_Ionization_Penalty_Charging>  (176) 
0

>  <r_epik_Ionization_Penalty_Neutral>  (176) 
2.37358e-07

>  <r_epik_State_Penalty>  (176) 
-0

>  <r_epik_Charging_Adjusted_Penalty>  (176) 
0

>  <i_epik_Tot_Q>  (176) 
0

>  <i_epik_Tot_abs_Q>  (176) 
0

>  <s_epik_Chemistry_Notes>  (176) 
This compound has an ester and may undergo hydrolysis at high or low pH.

>  <s_lp_Force_Field>  (176) 
OPLS3e

>  <r_lp_Energy>  (176) 
305.908

>  <b_lp_Chiralities_Consistent>  (176) 
1

>  <s_lp_Variant>  (176) 
47:0-1

>  <s_i_glide_gridfile>  (176) 
pfpi4k_grid

>  <i_i_glide_lignum>  (176) 
35

>  <i_i_glide_rotatable_bonds>  (176) 
11

>  <r_i_docking_score>  (176) 
-2.28848

>  <r_i_glide_ligand_efficiency>  (176) 
-0.0586789

>  <r_i_glide_ligand_efficiency_sa>  (176) 
-0.198993

>  <r_i_glide_ligand_efficiency_ln>  (176) 
-0.490715

>  <r_i_glide_gscore>  (176) 
-2.28848

>  <r_i_glide_lipo>  (176) 
-0.266761

>  <r_i_glide_hbond>  (176) 
-0.298283

>  <r_i_glide_metal>  (176) 
-0

>  <r_i_glide_rewards>  (176) 
-0.117175

>  <r_i_glide_evdw>  (176) 
-27.7251

>  <r_i_glide_ecoul>  (176) 
-1.42449

>  <r_i_glide_erotb>  (176) 
0.0901006

>  <r_i_glide_esite>  (176) 
-0.0964318

>  <r_i_glide_emodel>  (176) 
-32.0537

>  <r_i_glide_energy>  (176) 
-29.1496

>  <r_i_glide_einternal>  (176) 
2.99602

>  <r_i_glide_intrahb_reward>  (176) 
-0

>  <i_i_glide_confnum>  (176) 
3

>  <i_i_glide_posenum>  (176) 
6

>  <r_i_glide_eff_state_penalty>  (176) 
0

>  <ligand_id>  (176) 
47

>  <original_smiles>  (176) 
COC12CCC3(O)C4CCC5(O)C(OC(C)=O)C3(C)C(OC(C)=O)CC4(O)C5(O)C(C)C1(OC(C)=O)C2(C)C

>  <smiles>  (176) 
[H]OC12C([H])([H])C([H])([H])C3([H])C4(O[H])C([H])([H])C([H])(OC(=O)C([H])([H])[H])C(C([H])([H])[H])(C1([H])OC(=O)C([H])([H])[H])C3(O[H])C([H])([H])C([H])([H])C1(OC([H])([H])[H])C(OC(=O)C([H])([H])[H])(C([H])(C([H])([H])[H])C24O[H])C1(C([H])([H])[H])C([H])([H])[H]

$$$$
50:0:0
     RDKit          3D

102107  0  0  1  0  0  0  0  0999 V2000
    9.5307   -4.3824   10.1536 C   0  0  0  0  0  0  0  0  0  0  0  0
    8.5145   -3.5707    9.3263 C   0  0  2  0  0  0  0  0  0  0  0  0
    8.4305   -2.1367    9.8673 C   0  0  0  0  0  0  0  0  0  0  0  0
    7.4222   -1.2512    9.0843 C   0  0  1  0  0  0  0  0  0  0  0  0
    8.0507   -0.4915    7.8806 C   0  0  2  0  0  0  0  0  0  0  0  0
    9.1789    0.2336    8.3183 O   0  0  0  0  0  0  0  0  0  0  0  0
    7.1152    0.5052    7.1207 C   0  0  0  0  0  0  0  0  0  0  0  0
    6.5464    1.6202    8.0186 C   0  0  0  0  0  0  0  0  0  0  0  0
    7.8140    1.1308    5.8960 C   0  0  0  0  0  0  0  0  0  0  0  0
    6.0110   -0.1908    6.5839 O   0  0  0  0  0  0  0  0  0  0  0  0
    6.3303   -2.0264    8.5835 O   0  0  0  0  0  0  0  0  0  0  0  0
    5.9609   -3.1650    9.3519 C   0  0  1  0  0  0  0  0  0  0  0  0
    4.7310   -3.8335    8.7200 C   0  0  0  0  0  0  0  0  0  0  0  0
    5.1352   -5.2596    8.2589 C   0  0  1  0  0  0  0  0  0  0  0  0
    4.7083   -6.2248    9.4125 C   0  0  0  0  0  0  0  0  0  0  0  0
    4.4157   -5.7619    6.9331 C   0  0  1  0  0  0  0  0  0  0  0  0
    2.8807   -5.6086    6.9433 C   0  0  0  0  0  0  0  0  0  0  0  0
    2.1797   -6.4075    5.8263 C   0  0  1  0  0  0  0  0  0  0  0  0
    0.8464   -5.9502    5.8924 O   0  0  0  0  0  0  0  0  0  0  0  0
    2.7530   -6.1999    4.3883 C   0  0  2  0  0  0  0  0  0  0  0  0
    2.1377   -7.1326    3.2552 C   0  0  2  0  0  0  0  0  0  0  0  0
    0.5804   -7.1420    3.0505 C   0  0  0  0  0  0  0  0  0  0  0  0
   -0.2625   -8.3972    3.4810 C   0  0  0  0  0  0  0  0  0  0  0  0
   -0.9365   -8.2169    4.8494 C   0  0  0  0  0  0  0  0  0  0  0  0
   -1.4077   -8.5635    2.4627 C   0  0  0  0  0  0  0  0  0  0  0  0
    0.5300   -9.7252    3.4887 C   0  0  0  0  0  0  0  0  0  0  0  0
    1.9942   -9.5754    3.9214 C   0  0  0  0  0  0  0  0  0  0  0  0
    2.7525   -8.5528    3.0542 C   0  0  1  0  0  0  0  0  0  0  0  0
    2.6232   -8.9540    1.5668 C   0  0  0  0  0  0  0  0  0  0  0  0
    4.2688   -8.6005    3.3418 C   0  0  0  0  0  0  0  0  0  0  0  0
    4.7450   -7.7151    4.4929 C   0  0  0  0  0  0  0  0  0  0  0  0
    4.3343   -6.2159    4.3699 C   0  0  1  0  0  0  0  0  0  0  0  0
    4.8380   -5.6880    2.9887 C   0  0  0  0  0  0  0  0  0  0  0  0
    4.9620   -5.3023    5.5324 C   0  0  1  0  0  0  0  0  0  0  0  0
    4.6477   -3.8005    5.2317 C   0  0  0  0  0  0  0  0  0  0  0  0
    6.5089   -5.4176    5.6058 C   0  0  0  0  0  0  0  0  0  0  0  0
    7.1391   -4.6576    6.7834 C   0  0  0  0  0  0  0  0  0  0  0  0
    6.7064   -5.1989    8.1673 C   0  0  2  0  0  0  0  0  0  0  0  0
    7.3874   -6.5756    8.3757 C   0  0  0  0  0  0  0  0  0  0  0  0
    7.0926   -4.2111    9.3184 C   0  0  1  0  0  0  0  0  0  0  0  0
    9.2370   -4.4457   11.2033 H   0  0  0  0  0  0  0  0  0  0  0  0
   10.5144   -3.9137   10.1228 H   0  0  0  0  0  0  0  0  0  0  0  0
    9.6462   -5.4011    9.7855 H   0  0  0  0  0  0  0  0  0  0  0  0
    8.9071   -3.4914    8.3164 H   0  0  0  0  0  0  0  0  0  0  0  0
    8.1109   -2.1819   10.9073 H   0  0  0  0  0  0  0  0  0  0  0  0
    9.4211   -1.6889    9.8931 H   0  0  0  0  0  0  0  0  0  0  0  0
    7.0200   -0.5293    9.7928 H   0  0  0  0  0  0  0  0  0  0  0  0
    8.4122   -1.2426    7.1732 H   0  0  0  0  0  0  0  0  0  0  0  0
    8.8894    0.8945    8.9420 H   0  0  0  0  0  0  0  0  0  0  0  0
    7.3379    2.2235    8.4645 H   0  0  0  0  0  0  0  0  0  0  0  0
    5.9330    1.2259    8.8287 H   0  0  0  0  0  0  0  0  0  0  0  0
    5.9132    2.2999    7.4452 H   0  0  0  0  0  0  0  0  0  0  0  0
    8.6470    1.7687    6.1845 H   0  0  0  0  0  0  0  0  0  0  0  0
    7.1184    1.7463    5.3172 H   0  0  0  0  0  0  0  0  0  0  0  0
    8.2007    0.3686    5.2205 H   0  0  0  0  0  0  0  0  0  0  0  0
    5.5935   -0.6674    7.2920 H   0  0  0  0  0  0  0  0  0  0  0  0
    5.7434   -2.8622   10.3775 H   0  0  0  0  0  0  0  0  0  0  0  0
    3.9171   -3.8694    9.4462 H   0  0  0  0  0  0  0  0  0  0  0  0
    4.3425   -3.2126    7.9207 H   0  0  0  0  0  0  0  0  0  0  0  0
    4.8921   -7.2697    9.1612 H   0  0  0  0  0  0  0  0  0  0  0  0
    3.6482   -6.1464    9.6543 H   0  0  0  0  0  0  0  0  0  0  0  0
    5.2321   -6.0237   10.3461 H   0  0  0  0  0  0  0  0  0  0  0  0
    4.5985   -6.8320    6.9790 H   0  0  0  0  0  0  0  0  0  0  0  0
    2.4706   -5.9428    7.8952 H   0  0  0  0  0  0  0  0  0  0  0  0
    2.6191   -4.5526    6.8810 H   0  0  0  0  0  0  0  0  0  0  0  0
    2.2132   -7.4627    6.0920 H   0  0  0  0  0  0  0  0  0  0  0  0
    0.4855   -6.2259    6.7274 H   0  0  0  0  0  0  0  0  0  0  0  0
    2.4398   -5.1943    4.1123 H   0  0  0  0  0  0  0  0  0  0  0  0
    2.4338   -6.5762    2.3684 H   0  0  0  0  0  0  0  0  0  0  0  0
    0.1383   -6.2490    3.4859 H   0  0  0  0  0  0  0  0  0  0  0  0
    0.4177   -6.9914    1.9852 H   0  0  0  0  0  0  0  0  0  0  0  0
   -1.6688   -9.0021    5.0172 H   0  0  0  0  0  0  0  0  0  0  0  0
   -1.4761   -7.2772    4.9061 H   0  0  0  0  0  0  0  0  0  0  0  0
   -0.2350   -8.2794    5.6728 H   0  0  0  0  0  0  0  0  0  0  0  0
   -2.0380   -9.4295    2.6835 H   0  0  0  0  0  0  0  0  0  0  0  0
   -1.0113   -8.7070    1.4529 H   0  0  0  0  0  0  0  0  0  0  0  0
   -2.0539   -7.6846    2.4303 H   0  0  0  0  0  0  0  0  0  0  0  0
    0.0624  -10.4346    4.1696 H   0  0  0  0  0  0  0  0  0  0  0  0
    0.4874  -10.2139    2.5167 H   0  0  0  0  0  0  0  0  0  0  0  0
    2.0383   -9.2956    4.9708 H   0  0  0  0  0  0  0  0  0  0  0  0
    2.4875  -10.5481    3.8690 H   0  0  0  0  0  0  0  0  0  0  0  0
    2.9305   -9.9904    1.4088 H   0  0  0  0  0  0  0  0  0  0  0  0
    3.2380   -8.3241    0.9186 H   0  0  0  0  0  0  0  0  0  0  0  0
    1.6029   -8.8546    1.1916 H   0  0  0  0  0  0  0  0  0  0  0  0
    4.5593   -9.6258    3.5571 H   0  0  0  0  0  0  0  0  0  0  0  0
    4.8483   -8.3546    2.4469 H   0  0  0  0  0  0  0  0  0  0  0  0
    4.3596   -8.1652    5.4013 H   0  0  0  0  0  0  0  0  0  0  0  0
    5.8251   -7.8332    4.5366 H   0  0  0  0  0  0  0  0  0  0  0  0
    5.9216   -5.6801    2.9236 H   0  0  0  0  0  0  0  0  0  0  0  0
    4.4752   -4.6899    2.7574 H   0  0  0  0  0  0  0  0  0  0  0  0
    4.5152   -6.2788    2.1405 H   0  0  0  0  0  0  0  0  0  0  0  0
    5.1537   -3.4518    4.3344 H   0  0  0  0  0  0  0  0  0  0  0  0
    4.9955   -3.1082    5.9876 H   0  0  0  0  0  0  0  0  0  0  0  0
    3.5877   -3.5992    5.0938 H   0  0  0  0  0  0  0  0  0  0  0  0
    6.8331   -6.4482    5.6923 H   0  0  0  0  0  0  0  0  0  0  0  0
    6.9718   -5.0550    4.6922 H   0  0  0  0  0  0  0  0  0  0  0  0
    8.2210   -4.7429    6.6814 H   0  0  0  0  0  0  0  0  0  0  0  0
    6.9414   -3.5917    6.7092 H   0  0  0  0  0  0  0  0  0  0  0  0
    8.4485   -6.5321    8.1277 H   0  0  0  0  0  0  0  0  0  0  0  0
    6.9433   -7.3489    7.7461 H   0  0  0  0  0  0  0  0  0  0  0  0
    7.3227   -6.9263    9.4073 H   0  0  0  0  0  0  0  0  0  0  0  0
    7.0037   -4.7534   10.2635 H   0  0  0  0  0  0  0  0  0  0  0  0
  1  2  1  0
  1 41  1  0
  1 42  1  0
  1 43  1  0
  2 40  1  0
  2  3  1  0
  2 44  1  6
  3  4  1  0
  3 45  1  0
  3 46  1  0
  4  5  1  0
  4 11  1  0
  4 47  1  1
  5  6  1  0
  5  7  1  0
  5 48  1  6
  6 49  1  0
  7  8  1  0
  7  9  1  0
  7 10  1  0
  8 50  1  0
  8 51  1  0
  8 52  1  0
  9 53  1  0
  9 54  1  0
  9 55  1  0
 10 56  1  0
 11 12  1  0
 12 40  1  0
 12 13  1  0
 12 57  1  1
 13 14  1  0
 13 58  1  0
 13 59  1  0
 14 38  1  0
 14 15  1  1
 14 16  1  0
 15 60  1  0
 15 61  1  0
 15 62  1  0
 16 34  1  0
 16 17  1  0
 16 63  1  6
 17 18  1  0
 17 64  1  0
 17 65  1  0
 18 19  1  0
 18 20  1  0
 18 66  1  1
 19 67  1  0
 20 32  1  0
 20 21  1  0
 20 68  1  6
 21 28  1  0
 21 22  1  0
 21 69  1  6
 22 23  1  0
 22 70  1  0
 22 71  1  0
 23 24  1  0
 23 25  1  0
 23 26  1  0
 24 72  1  0
 24 73  1  0
 24 74  1  0
 25 75  1  0
 25 76  1  0
 25 77  1  0
 26 27  1  0
 26 78  1  0
 26 79  1  0
 27 28  1  0
 27 80  1  0
 27 81  1  0
 28 29  1  6
 28 30  1  0
 29 82  1  0
 29 83  1  0
 29 84  1  0
 30 31  1  0
 30 85  1  0
 30 86  1  0
 31 32  1  0
 31 87  1  0
 31 88  1  0
 32 33  1  6
 32 34  1  0
 33 89  1  0
 33 90  1  0
 33 91  1  0
 34 35  1  6
 34 36  1  0
 35 92  1  0
 35 93  1  0
 35 94  1  0
 36 37  1  0
 36 95  1  0
 36 96  1  0
 37 38  1  0
 37 97  1  0
 37 98  1  0
 38 39  1  1
 38 40  1  0
 39 99  1  0
 39100  1  0
 39101  1  0
 40102  1  1
M  END
>  <i_m_ct_stereo_status>  (177) 
1

>  <s_m_source_file>  (177) 
/var/tmp/pbs.5076255.sched01/tmpon41x2vr/43t03z2zi4.sdf

>  <i_m_source_file_index>  (177) 
38

>  <i_lp_mmshare_version>  (177) 
48012

>  <i_f3d_flags>  (177) 
0

>  <s_epik_input>  (177) 
W0NIM11bQ0BASF0xW0NIMl1bQ0BASF0oW0NASF0oW09IXSlDKFtDSDNdKShbQ0gzXSlbT0hdKU9bQ0BASF0oW0NIMl0yKVtDQEhdMVtDQF0zKFtDSDNdKVtDSDJdW0NIMl1bQ0BdKFtDSDNdKShbQ0BIXTRbQ0BdMjNbQ0gzXSlbQ0BdNShbQ0gzXSlbQ0BIXShbQ0BASF0oW0NIMl00KVtPSF0pW0NASF02W0NAQF0oW0NIM10pKFtDSDJdW0NIMl01KVtDSDJdW0NIMl1DKFtDSDJdNikoW0NIM10pW0NIM10=

>  <s_epik_cmdline>  (177) 
J2VwaWtfcHl0aG9uJywgJy1waHQnLCAnMi4wJywgJy1waCcsICc3LjAnLCAnLXRuJywgJzgnLCAnLW1hJywgJzIwMCcsICctaW1hZScsICc8aW5maWxlLm1hZT4nLCAnLW9tYWUnLCAnPG91dGZpbGUubWFlPic=

>  <r_lp_tautomer_probability>  (177) 
1

>  <r_epik_Ionization_Penalty>  (177) 
3.09896e-06

>  <r_epik_Ionization_Penalty_Charging>  (177) 
0

>  <r_epik_Ionization_Penalty_Neutral>  (177) 
3.09896e-06

>  <r_epik_State_Penalty>  (177) 
-0

>  <r_epik_Charging_Adjusted_Penalty>  (177) 
0

>  <i_epik_Tot_Q>  (177) 
0

>  <i_epik_Tot_abs_Q>  (177) 
0

>  <s_lp_Force_Field>  (177) 
OPLS3e

>  <r_lp_Energy>  (177) 
124.84

>  <b_lp_Chiralities_Consistent>  (177) 
1

>  <s_lp_Variant>  (177) 
50:0-1

>  <s_i_glide_gridfile>  (177) 
pfpi4k_grid

>  <i_i_glide_lignum>  (177) 
38

>  <i_i_glide_rotatable_bonds>  (177) 
5

>  <r_i_docking_score>  (177) 
-2.14892

>  <r_i_glide_ligand_efficiency>  (177) 
-0.053723

>  <r_i_glide_ligand_efficiency_sa>  (177) 
-0.18373

>  <r_i_glide_ligand_efficiency_ln>  (177) 
-0.458302

>  <r_i_glide_gscore>  (177) 
-2.14892

>  <r_i_glide_lipo>  (177) 
-0.367062

>  <r_i_glide_hbond>  (177) 
0

>  <r_i_glide_metal>  (177) 
-0

>  <r_i_glide_rewards>  (177) 
-0.5

>  <r_i_glide_evdw>  (177) 
-28.332

>  <r_i_glide_ecoul>  (177) 
0.533429

>  <r_i_glide_erotb>  (177) 
0.0547247

>  <r_i_glide_esite>  (177) 
0

>  <r_i_glide_emodel>  (177) 
-36.3757

>  <r_i_glide_energy>  (177) 
-27.7985

>  <r_i_glide_einternal>  (177) 
0.55542

>  <r_i_glide_intrahb_reward>  (177) 
-0.5

>  <i_i_glide_confnum>  (177) 
2

>  <i_i_glide_posenum>  (177) 
3

>  <r_i_glide_eff_state_penalty>  (177) 
0

>  <ligand_id>  (177) 
50

>  <original_smiles>  (177) 
CC1CC(C(O)C(C)(C)O)OC2CC3(C)C4CC(O)C5C6CC(C)(C)CCC6(C)CCC5(C)C4(C)CCC3(C)C12

>  <smiles>  (177) 
[H]OC1([H])C([H])([H])C2([H])C3(C([H])([H])[H])C([H])([H])C4([H])OC([H])(C([H])(O[H])C(O[H])(C([H])([H])[H])C([H])([H])[H])C([H])([H])C([H])(C([H])([H])[H])C4([H])C3(C([H])([H])[H])C([H])([H])C([H])([H])C2(C([H])([H])[H])C2(C([H])([H])[H])C([H])([H])C([H])([H])C3(C([H])([H])[H])C([H])([H])C([H])([H])C(C([H])([H])[H])(C([H])([H])[H])C([H])([H])C3([H])C12[H]

$$$$
50:0:1
     RDKit          3D

102107  0  0  1  0  0  0  0  0999 V2000
    9.4770   -4.2999   10.2507 C   0  0  0  0  0  0  0  0  0  0  0  0
    8.4670   -3.4805    9.4134 C   0  0  2  0  0  0  0  0  0  0  0  0
    8.3784   -2.0541    9.9559 C   0  0  0  0  0  0  0  0  0  0  0  0
    7.3761   -1.1669    9.1687 C   0  0  1  0  0  0  0  0  0  0  0  0
    8.0174   -0.4062    7.9691 C   0  0  2  0  0  0  0  0  0  0  0  0
    9.1267    0.3409    8.4257 O   0  0  0  0  0  0  0  0  0  0  0  0
    7.0765    0.5784    7.1971 C   0  0  0  0  0  0  0  0  0  0  0  0
    6.4637    1.6726    8.0898 C   0  0  0  0  0  0  0  0  0  0  0  0
    7.7901    1.2227    5.9939 C   0  0  0  0  0  0  0  0  0  0  0  0
    5.9918   -0.1315    6.6366 O   0  0  0  0  0  0  0  0  0  0  0  0
    6.2902   -1.9409    8.6606 O   0  0  0  0  0  0  0  0  0  0  0  0
    5.9142   -3.0809    9.4218 C   0  0  1  0  0  0  0  0  0  0  0  0
    4.6870   -3.7539    8.7787 C   0  0  0  0  0  0  0  0  0  0  0  0
    5.0995   -5.1789    8.3220 C   0  0  1  0  0  0  0  0  0  0  0  0
    4.6634   -6.1407    9.4709 C   0  0  0  0  0  0  0  0  0  0  0  0
    4.3892   -5.6738    6.9892 C   0  0  1  0  0  0  0  0  0  0  0  0
    2.8496   -5.5258    6.9915 C   0  0  0  0  0  0  0  0  0  0  0  0
    2.1680   -6.3329    5.8644 C   0  0  1  0  0  0  0  0  0  0  0  0
    0.8257   -5.8989    5.9171 O   0  0  0  0  0  0  0  0  0  0  0  0
    2.7483   -6.1187    4.4300 C   0  0  2  0  0  0  0  0  0  0  0  0
    2.1415   -7.0520    3.3021 C   0  0  2  0  0  0  0  0  0  0  0  0
    0.5906   -7.0621    3.0663 C   0  0  0  0  0  0  0  0  0  0  0  0
   -0.2555   -8.3115    3.5137 C   0  0  0  0  0  0  0  0  0  0  0  0
   -0.9471   -8.1357    4.8662 C   0  0  0  0  0  0  0  0  0  0  0  0
   -1.3956   -8.4856    2.4776 C   0  0  0  0  0  0  0  0  0  0  0  0
    0.5352   -9.6371    3.5116 C   0  0  0  0  0  0  0  0  0  0  0  0
    1.9956   -9.4976    3.9582 C   0  0  0  0  0  0  0  0  0  0  0  0
    2.7584   -8.4656    3.0964 C   0  0  1  0  0  0  0  0  0  0  0  0
    2.6381   -8.8686    1.6093 C   0  0  0  0  0  0  0  0  0  0  0  0
    4.2700   -8.5098    3.3910 C   0  0  0  0  0  0  0  0  0  0  0  0
    4.7445   -7.6329    4.5505 C   0  0  0  0  0  0  0  0  0  0  0  0
    4.3248   -6.1328    4.4287 C   0  0  1  0  0  0  0  0  0  0  0  0
    4.8432   -5.6017    3.0514 C   0  0  0  0  0  0  0  0  0  0  0  0
    4.9452   -5.2207    5.5973 C   0  0  1  0  0  0  0  0  0  0  0  0
    4.6328   -3.7173    5.2921 C   0  0  0  0  0  0  0  0  0  0  0  0
    6.4934   -5.3297    5.6847 C   0  0  0  0  0  0  0  0  0  0  0  0
    7.1138   -4.5732    6.8712 C   0  0  0  0  0  0  0  0  0  0  0  0
    6.6682   -5.1175    8.2486 C   0  0  2  0  0  0  0  0  0  0  0  0
    7.3517   -6.4899    8.4562 C   0  0  0  0  0  0  0  0  0  0  0  0
    7.0493   -4.1262    9.3991 C   0  0  1  0  0  0  0  0  0  0  0  0
    9.1760   -4.3618   11.2980 H   0  0  0  0  0  0  0  0  0  0  0  0
   10.4637   -3.8271   10.2283 H   0  0  0  0  0  0  0  0  0  0  0  0
    9.5974   -5.3156    9.8822 H   0  0  0  0  0  0  0  0  0  0  0  0
    8.8684   -3.4059    8.4102 H   0  0  0  0  0  0  0  0  0  0  0  0
    8.0505   -2.1020   10.9960 H   0  0  0  0  0  0  0  0  0  0  0  0
    9.3677   -1.6030    9.9917 H   0  0  0  0  0  0  0  0  0  0  0  0
    6.9702   -0.4469    9.8731 H   0  0  0  0  0  0  0  0  0  0  0  0
    8.3995   -1.1516    7.2728 H   0  0  0  0  0  0  0  0  0  0  0  0
    8.8327    0.9618    9.0658 H   0  0  0  0  0  0  0  0  0  0  0  0
    7.2286    2.2880    8.5627 H   0  0  0  0  0  0  0  0  0  0  0  0
    5.8352    1.2597    8.8772 H   0  0  0  0  0  0  0  0  0  0  0  0
    5.8322    2.3444    7.5045 H   0  0  0  0  0  0  0  0  0  0  0  0
    8.6127    1.8685    6.3013 H   0  0  0  0  0  0  0  0  0  0  0  0
    7.0955    1.8322    5.4153 H   0  0  0  0  0  0  0  0  0  0  0  0
    8.2012    0.4755    5.3172 H   0  0  0  0  0  0  0  0  0  0  0  0
    5.5968   -0.6447    7.3147 H   0  0  0  0  0  0  0  0  0  0  0  0
    5.6900   -2.7794   10.4477 H   0  0  0  0  0  0  0  0  0  0  0  0
    3.8701   -3.7873    9.5035 H   0  0  0  0  0  0  0  0  0  0  0  0
    4.3056   -3.1286    7.9814 H   0  0  0  0  0  0  0  0  0  0  0  0
    4.8525   -7.1856    9.2227 H   0  0  0  0  0  0  0  0  0  0  0  0
    3.6016   -6.0670    9.7029 H   0  0  0  0  0  0  0  0  0  0  0  0
    5.1785   -5.9403   10.4098 H   0  0  0  0  0  0  0  0  0  0  0  0
    4.5696   -6.7478    7.0385 H   0  0  0  0  0  0  0  0  0  0  0  0
    2.4270   -5.8600    7.9317 H   0  0  0  0  0  0  0  0  0  0  0  0
    2.5827   -4.4695    6.9203 H   0  0  0  0  0  0  0  0  0  0  0  0
    2.2097   -7.3826    6.1376 H   0  0  0  0  0  0  0  0  0  0  0  0
    0.3229   -6.4880    5.3879 H   0  0  0  0  0  0  0  0  0  0  0  0
    2.4393   -5.1143    4.1546 H   0  0  0  0  0  0  0  0  0  0  0  0
    2.4447   -6.4902    2.4058 H   0  0  0  0  0  0  0  0  0  0  0  0
    0.1337   -6.1580    3.4841 H   0  0  0  0  0  0  0  0  0  0  0  0
    0.4315   -6.9106    2.0223 H   0  0  0  0  0  0  0  0  0  0  0  0
   -1.6853   -8.9217    5.0246 H   0  0  0  0  0  0  0  0  0  0  0  0
   -1.4904   -7.1953    4.9268 H   0  0  0  0  0  0  0  0  0  0  0  0
   -0.2528   -8.2094    5.7031 H   0  0  0  0  0  0  0  0  0  0  0  0
   -2.0298   -9.3486    2.7016 H   0  0  0  0  0  0  0  0  0  0  0  0
   -0.9944   -8.6477    1.4674 H   0  0  0  0  0  0  0  0  0  0  0  0
   -2.0375   -7.6051    2.4320 H   0  0  0  0  0  0  0  0  0  0  0  0
    0.0600  -10.3585    4.1925 H   0  0  0  0  0  0  0  0  0  0  0  0
    0.4953  -10.1311    2.5464 H   0  0  0  0  0  0  0  0  0  0  0  0
    2.0333   -9.2153    5.0072 H   0  0  0  0  0  0  0  0  0  0  0  0
    2.4881  -10.4626    3.9086 H   0  0  0  0  0  0  0  0  0  0  0  0
    2.9476   -9.9045    1.4524 H   0  0  0  0  0  0  0  0  0  0  0  0
    3.2571   -8.2355    0.9661 H   0  0  0  0  0  0  0  0  0  0  0  0
    1.6227   -8.7711    1.2247 H   0  0  0  0  0  0  0  0  0  0  0  0
    4.5685   -9.5419    3.6141 H   0  0  0  0  0  0  0  0  0  0  0  0
    4.8574   -8.2718    2.5081 H   0  0  0  0  0  0  0  0  0  0  0  0
    4.3481   -8.0812    5.4584 H   0  0  0  0  0  0  0  0  0  0  0  0
    5.8197   -7.7477    4.6048 H   0  0  0  0  0  0  0  0  0  0  0  0
    5.9298   -5.5921    2.9939 H   0  0  0  0  0  0  0  0  0  0  0  0
    4.4806   -4.6033    2.8164 H   0  0  0  0  0  0  0  0  0  0  0  0
    4.5272   -6.1929    2.1997 H   0  0  0  0  0  0  0  0  0  0  0  0
    5.1450   -3.3664    4.3993 H   0  0  0  0  0  0  0  0  0  0  0  0
    4.9746   -3.0235    6.0533 H   0  0  0  0  0  0  0  0  0  0  0  0
    3.5733   -3.5167    5.1472 H   0  0  0  0  0  0  0  0  0  0  0  0
    6.8121   -6.3643    5.7740 H   0  0  0  0  0  0  0  0  0  0  0  0
    6.9603   -4.9685    4.7776 H   0  0  0  0  0  0  0  0  0  0  0  0
    8.1958   -4.6632    6.7693 H   0  0  0  0  0  0  0  0  0  0  0  0
    6.9179   -3.5071    6.7881 H   0  0  0  0  0  0  0  0  0  0  0  0
    8.4134   -6.4452    8.2164 H   0  0  0  0  0  0  0  0  0  0  0  0
    6.9138   -7.2620    7.8236 H   0  0  0  0  0  0  0  0  0  0  0  0
    7.2805   -6.8404    9.4852 H   0  0  0  0  0  0  0  0  0  0  0  0
    6.9505   -4.6671   10.3394 H   0  0  0  0  0  0  0  0  0  0  0  0
  1  2  1  0
  1 41  1  0
  1 42  1  0
  1 43  1  0
  2 40  1  0
  2  3  1  0
  2 44  1  6
  3  4  1  0
  3 45  1  0
  3 46  1  0
  4  5  1  0
  4 11  1  0
  4 47  1  1
  5  6  1  0
  5  7  1  0
  5 48  1  6
  6 49  1  0
  7  8  1  0
  7  9  1  0
  7 10  1  0
  8 50  1  0
  8 51  1  0
  8 52  1  0
  9 53  1  0
  9 54  1  0
  9 55  1  0
 10 56  1  0
 11 12  1  0
 12 40  1  0
 12 13  1  0
 12 57  1  1
 13 14  1  0
 13 58  1  0
 13 59  1  0
 14 38  1  0
 14 15  1  1
 14 16  1  0
 15 60  1  0
 15 61  1  0
 15 62  1  0
 16 34  1  0
 16 17  1  0
 16 63  1  6
 17 18  1  0
 17 64  1  0
 17 65  1  0
 18 19  1  0
 18 20  1  0
 18 66  1  1
 19 67  1  0
 20 32  1  0
 20 21  1  0
 20 68  1  6
 21 28  1  0
 21 22  1  0
 21 69  1  6
 22 23  1  0
 22 70  1  0
 22 71  1  0
 23 24  1  0
 23 25  1  0
 23 26  1  0
 24 72  1  0
 24 73  1  0
 24 74  1  0
 25 75  1  0
 25 76  1  0
 25 77  1  0
 26 27  1  0
 26 78  1  0
 26 79  1  0
 27 28  1  0
 27 80  1  0
 27 81  1  0
 28 29  1  6
 28 30  1  0
 29 82  1  0
 29 83  1  0
 29 84  1  0
 30 31  1  0
 30 85  1  0
 30 86  1  0
 31 32  1  0
 31 87  1  0
 31 88  1  0
 32 33  1  6
 32 34  1  0
 33 89  1  0
 33 90  1  0
 33 91  1  0
 34 35  1  6
 34 36  1  0
 35 92  1  0
 35 93  1  0
 35 94  1  0
 36 37  1  0
 36 95  1  0
 36 96  1  0
 37 38  1  0
 37 97  1  0
 37 98  1  0
 38 39  1  1
 38 40  1  0
 39 99  1  0
 39100  1  0
 39101  1  0
 40102  1  1
M  END
>  <i_m_ct_stereo_status>  (178) 
1

>  <s_m_source_file>  (178) 
/var/tmp/pbs.5076255.sched01/tmpon41x2vr/43t03z2zi4.sdf

>  <i_m_source_file_index>  (178) 
38

>  <i_lp_mmshare_version>  (178) 
48012

>  <i_f3d_flags>  (178) 
0

>  <s_epik_input>  (178) 
W0NIM11bQ0BASF0xW0NIMl1bQ0BASF0oW0NASF0oW09IXSlDKFtDSDNdKShbQ0gzXSlbT0hdKU9bQ0BASF0oW0NIMl0yKVtDQEhdMVtDQF0zKFtDSDNdKVtDSDJdW0NIMl1bQ0BdKFtDSDNdKShbQ0BIXTRbQ0BdMjNbQ0gzXSlbQ0BdNShbQ0gzXSlbQ0BIXShbQ0BASF0oW0NIMl00KVtPSF0pW0NASF02W0NAQF0oW0NIM10pKFtDSDJdW0NIMl01KVtDSDJdW0NIMl1DKFtDSDJdNikoW0NIM10pW0NIM10=

>  <s_epik_cmdline>  (178) 
J2VwaWtfcHl0aG9uJywgJy1waHQnLCAnMi4wJywgJy1waCcsICc3LjAnLCAnLXRuJywgJzgnLCAnLW1hJywgJzIwMCcsICctaW1hZScsICc8aW5maWxlLm1hZT4nLCAnLW9tYWUnLCAnPG91dGZpbGUubWFlPic=

>  <r_lp_tautomer_probability>  (178) 
1

>  <r_epik_Ionization_Penalty>  (178) 
3.09896e-06

>  <r_epik_Ionization_Penalty_Charging>  (178) 
0

>  <r_epik_Ionization_Penalty_Neutral>  (178) 
3.09896e-06

>  <r_epik_State_Penalty>  (178) 
-0

>  <r_epik_Charging_Adjusted_Penalty>  (178) 
0

>  <i_epik_Tot_Q>  (178) 
0

>  <i_epik_Tot_abs_Q>  (178) 
0

>  <s_lp_Force_Field>  (178) 
OPLS3e

>  <r_lp_Energy>  (178) 
124.84

>  <b_lp_Chiralities_Consistent>  (178) 
1

>  <s_lp_Variant>  (178) 
50:0-1

>  <s_i_glide_gridfile>  (178) 
pfpi4k_grid

>  <i_i_glide_lignum>  (178) 
38

>  <i_i_glide_rotatable_bonds>  (178) 
5

>  <r_i_docking_score>  (178) 
-2.13374

>  <r_i_glide_ligand_efficiency>  (178) 
-0.0533434

>  <r_i_glide_ligand_efficiency_sa>  (178) 
-0.182432

>  <r_i_glide_ligand_efficiency_ln>  (178) 
-0.455063

>  <r_i_glide_gscore>  (178) 
-2.13374

>  <r_i_glide_lipo>  (178) 
-0.324916

>  <r_i_glide_hbond>  (178) 
0

>  <r_i_glide_metal>  (178) 
-0

>  <r_i_glide_rewards>  (178) 
-0.5

>  <r_i_glide_evdw>  (178) 
-28.1482

>  <r_i_glide_ecoul>  (178) 
0.292425

>  <r_i_glide_erotb>  (178) 
0.0547247

>  <r_i_glide_esite>  (178) 
0

>  <r_i_glide_emodel>  (178) 
-36.3881

>  <r_i_glide_energy>  (178) 
-27.8558

>  <r_i_glide_einternal>  (178) 
0.52947

>  <r_i_glide_intrahb_reward>  (178) 
-0.5

>  <i_i_glide_confnum>  (178) 
1

>  <i_i_glide_posenum>  (178) 
26

>  <r_i_glide_eff_state_penalty>  (178) 
0

>  <ligand_id>  (178) 
50

>  <original_smiles>  (178) 
CC1CC(C(O)C(C)(C)O)OC2CC3(C)C4CC(O)C5C6CC(C)(C)CCC6(C)CCC5(C)C4(C)CCC3(C)C12

>  <smiles>  (178) 
[H]OC1([H])C([H])([H])C2([H])C3(C([H])([H])[H])C([H])([H])C4([H])OC([H])(C([H])(O[H])C(O[H])(C([H])([H])[H])C([H])([H])[H])C([H])([H])C([H])(C([H])([H])[H])C4([H])C3(C([H])([H])[H])C([H])([H])C([H])([H])C2(C([H])([H])[H])C2(C([H])([H])[H])C([H])([H])C([H])([H])C3(C([H])([H])[H])C([H])([H])C([H])([H])C(C([H])([H])[H])(C([H])([H])[H])C([H])([H])C3([H])C12[H]

$$$$
50:0:2
     RDKit          3D

102107  0  0  1  0  0  0  0  0999 V2000
    9.3133   -4.1823   10.2979 C   0  0  0  0  0  0  0  0  0  0  0  0
    8.3250   -3.3988    9.4120 C   0  0  2  0  0  0  0  0  0  0  0  0
    8.2292   -1.9403    9.8897 C   0  0  0  0  0  0  0  0  0  0  0  0
    7.2423   -1.0935    9.0442 C   0  0  1  0  0  0  0  0  0  0  0  0
    7.9140   -0.3899    7.8292 C   0  0  2  0  0  0  0  0  0  0  0  0
    8.9297    0.4677    8.3058 O   0  0  0  0  0  0  0  0  0  0  0  0
    6.9797    0.4542    6.8965 C   0  0  0  0  0  0  0  0  0  0  0  0
    6.2774    1.6138    7.6188 C   0  0  0  0  0  0  0  0  0  0  0  0
    7.7311    0.9797    5.6673 C   0  0  0  0  0  0  0  0  0  0  0  0
    5.9831   -0.3646    6.3278 O   0  0  0  0  0  0  0  0  0  0  0  0
    6.1751   -1.9019    8.5570 O   0  0  0  0  0  0  0  0  0  0  0  0
    5.7733   -2.9992    9.3563 C   0  0  1  0  0  0  0  0  0  0  0  0
    4.5622   -3.6755    8.6987 C   0  0  0  0  0  0  0  0  0  0  0  0
    4.9731   -5.1162    8.2983 C   0  0  1  0  0  0  0  0  0  0  0  0
    4.5042   -6.0367    9.4706 C   0  0  0  0  0  0  0  0  0  0  0  0
    4.2936   -5.6634    6.9688 C   0  0  1  0  0  0  0  0  0  0  0  0
    2.7603   -5.5038    6.9242 C   0  0  0  0  0  0  0  0  0  0  0  0
    2.0891   -6.3410    5.8150 C   0  0  1  0  0  0  0  0  0  0  0  0
    0.7573   -5.8738    5.8225 O   0  0  0  0  0  0  0  0  0  0  0  0
    2.7082   -6.1903    4.3889 C   0  0  2  0  0  0  0  0  0  0  0  0
    2.1237   -7.1611    3.2704 C   0  0  2  0  0  0  0  0  0  0  0  0
    0.5747   -7.1726    3.0161 C   0  0  0  0  0  0  0  0  0  0  0  0
   -0.2862   -8.4069    3.4682 C   0  0  0  0  0  0  0  0  0  0  0  0
   -0.9842   -8.1718    4.8144 C   0  0  0  0  0  0  0  0  0  0  0  0
   -1.4093   -8.6034    2.4277 C   0  0  0  0  0  0  0  0  0  0  0  0
    0.4989   -9.7360    3.5485 C   0  0  0  0  0  0  0  0  0  0  0  0
    1.9493   -9.5767    4.0225 C   0  0  0  0  0  0  0  0  0  0  0  0
    2.7385   -8.5894    3.1423 C   0  0  1  0  0  0  0  0  0  0  0  0
    2.6501   -9.0465    1.6677 C   0  0  0  0  0  0  0  0  0  0  0  0
    4.2441   -8.6331    3.4797 C   0  0  0  0  0  0  0  0  0  0  0  0
    4.6883   -7.7073    4.6123 C   0  0  0  0  0  0  0  0  0  0  0  0
    4.2885   -6.2120    4.4220 C   0  0  1  0  0  0  0  0  0  0  0  0
    4.8391   -5.7383    3.0382 C   0  0  0  0  0  0  0  0  0  0  0  0
    4.8851   -5.2581    5.5697 C   0  0  1  0  0  0  0  0  0  0  0  0
    4.5871   -3.7677    5.2027 C   0  0  0  0  0  0  0  0  0  0  0  0
    6.4284   -5.3747    5.6960 C   0  0  0  0  0  0  0  0  0  0  0  0
    7.0259   -4.5758    6.8668 C   0  0  0  0  0  0  0  0  0  0  0  0
    6.5460   -5.0645    8.2555 C   0  0  2  0  0  0  0  0  0  0  0  0
    7.2130   -6.4360    8.5326 C   0  0  0  0  0  0  0  0  0  0  0  0
    6.9033   -4.0429    9.3867 C   0  0  1  0  0  0  0  0  0  0  0  0
    8.9843   -4.2068   11.3390 H   0  0  0  0  0  0  0  0  0  0  0  0
   10.3003   -3.7189   10.2798 H   0  0  0  0  0  0  0  0  0  0  0  0
    9.4321   -5.2148    9.9696 H   0  0  0  0  0  0  0  0  0  0  0  0
    8.7472   -3.3617    8.4121 H   0  0  0  0  0  0  0  0  0  0  0  0
    7.8887   -1.9403   10.9229 H   0  0  0  0  0  0  0  0  0  0  0  0
    9.2171   -1.4860    9.9141 H   0  0  0  0  0  0  0  0  0  0  0  0
    6.8086   -0.3397    9.6989 H   0  0  0  0  0  0  0  0  0  0  0  0
    8.4025   -1.1639    7.2333 H   0  0  0  0  0  0  0  0  0  0  0  0
    8.5225    1.1472    8.8375 H   0  0  0  0  0  0  0  0  0  0  0  0
    6.9918    2.3214    8.0379 H   0  0  0  0  0  0  0  0  0  0  0  0
    5.6435    1.2673    8.4340 H   0  0  0  0  0  0  0  0  0  0  0  0
    5.6417    2.1835    6.9393 H   0  0  0  0  0  0  0  0  0  0  0  0
    8.5020    1.7079    5.9265 H   0  0  0  0  0  0  0  0  0  0  0  0
    7.0486    1.4493    4.9615 H   0  0  0  0  0  0  0  0  0  0  0  0
    8.2004    0.1635    5.1166 H   0  0  0  0  0  0  0  0  0  0  0  0
    5.3999    0.1713    5.8047 H   0  0  0  0  0  0  0  0  0  0  0  0
    5.5253   -2.6554   10.3609 H   0  0  0  0  0  0  0  0  0  0  0  0
    3.7201   -3.6814    9.3921 H   0  0  0  0  0  0  0  0  0  0  0  0
    4.2141   -3.0758    7.8660 H   0  0  0  0  0  0  0  0  0  0  0  0
    4.6904   -7.0912    9.2638 H   0  0  0  0  0  0  0  0  0  0  0  0
    3.4373   -5.9439    9.6747 H   0  0  0  0  0  0  0  0  0  0  0  0
    4.9989   -5.8019   10.4126 H   0  0  0  0  0  0  0  0  0  0  0  0
    4.4679   -6.7328    7.0586 H   0  0  0  0  0  0  0  0  0  0  0  0
    2.3173   -5.8007    7.8739 H   0  0  0  0  0  0  0  0  0  0  0  0
    2.5047   -4.4497    6.8140 H   0  0  0  0  0  0  0  0  0  0  0  0
    2.1087   -7.3861    6.1210 H   0  0  0  0  0  0  0  0  0  0  0  0
    0.3698   -6.1147    6.6558 H   0  0  0  0  0  0  0  0  0  0  0  0
    2.4088   -5.1943    4.0670 H   0  0  0  0  0  0  0  0  0  0  0  0
    2.4537   -6.6382    2.3748 H   0  0  0  0  0  0  0  0  0  0  0  0
    0.1257   -6.2622    3.4051 H   0  0  0  0  0  0  0  0  0  0  0  0
    0.4463   -7.0594    1.9419 H   0  0  0  0  0  0  0  0  0  0  0  0
   -1.7286   -8.9439    4.9838 H   0  0  0  0  0  0  0  0  0  0  0  0
   -1.5248   -7.2320    4.8382 H   0  0  0  0  0  0  0  0  0  0  0  0
   -0.3093   -8.2152    5.6597 H   0  0  0  0  0  0  0  0  0  0  0  0
   -2.0485   -9.4586    2.6675 H   0  0  0  0  0  0  0  0  0  0  0  0
   -0.9939   -8.7874    1.4311 H   0  0  0  0  0  0  0  0  0  0  0  0
   -2.0478   -7.7211    2.3470 H   0  0  0  0  0  0  0  0  0  0  0  0
    0.0064  -10.4167    4.2417 H   0  0  0  0  0  0  0  0  0  0  0  0
    0.4810  -10.2609    2.5946 H   0  0  0  0  0  0  0  0  0  0  0  0
    1.9598   -9.2594    5.0618 H   0  0  0  0  0  0  0  0  0  0  0  0
    2.4385  -10.5534    4.0234 H   0  0  0  0  0  0  0  0  0  0  0  0
    2.9595  -10.0896    1.5598 H   0  0  0  0  0  0  0  0  0  0  0  0
    3.2843   -8.4408    1.0141 H   0  0  0  0  0  0  0  0  0  0  0  0
    1.6406   -8.9630    1.2607 H   0  0  0  0  0  0  0  0  0  0  0  0
    4.5220   -9.6514    3.7440 H   0  0  0  0  0  0  0  0  0  0  0  0
    4.8515   -8.4228    2.5938 H   0  0  0  0  0  0  0  0  0  0  0  0
    4.2724   -8.1219    5.5237 H   0  0  0  0  0  0  0  0  0  0  0  0
    5.7650   -7.8283    4.6956 H   0  0  0  0  0  0  0  0  0  0  0  0
    5.9250   -5.7373    3.0079 H   0  0  0  0  0  0  0  0  0  0  0  0
    4.4880   -4.7469    2.7594 H   0  0  0  0  0  0  0  0  0  0  0  0
    4.5391   -6.3600    2.2024 H   0  0  0  0  0  0  0  0  0  0  0  0
    5.1240   -3.4548    4.3099 H   0  0  0  0  0  0  0  0  0  0  0  0
    4.9140   -3.0518    5.9459 H   0  0  0  0  0  0  0  0  0  0  0  0
    3.5329   -3.5688    5.0239 H   0  0  0  0  0  0  0  0  0  0  0  0
    6.7433   -6.4043    5.8314 H   0  0  0  0  0  0  0  0  0  0  0  0
    6.9226   -5.0500    4.7848 H   0  0  0  0  0  0  0  0  0  0  0  0
    8.1106   -4.6713    6.7994 H   0  0  0  0  0  0  0  0  0  0  0  0
    6.8359   -3.5119    6.7444 H   0  0  0  0  0  0  0  0  0  0  0  0
    8.2822   -6.4051    8.3170 H   0  0  0  0  0  0  0  0  0  0  0  0
    6.7843   -7.2299    7.9178 H   0  0  0  0  0  0  0  0  0  0  0  0
    7.1140   -6.7477    9.5738 H   0  0  0  0  0  0  0  0  0  0  0  0
    6.7887   -4.5539   10.3456 H   0  0  0  0  0  0  0  0  0  0  0  0
  1  2  1  0
  1 41  1  0
  1 42  1  0
  1 43  1  0
  2 40  1  0
  2  3  1  0
  2 44  1  6
  3  4  1  0
  3 45  1  0
  3 46  1  0
  4  5  1  0
  4 11  1  0
  4 47  1  1
  5  6  1  0
  5  7  1  0
  5 48  1  6
  6 49  1  0
  7  8  1  0
  7  9  1  0
  7 10  1  0
  8 50  1  0
  8 51  1  0
  8 52  1  0
  9 53  1  0
  9 54  1  0
  9 55  1  0
 10 56  1  0
 11 12  1  0
 12 40  1  0
 12 13  1  0
 12 57  1  1
 13 14  1  0
 13 58  1  0
 13 59  1  0
 14 38  1  0
 14 15  1  1
 14 16  1  0
 15 60  1  0
 15 61  1  0
 15 62  1  0
 16 34  1  0
 16 17  1  0
 16 63  1  1
 17 18  1  0
 17 64  1  0
 17 65  1  0
 18 19  1  0
 18 20  1  0
 18 66  1  1
 19 67  1  0
 20 32  1  0
 20 21  1  0
 20 68  1  6
 21 28  1  0
 21 22  1  0
 21 69  1  6
 22 23  1  0
 22 70  1  0
 22 71  1  0
 23 24  1  0
 23 25  1  0
 23 26  1  0
 24 72  1  0
 24 73  1  0
 24 74  1  0
 25 75  1  0
 25 76  1  0
 25 77  1  0
 26 27  1  0
 26 78  1  0
 26 79  1  0
 27 28  1  0
 27 80  1  0
 27 81  1  0
 28 29  1  6
 28 30  1  0
 29 82  1  0
 29 83  1  0
 29 84  1  0
 30 31  1  0
 30 85  1  0
 30 86  1  0
 31 32  1  0
 31 87  1  0
 31 88  1  0
 32 33  1  6
 32 34  1  0
 33 89  1  0
 33 90  1  0
 33 91  1  0
 34 35  1  6
 34 36  1  0
 35 92  1  0
 35 93  1  0
 35 94  1  0
 36 37  1  0
 36 95  1  0
 36 96  1  0
 37 38  1  0
 37 97  1  0
 37 98  1  0
 38 39  1  1
 38 40  1  0
 39 99  1  0
 39100  1  0
 39101  1  0
 40102  1  1
M  END
>  <i_m_ct_stereo_status>  (179) 
1

>  <s_m_source_file>  (179) 
/var/tmp/pbs.5076255.sched01/tmpon41x2vr/43t03z2zi4.sdf

>  <i_m_source_file_index>  (179) 
38

>  <i_lp_mmshare_version>  (179) 
48012

>  <i_f3d_flags>  (179) 
0

>  <s_epik_input>  (179) 
W0NIM11bQ0BASF0xW0NIMl1bQ0BASF0oW0NASF0oW09IXSlDKFtDSDNdKShbQ0gzXSlbT0hdKU9bQ0BASF0oW0NIMl0yKVtDQEhdMVtDQF0zKFtDSDNdKVtDSDJdW0NIMl1bQ0BdKFtDSDNdKShbQ0BIXTRbQ0BdMjNbQ0gzXSlbQ0BdNShbQ0gzXSlbQ0BIXShbQ0BASF0oW0NIMl00KVtPSF0pW0NASF02W0NAQF0oW0NIM10pKFtDSDJdW0NIMl01KVtDSDJdW0NIMl1DKFtDSDJdNikoW0NIM10pW0NIM10=

>  <s_epik_cmdline>  (179) 
J2VwaWtfcHl0aG9uJywgJy1waHQnLCAnMi4wJywgJy1waCcsICc3LjAnLCAnLXRuJywgJzgnLCAnLW1hJywgJzIwMCcsICctaW1hZScsICc8aW5maWxlLm1hZT4nLCAnLW9tYWUnLCAnPG91dGZpbGUubWFlPic=

>  <r_lp_tautomer_probability>  (179) 
1

>  <r_epik_Ionization_Penalty>  (179) 
3.09896e-06

>  <r_epik_Ionization_Penalty_Charging>  (179) 
0

>  <r_epik_Ionization_Penalty_Neutral>  (179) 
3.09896e-06

>  <r_epik_State_Penalty>  (179) 
-0

>  <r_epik_Charging_Adjusted_Penalty>  (179) 
0

>  <i_epik_Tot_Q>  (179) 
0

>  <i_epik_Tot_abs_Q>  (179) 
0

>  <s_lp_Force_Field>  (179) 
OPLS3e

>  <r_lp_Energy>  (179) 
124.84

>  <b_lp_Chiralities_Consistent>  (179) 
1

>  <s_lp_Variant>  (179) 
50:0-1

>  <s_i_glide_gridfile>  (179) 
pfpi4k_grid

>  <i_i_glide_lignum>  (179) 
38

>  <i_i_glide_rotatable_bonds>  (179) 
5

>  <r_i_docking_score>  (179) 
-1.64189

>  <r_i_glide_ligand_efficiency>  (179) 
-0.0410471

>  <r_i_glide_ligand_efficiency_sa>  (179) 
-0.140379

>  <r_i_glide_ligand_efficiency_ln>  (179) 
-0.350166

>  <r_i_glide_gscore>  (179) 
-1.64189

>  <r_i_glide_lipo>  (179) 
-0.381199

>  <r_i_glide_hbond>  (179) 
0

>  <r_i_glide_metal>  (179) 
-0

>  <r_i_glide_rewards>  (179) 
0

>  <r_i_glide_evdw>  (179) 
-27.8357

>  <r_i_glide_ecoul>  (179) 
0.509167

>  <r_i_glide_erotb>  (179) 
0.0547247

>  <r_i_glide_esite>  (179) 
0

>  <r_i_glide_emodel>  (179) 
-29.9089

>  <r_i_glide_energy>  (179) 
-27.3266

>  <r_i_glide_einternal>  (179) 
0.42841

>  <r_i_glide_intrahb_reward>  (179) 
-0

>  <i_i_glide_confnum>  (179) 
2

>  <i_i_glide_posenum>  (179) 
29

>  <r_i_glide_eff_state_penalty>  (179) 
0

>  <ligand_id>  (179) 
50

>  <original_smiles>  (179) 
CC1CC(C(O)C(C)(C)O)OC2CC3(C)C4CC(O)C5C6CC(C)(C)CCC6(C)CCC5(C)C4(C)CCC3(C)C12

>  <smiles>  (179) 
[H]OC1([H])C([H])([H])C2([H])C3(C([H])([H])[H])C([H])([H])C4([H])OC([H])(C([H])(O[H])C(O[H])(C([H])([H])[H])C([H])([H])[H])C([H])([H])C([H])(C([H])([H])[H])C4([H])C3(C([H])([H])[H])C([H])([H])C([H])([H])C2(C([H])([H])[H])C2(C([H])([H])[H])C([H])([H])C([H])([H])C3(C([H])([H])[H])C([H])([H])C([H])([H])C(C([H])([H])[H])(C([H])([H])[H])C([H])([H])C3([H])C12[H]

$$$$
51:0:0
     RDKit          3D

 83 89  0  0  1  0  0  0  0  0999 V2000
   -1.2650    1.0169    4.8431 C   0  0  0  0  0  0  0  0  0  0  0  0
   -0.6997    2.0650    3.8507 C   0  0  0  0  0  0  0  0  0  0  0  0
   -1.3056    1.8149    2.4727 C   0  0  0  0  0  0  0  0  0  0  0  0
   -1.0752    3.3651    4.2879 O   0  0  0  0  0  0  0  0  0  0  0  0
   -0.0779    4.0912    4.8078 C   0  0  0  0  0  0  0  0  0  0  0  0
   -0.1753    5.2023    5.3189 O   0  0  0  0  0  0  0  0  0  0  0  0
    1.2217    3.3183    4.7089 C   0  0  0  0  0  0  0  0  0  0  0  0
    0.8476    2.1704    3.7690 C   0  0  1  0  0  0  0  0  0  0  0  0
    1.6062    0.8275    4.0417 C   0  0  1  0  0  0  0  0  0  0  0  0
    1.5666    0.5292    5.5699 C   0  0  0  0  0  0  0  0  0  0  0  0
    0.9597   -0.2466    3.3441 O   0  0  0  0  0  0  0  0  0  0  0  0
    1.8339   -0.8027    2.3495 C   0  0  1  0  0  0  0  0  0  0  0  0
    2.5174    0.4702    1.8990 C   0  0  0  0  0  0  0  0  0  0  0  0
    2.9882    0.7583    3.3401 C   0  0  2  0  0  0  0  0  0  0  0  0
    3.8670   -0.5289    3.6383 C   0  0  1  0  0  0  0  0  0  0  0  0
    5.2360   -0.2688    2.9293 C   0  0  0  0  0  0  0  0  0  0  0  0
    4.3264   -0.7656    5.1225 C   0  0  0  0  0  0  0  0  0  0  0  0
    3.6614   -1.8535    5.9970 C   0  0  0  0  0  0  0  0  0  0  0  0
    3.2193   -3.1503    5.2685 C   0  0  2  0  0  0  0  0  0  0  0  0
    4.5440   -3.7900    4.7303 C   0  0  0  0  0  0  0  0  0  0  0  0
    2.3509   -2.7403    4.0083 C   0  0  2  0  0  0  0  0  0  0  0  0
    1.7435   -3.9852    3.2850 C   0  0  0  0  0  0  0  0  0  0  0  0
    1.0159   -4.9853    4.2041 C   0  0  1  0  0  0  0  0  0  0  0  0
    0.6263   -6.1085    3.4259 O   0  0  0  0  0  0  0  0  0  0  0  0
    1.9337   -5.3744    5.3898 C   0  0  2  0  0  0  0  0  0  0  0  0
    1.5085   -6.6351    6.1908 C   0  0  2  0  0  0  0  0  0  0  0  0
    0.4026   -6.4873    7.2275 C   0  0  0  0  0  0  0  0  0  0  0  0
    1.0886   -5.9384    8.3474 O   0  0  0  0  0  0  0  0  0  0  0  0
    2.4463   -6.0335    8.0714 C   0  0  1  0  0  0  0  0  0  0  0  0
    2.5763   -6.9482    7.0453 O   0  0  0  0  0  0  0  0  0  0  0  0
    3.0444   -4.6539    7.6150 C   0  0  1  0  0  0  0  0  0  0  0  0
    3.0155   -3.6832    8.8275 C   0  0  0  0  0  0  0  0  0  0  0  0
    4.4294   -4.8750    7.4879 O   0  0  0  0  0  0  0  0  0  0  0  0
    2.3456   -4.1203    6.2603 C   0  0  1  0  0  0  0  0  0  0  0  0
    1.0496   -3.3439    6.7318 C   0  0  0  0  0  0  0  0  0  0  0  0
    2.9735   -1.6764    2.9882 C   0  0  1  0  0  0  0  0  0  0  0  0
    3.6695   -2.3906    1.7871 C   0  0  0  0  0  0  0  0  0  0  0  0
   -0.9375    0.0138    4.5519 H   0  0  0  0  0  0  0  0  0  0  0  0
   -2.3543    0.9928    4.8031 H   0  0  0  0  0  0  0  0  0  0  0  0
   -0.9648    1.2144    5.8500 H   0  0  0  0  0  0  0  0  0  0  0  0
   -1.0316    0.8262    2.0926 H   0  0  0  0  0  0  0  0  0  0  0  0
   -0.9783    2.5398    1.7252 H   0  0  0  0  0  0  0  0  0  0  0  0
   -2.3951    1.8599    2.5137 H   0  0  0  0  0  0  0  0  0  0  0  0
    2.0451    3.9309    4.3412 H   0  0  0  0  0  0  0  0  0  0  0  0
    1.4870    2.9750    5.7033 H   0  0  0  0  0  0  0  0  0  0  0  0
    1.1058    2.5625    2.7729 H   0  0  0  0  0  0  0  0  0  0  0  0
    2.4895    0.8023    6.0672 H   0  0  0  0  0  0  0  0  0  0  0  0
    1.3021   -0.5149    5.7223 H   0  0  0  0  0  0  0  0  0  0  0  0
    0.8330    1.0547    6.1062 H   0  0  0  0  0  0  0  0  0  0  0  0
    1.2646   -1.3109    1.5654 H   0  0  0  0  0  0  0  0  0  0  0  0
    3.2906    0.3193    1.1422 H   0  0  0  0  0  0  0  0  0  0  0  0
    1.8088    1.1677    1.4519 H   0  0  0  0  0  0  0  0  0  0  0  0
    3.5484    1.6975    3.4326 H   0  0  0  0  0  0  0  0  0  0  0  0
    5.8680   -1.1540    2.9504 H   0  0  0  0  0  0  0  0  0  0  0  0
    5.7794    0.5278    3.4401 H   0  0  0  0  0  0  0  0  0  0  0  0
    5.1764    0.0475    1.8946 H   0  0  0  0  0  0  0  0  0  0  0  0
    5.3634   -1.0926    5.1150 H   0  0  0  0  0  0  0  0  0  0  0  0
    4.4059    0.1806    5.6576 H   0  0  0  0  0  0  0  0  0  0  0  0
    4.3986   -2.1169    6.7517 H   0  0  0  0  0  0  0  0  0  0  0  0
    2.8849   -1.4131    6.6021 H   0  0  0  0  0  0  0  0  0  0  0  0
    4.4051   -4.6762    4.1173 H   0  0  0  0  0  0  0  0  0  0  0  0
    5.2741   -4.0331    5.4937 H   0  0  0  0  0  0  0  0  0  0  0  0
    5.0970   -3.0971    4.1042 H   0  0  0  0  0  0  0  0  0  0  0  0
    1.4894   -2.2373    4.4193 H   0  0  0  0  0  0  0  0  0  0  0  0
    1.0421   -3.6430    2.5274 H   0  0  0  0  0  0  0  0  0  0  0  0
    2.5210   -4.5296    2.7528 H   0  0  0  0  0  0  0  0  0  0  0  0
    0.0776   -4.5577    4.5471 H   0  0  0  0  0  0  0  0  0  0  0  0
    1.3864   -6.6276    3.2265 H   0  0  0  0  0  0  0  0  0  0  0  0
    2.8417   -5.7518    4.9290 H   0  0  0  0  0  0  0  0  0  0  0  0
    1.3219   -7.4795    5.5261 H   0  0  0  0  0  0  0  0  0  0  0  0
   -0.4239   -5.8713    6.8758 H   0  0  0  0  0  0  0  0  0  0  0  0
    0.0021   -7.4680    7.4916 H   0  0  0  0  0  0  0  0  0  0  0  0
    2.9508   -6.4300    8.9521 H   0  0  0  0  0  0  0  0  0  0  0  0
    2.0096   -3.4941    9.1947 H   0  0  0  0  0  0  0  0  0  0  0  0
    3.4567   -2.7192    8.5966 H   0  0  0  0  0  0  0  0  0  0  0  0
    3.5791   -4.0730    9.6749 H   0  0  0  0  0  0  0  0  0  0  0  0
    4.7440   -5.2904    8.2741 H   0  0  0  0  0  0  0  0  0  0  0  0
    0.4268   -3.9056    7.4170 H   0  0  0  0  0  0  0  0  0  0  0  0
    0.3666   -3.0399    5.9481 H   0  0  0  0  0  0  0  0  0  0  0  0
    1.2575   -2.4361    7.2873 H   0  0  0  0  0  0  0  0  0  0  0  0
    4.4512   -3.0799    2.0892 H   0  0  0  0  0  0  0  0  0  0  0  0
    4.1136   -1.7019    1.0735 H   0  0  0  0  0  0  0  0  0  0  0  0
    2.9531   -2.9545    1.1922 H   0  0  0  0  0  0  0  0  0  0  0  0
  1  2  1  0
  1 38  1  0
  1 39  1  0
  1 40  1  0
  2  8  1  0
  2  3  1  0
  2  4  1  0
  3 41  1  0
  3 42  1  0
  3 43  1  0
  4  5  1  0
  5  6  2  0
  5  7  1  0
  7  8  1  0
  7 44  1  0
  7 45  1  0
  8  9  1  0
  8 46  1  6
  9 14  1  0
  9 10  1  1
  9 11  1  0
 10 47  1  0
 10 48  1  0
 10 49  1  0
 11 12  1  0
 12 36  1  0
 12 13  1  0
 12 50  1  6
 13 14  1  0
 13 51  1  0
 13 52  1  0
 14 15  1  0
 14 53  1  6
 15 36  1  0
 15 16  1  6
 15 17  1  0
 16 54  1  0
 16 55  1  0
 16 56  1  0
 17 18  1  0
 17 57  1  0
 17 58  1  0
 18 19  1  0
 18 59  1  0
 18 60  1  0
 19 34  1  0
 19 20  1  6
 19 21  1  0
 20 61  1  0
 20 62  1  0
 20 63  1  0
 21 22  1  0
 21 36  1  0
 21 64  1  1
 22 23  1  0
 22 65  1  0
 22 66  1  0
 23 24  1  0
 23 25  1  0
 23 67  1  1
 24 68  1  0
 25 34  1  0
 25 26  1  0
 25 69  1  6
 26 30  1  0
 26 27  1  0
 26 70  1  6
 27 28  1  0
 27 71  1  0
 27 72  1  0
 28 29  1  0
 29 30  1  0
 29 31  1  0
 29 73  1  1
 31 32  1  0
 31 33  1  6
 31 34  1  0
 32 74  1  0
 32 75  1  0
 32 76  1  0
 33 77  1  0
 34 35  1  1
 35 78  1  0
 35 79  1  0
 35 80  1  0
 36 37  1  6
 37 81  1  0
 37 82  1  0
 37 83  1  0
M  END
>  <i_m_ct_stereo_status>  (180) 
1

>  <s_m_source_file>  (180) 
/var/tmp/pbs.5076255.sched01/tmpon41x2vr/43t03z2zi4.sdf

>  <i_m_source_file_index>  (180) 
39

>  <i_lp_mmshare_version>  (180) 
48012

>  <i_f3d_flags>  (180) 
0

>  <s_epik_input>  (180) 
W0NIM11DMShbQ0gzXSlPQyg9TylbQ0gyXVtDQEhdMVtDQF0oW0NIM10pKFtDQEhdMltDQEBdMzRbQ0gzXSlPW0NAQEhdKFtDSDJdMilbQ0BdNChbQ0gzXSlbQ0BASF01W0NAQF0oW0NIM10pKFtDSDJdW0NIMl0zKVtDQEBdNihbQ0gzXSlbQ0BIXShbQ0BASF0oW0NIMl01KVtPSF0pW0NAQEhdN1tDSDJdT1tDQEBIXShPNylbQ0BAXTYoW0NIM10pW09IXQ==

>  <s_epik_cmdline>  (180) 
J2VwaWtfcHl0aG9uJywgJy1waHQnLCAnMi4wJywgJy1waCcsICc3LjAnLCAnLXRuJywgJzgnLCAnLW1hJywgJzIwMCcsICctaW1hZScsICc8aW5maWxlLm1hZT4nLCAnLW9tYWUnLCAnPG91dGZpbGUubWFlPic=

>  <r_lp_tautomer_probability>  (180) 
1

>  <r_epik_Ionization_Penalty>  (180) 
2.18342e-07

>  <r_epik_Ionization_Penalty_Charging>  (180) 
0

>  <r_epik_Ionization_Penalty_Neutral>  (180) 
2.18342e-07

>  <r_epik_State_Penalty>  (180) 
-0

>  <r_epik_Charging_Adjusted_Penalty>  (180) 
0

>  <i_epik_Tot_Q>  (180) 
0

>  <i_epik_Tot_abs_Q>  (180) 
0

>  <s_epik_Chemistry_Notes>  (180) 
This compound has an ester and may undergo hydrolysis at high or low pH. This compound contains an acetal/aminal-like group ( X-CH(R)-Y where X, Y are N, S, or O) that may be acid/base labile, releasing an aldehyde.

>  <s_lp_Force_Field>  (180) 
OPLS3e

>  <r_lp_Energy>  (180) 
116.459

>  <b_lp_Chiralities_Consistent>  (180) 
1

>  <s_lp_Variant>  (180) 
51:0-1

>  <s_i_glide_gridfile>  (180) 
pfpi4k_grid

>  <i_i_glide_lignum>  (180) 
39

>  <i_i_glide_rotatable_bonds>  (180) 
3

>  <r_i_docking_score>  (180) 
-1.85518

>  <r_i_glide_ligand_efficiency>  (180) 
-0.0501401

>  <r_i_glide_ligand_efficiency_sa>  (180) 
-0.167078

>  <r_i_glide_ligand_efficiency_ln>  (180) 
-0.402345

>  <r_i_glide_gscore>  (180) 
-1.85518

>  <r_i_glide_lipo>  (180) 
-0.158508

>  <r_i_glide_hbond>  (180) 
0

>  <r_i_glide_metal>  (180) 
-0

>  <r_i_glide_rewards>  (180) 
0

>  <r_i_glide_evdw>  (180) 
-26.3713

>  <r_i_glide_ecoul>  (180) 
-2.82057

>  <r_i_glide_erotb>  (180) 
0.0763479

>  <r_i_glide_esite>  (180) 
-0.0313709

>  <r_i_glide_emodel>  (180) 
-31.0297

>  <r_i_glide_energy>  (180) 
-29.1919

>  <r_i_glide_einternal>  (180) 
0.111944

>  <r_i_glide_intrahb_reward>  (180) 
-0

>  <i_i_glide_confnum>  (180) 
2

>  <i_i_glide_posenum>  (180) 
22

>  <r_i_glide_eff_state_penalty>  (180) 
0

>  <ligand_id>  (180) 
51

>  <original_smiles>  (180) 
CC1(C)OC(=O)CC1C1(C)OC2CC1C1(C)CCC3(C)C(CC(O)C4C5COC(O5)C(C)(O)C43C)C21C

>  <smiles>  (180) 
[H]OC1([H])C([H])([H])C2([H])C(C([H])([H])[H])(C([H])([H])C([H])([H])C3(C([H])([H])[H])C4([H])C([H])([H])C([H])(OC4(C([H])([H])[H])C4([H])C([H])([H])C(=O)OC4(C([H])([H])[H])C([H])([H])[H])C23C([H])([H])[H])C2(C([H])([H])[H])C1([H])C1([H])OC([H])(OC1([H])[H])C2(O[H])C([H])([H])[H]

$$$$
51:0:1
     RDKit          3D

 83 89  0  0  1  0  0  0  0  0999 V2000
   -0.4311    0.6142    6.5293 C   0  0  0  0  0  0  0  0  0  0  0  0
   -1.4928    0.7192    5.3950 C   0  0  0  0  0  0  0  0  0  0  0  0
   -2.5406   -0.4043    5.5665 C   0  0  0  0  0  0  0  0  0  0  0  0
   -2.1633    1.9635    5.5044 O   0  0  0  0  0  0  0  0  0  0  0  0
   -1.8304    2.8775    4.5506 C   0  0  0  0  0  0  0  0  0  0  0  0
   -2.1639    4.0473    4.5116 O   0  0  0  0  0  0  0  0  0  0  0  0
   -0.8964    2.2139    3.6201 C   0  0  0  0  0  0  0  0  0  0  0  0
   -0.9238    0.7073    3.9468 C   0  0  1  0  0  0  0  0  0  0  0  0
    0.4046   -0.1121    3.7388 C   0  0  1  0  0  0  0  0  0  0  0  0
    0.3694   -1.4703    4.5146 C   0  0  0  0  0  0  0  0  0  0  0  0
    0.5695   -0.4980    2.3719 O   0  0  0  0  0  0  0  0  0  0  0  0
    1.7455    0.1080    1.8084 C   0  0  1  0  0  0  0  0  0  0  0  0
    1.6314    1.4582    2.4347 C   0  0  0  0  0  0  0  0  0  0  0  0
    1.6648    0.8028    3.8424 C   0  0  2  0  0  0  0  0  0  0  0  0
    3.0723    0.1008    3.8242 C   0  0  1  0  0  0  0  0  0  0  0  0
    4.0832    1.2539    4.1053 C   0  0  0  0  0  0  0  0  0  0  0  0
    3.4173   -0.8843    4.9943 C   0  0  0  0  0  0  0  0  0  0  0  0
    3.4122   -2.4093    4.7478 C   0  0  0  0  0  0  0  0  0  0  0  0
    3.8691   -2.8857    3.3441 C   0  0  2  0  0  0  0  0  0  0  0  0
    5.3565   -2.4330    3.2338 C   0  0  0  0  0  0  0  0  0  0  0  0
    3.0664   -2.0822    2.2475 C   0  0  2  0  0  0  0  0  0  0  0  0
    3.3568   -2.5789    0.8049 C   0  0  0  0  0  0  0  0  0  0  0  0
    3.2456   -4.0966    0.6192 C   0  0  1  0  0  0  0  0  0  0  0  0
    3.7035   -4.3665   -0.6875 O   0  0  0  0  0  0  0  0  0  0  0  0
    4.0935   -4.8252    1.6905 C   0  0  2  0  0  0  0  0  0  0  0  0
    4.3926   -6.3257    1.4165 C   0  0  2  0  0  0  0  0  0  0  0  0
    3.3020   -7.3422    1.7254 C   0  0  0  0  0  0  0  0  0  0  0  0
    3.4245   -7.5135    3.1344 O   0  0  0  0  0  0  0  0  0  0  0  0
    4.6023   -6.8979    3.5181 C   0  0  1  0  0  0  0  0  0  0  0  0
    5.3470   -6.7185    2.3687 O   0  0  0  0  0  0  0  0  0  0  0  0
    4.3394   -5.4994    4.1778 C   0  0  1  0  0  0  0  0  0  0  0  0
    3.6310   -5.7275    5.5408 C   0  0  0  0  0  0  0  0  0  0  0  0
    5.6102   -5.0539    4.5711 O   0  0  0  0  0  0  0  0  0  0  0  0
    3.6134   -4.4903    3.1554 C   0  0  1  0  0  0  0  0  0  0  0  0
    2.0658   -4.7839    3.2989 C   0  0  0  0  0  0  0  0  0  0  0  0
    3.0812   -0.4989    2.3533 C   0  0  1  0  0  0  0  0  0  0  0  0
    4.1671    0.1483    1.4335 C   0  0  0  0  0  0  0  0  0  0  0  0
   -0.0010   -0.3385    6.5693 H   0  0  0  0  0  0  0  0  0  0  0  0
   -0.8875    0.8079    7.4896 H   0  0  0  0  0  0  0  0  0  0  0  0
    0.3409    1.3706    6.3793 H   0  0  0  0  0  0  0  0  0  0  0  0
   -2.1910   -1.4200    5.5811 H   0  0  0  0  0  0  0  0  0  0  0  0
   -3.3390   -0.3471    4.8018 H   0  0  0  0  0  0  0  0  0  0  0  0
   -2.9687   -0.1947    6.5312 H   0  0  0  0  0  0  0  0  0  0  0  0
   -1.1334    2.4453    2.5474 H   0  0  0  0  0  0  0  0  0  0  0  0
    0.1054    2.6463    3.8276 H   0  0  0  0  0  0  0  0  0  0  0  0
   -1.6771    0.2821    3.2667 H   0  0  0  0  0  0  0  0  0  0  0  0
    0.9286   -1.3920    5.4524 H   0  0  0  0  0  0  0  0  0  0  0  0
    0.7605   -2.2773    3.9127 H   0  0  0  0  0  0  0  0  0  0  0  0
   -0.6035   -1.7820    4.7336 H   0  0  0  0  0  0  0  0  0  0  0  0
    1.6680    0.1596    0.7251 H   0  0  0  0  0  0  0  0  0  0  0  0
    2.4468    2.1380    2.1904 H   0  0  0  0  0  0  0  0  0  0  0  0
    0.7195    1.9239    2.0760 H   0  0  0  0  0  0  0  0  0  0  0  0
    1.6065    1.5463    4.6494 H   0  0  0  0  0  0  0  0  0  0  0  0
    5.1093    0.9340    3.9367 H   0  0  0  0  0  0  0  0  0  0  0  0
    4.0147    1.6110    5.1333 H   0  0  0  0  0  0  0  0  0  0  0  0
    3.9193    2.1499    3.5260 H   0  0  0  0  0  0  0  0  0  0  0  0
    4.4492   -0.7018    5.3007 H   0  0  0  0  0  0  0  0  0  0  0  0
    2.8685   -0.6108    5.8998 H   0  0  0  0  0  0  0  0  0  0  0  0
    4.0821   -2.8191    5.4981 H   0  0  0  0  0  0  0  0  0  0  0  0
    2.4688   -2.8318    5.0496 H   0  0  0  0  0  0  0  0  0  0  0  0
    5.8297   -2.6272    2.2758 H   0  0  0  0  0  0  0  0  0  0  0  0
    5.9794   -2.8441    4.0111 H   0  0  0  0  0  0  0  0  0  0  0  0
    5.4785   -1.3680    3.4031 H   0  0  0  0  0  0  0  0  0  0  0  0
    2.0362   -2.3455    2.3872 H   0  0  0  0  0  0  0  0  0  0  0  0
    2.6798   -2.0876    0.1048 H   0  0  0  0  0  0  0  0  0  0  0  0
    4.3604   -2.2841    0.5016 H   0  0  0  0  0  0  0  0  0  0  0  0
    2.2044   -4.4110    0.6473 H   0  0  0  0  0  0  0  0  0  0  0  0
    2.9557   -4.5232   -1.2514 H   0  0  0  0  0  0  0  0  0  0  0  0
    5.0955   -4.4216    1.5755 H   0  0  0  0  0  0  0  0  0  0  0  0
    4.7990   -6.4705    0.4146 H   0  0  0  0  0  0  0  0  0  0  0  0
    2.3126   -7.0113    1.4109 H   0  0  0  0  0  0  0  0  0  0  0  0
    3.5118   -8.2906    1.2242 H   0  0  0  0  0  0  0  0  0  0  0  0
    5.1445   -7.5700    4.1832 H   0  0  0  0  0  0  0  0  0  0  0  0
    2.6691   -6.2221    5.4385 H   0  0  0  0  0  0  0  0  0  0  0  0
    3.4587   -4.7994    6.0765 H   0  0  0  0  0  0  0  0  0  0  0  0
    4.2278   -6.3509    6.2052 H   0  0  0  0  0  0  0  0  0  0  0  0
    6.1707   -5.0750    3.8085 H   0  0  0  0  0  0  0  0  0  0  0  0
    1.8121   -5.8335    3.2145 H   0  0  0  0  0  0  0  0  0  0  0  0
    1.4207   -4.2974    2.5777 H   0  0  0  0  0  0  0  0  0  0  0  0
    1.6537   -4.5177    4.2659 H   0  0  0  0  0  0  0  0  0  0  0  0
    5.1709   -0.2137    1.6649 H   0  0  0  0  0  0  0  0  0  0  0  0
    4.1590    1.2033    1.4592 H   0  0  0  0  0  0  0  0  0  0  0  0
    3.9762   -0.0828    0.3827 H   0  0  0  0  0  0  0  0  0  0  0  0
  1  2  1  0
  1 38  1  0
  1 39  1  0
  1 40  1  0
  2  8  1  0
  2  3  1  0
  2  4  1  0
  3 41  1  0
  3 42  1  0
  3 43  1  0
  4  5  1  0
  5  6  2  0
  5  7  1  0
  7  8  1  0
  7 44  1  0
  7 45  1  0
  8  9  1  0
  8 46  1  6
  9 14  1  0
  9 10  1  1
  9 11  1  0
 10 47  1  0
 10 48  1  0
 10 49  1  0
 11 12  1  0
 12 36  1  0
 12 13  1  0
 12 50  1  6
 13 14  1  0
 13 51  1  0
 13 52  1  0
 14 15  1  0
 14 53  1  1
 15 36  1  0
 15 16  1  6
 15 17  1  0
 16 54  1  0
 16 55  1  0
 16 56  1  0
 17 18  1  0
 17 57  1  0
 17 58  1  0
 18 19  1  0
 18 59  1  0
 18 60  1  0
 19 34  1  0
 19 20  1  6
 19 21  1  0
 20 61  1  0
 20 62  1  0
 20 63  1  0
 21 22  1  0
 21 36  1  0
 21 64  1  1
 22 23  1  0
 22 65  1  0
 22 66  1  0
 23 24  1  0
 23 25  1  0
 23 67  1  6
 24 68  1  0
 25 34  1  0
 25 26  1  0
 25 69  1  1
 26 30  1  0
 26 27  1  0
 26 70  1  6
 27 28  1  0
 27 71  1  0
 27 72  1  0
 28 29  1  0
 29 30  1  0
 29 31  1  0
 29 73  1  1
 31 32  1  0
 31 33  1  1
 31 34  1  0
 32 74  1  0
 32 75  1  0
 32 76  1  0
 33 77  1  0
 34 35  1  6
 35 78  1  0
 35 79  1  0
 35 80  1  0
 36 37  1  6
 37 81  1  0
 37 82  1  0
 37 83  1  0
M  END
>  <i_m_ct_stereo_status>  (181) 
1

>  <s_m_source_file>  (181) 
/var/tmp/pbs.5076255.sched01/tmpon41x2vr/43t03z2zi4.sdf

>  <i_m_source_file_index>  (181) 
39

>  <i_lp_mmshare_version>  (181) 
48012

>  <i_f3d_flags>  (181) 
0

>  <s_epik_input>  (181) 
W0NIM11DMShbQ0gzXSlPQyg9TylbQ0gyXVtDQEhdMVtDQF0oW0NIM10pKFtDQEhdMltDQEBdMzRbQ0gzXSlPW0NAQEhdKFtDSDJdMilbQ0BdNChbQ0gzXSlbQ0BASF01W0NAQF0oW0NIM10pKFtDSDJdW0NIMl0zKVtDQEBdNihbQ0gzXSlbQ0BIXShbQ0BASF0oW0NIMl01KVtPSF0pW0NAQEhdN1tDSDJdT1tDQEBIXShPNylbQ0BAXTYoW0NIM10pW09IXQ==

>  <s_epik_cmdline>  (181) 
J2VwaWtfcHl0aG9uJywgJy1waHQnLCAnMi4wJywgJy1waCcsICc3LjAnLCAnLXRuJywgJzgnLCAnLW1hJywgJzIwMCcsICctaW1hZScsICc8aW5maWxlLm1hZT4nLCAnLW9tYWUnLCAnPG91dGZpbGUubWFlPic=

>  <r_lp_tautomer_probability>  (181) 
1

>  <r_epik_Ionization_Penalty>  (181) 
2.18342e-07

>  <r_epik_Ionization_Penalty_Charging>  (181) 
0

>  <r_epik_Ionization_Penalty_Neutral>  (181) 
2.18342e-07

>  <r_epik_State_Penalty>  (181) 
-0

>  <r_epik_Charging_Adjusted_Penalty>  (181) 
0

>  <i_epik_Tot_Q>  (181) 
0

>  <i_epik_Tot_abs_Q>  (181) 
0

>  <s_epik_Chemistry_Notes>  (181) 
This compound has an ester and may undergo hydrolysis at high or low pH. This compound contains an acetal/aminal-like group ( X-CH(R)-Y where X, Y are N, S, or O) that may be acid/base labile, releasing an aldehyde.

>  <s_lp_Force_Field>  (181) 
OPLS3e

>  <r_lp_Energy>  (181) 
116.459

>  <b_lp_Chiralities_Consistent>  (181) 
1

>  <s_lp_Variant>  (181) 
51:0-1

>  <s_i_glide_gridfile>  (181) 
pfpi4k_grid

>  <i_i_glide_lignum>  (181) 
39

>  <i_i_glide_rotatable_bonds>  (181) 
3

>  <r_i_docking_score>  (181) 
-1.25513

>  <r_i_glide_ligand_efficiency>  (181) 
-0.0339225

>  <r_i_glide_ligand_efficiency_sa>  (181) 
-0.113037

>  <r_i_glide_ligand_efficiency_ln>  (181) 
-0.272209

>  <r_i_glide_gscore>  (181) 
-1.25513

>  <r_i_glide_lipo>  (181) 
-0.209743

>  <r_i_glide_hbond>  (181) 
-0.132067

>  <r_i_glide_metal>  (181) 
-0

>  <r_i_glide_rewards>  (181) 
0

>  <r_i_glide_evdw>  (181) 
-16.7466

>  <r_i_glide_ecoul>  (181) 
-2.88883

>  <r_i_glide_erotb>  (181) 
0.0763479

>  <r_i_glide_esite>  (181) 
-0.0220238

>  <r_i_glide_emodel>  (181) 
-9.24643

>  <r_i_glide_energy>  (181) 
-19.6354

>  <r_i_glide_einternal>  (181) 
16.5976

>  <r_i_glide_intrahb_reward>  (181) 
-0

>  <i_i_glide_confnum>  (181) 
4

>  <i_i_glide_posenum>  (181) 
31

>  <r_i_glide_eff_state_penalty>  (181) 
0

>  <ligand_id>  (181) 
51

>  <original_smiles>  (181) 
CC1(C)OC(=O)CC1C1(C)OC2CC1C1(C)CCC3(C)C(CC(O)C4C5COC(O5)C(C)(O)C43C)C21C

>  <smiles>  (181) 
[H]OC1([H])C([H])([H])C2([H])C(C([H])([H])[H])(C([H])([H])C([H])([H])C3(C([H])([H])[H])C4([H])C([H])([H])C([H])(OC4(C([H])([H])[H])C4([H])C([H])([H])C(=O)OC4(C([H])([H])[H])C([H])([H])[H])C23C([H])([H])[H])C2(C([H])([H])[H])C1([H])C1([H])OC([H])(OC1([H])[H])C2(O[H])C([H])([H])[H]

$$$$
51:0:2
     RDKit          3D

 83 89  0  0  1  0  0  0  0  0999 V2000
   -0.3923    0.5244    6.6454 C   0  0  0  0  0  0  0  0  0  0  0  0
   -1.3547    0.6669    5.4567 C   0  0  0  0  0  0  0  0  0  0  0  0
   -2.4940   -0.3674    5.5490 C   0  0  0  0  0  0  0  0  0  0  0  0
   -1.9364    1.9566    5.5730 O   0  0  0  0  0  0  0  0  0  0  0  0
   -1.4974    2.8456    4.6950 C   0  0  0  0  0  0  0  0  0  0  0  0
   -1.7490    4.0789    4.6545 O   0  0  0  0  0  0  0  0  0  0  0  0
   -0.5572    2.1956    3.7803 C   0  0  0  0  0  0  0  0  0  0  0  0
   -0.7089    0.6603    4.0523 C   0  0  1  0  0  0  0  0  0  0  0  0
    0.5867   -0.2413    3.8737 C   0  0  1  0  0  0  0  0  0  0  0  0
    0.4668   -1.5973    4.5885 C   0  0  0  0  0  0  0  0  0  0  0  0
    0.7706   -0.5955    2.5160 O   0  0  0  0  0  0  0  0  0  0  0  0
    2.0167   -0.0687    2.0223 C   0  0  1  0  0  0  0  0  0  0  0  0
    1.9917    1.2632    2.6766 C   0  0  0  0  0  0  0  0  0  0  0  0
    1.8927    0.5871    4.0758 C   0  0  2  0  0  0  0  0  0  0  0  0
    3.2480   -0.1943    4.1153 C   0  0  1  0  0  0  0  0  0  0  0  0
    4.3293    0.8828    4.4731 C   0  0  0  0  0  0  0  0  0  0  0  0
    3.4683   -1.2286    5.2716 C   0  0  0  0  0  0  0  0  0  0  0  0
    3.3757   -2.7466    4.9836 C   0  0  0  0  0  0  0  0  0  0  0  0
    3.8790   -3.2214    3.5957 C   0  0  2  0  0  0  0  0  0  0  0  0
    5.3983   -2.8686    3.5792 C   0  0  0  0  0  0  0  0  0  0  0  0
    3.1943   -2.3362    2.4809 C   0  0  2  0  0  0  0  0  0  0  0  0
    3.5339   -2.8111    1.0364 C   0  0  0  0  0  0  0  0  0  0  0  0
    3.3403   -4.3162    0.8052 C   0  0  1  0  0  0  0  0  0  0  0  0
    3.8222   -4.6256   -0.4792 O   0  0  0  0  0  0  0  0  0  0  0  0
    4.0700   -5.1298    1.9009 C   0  0  2  0  0  0  0  0  0  0  0  0
    4.2824   -6.6371    1.5938 C   0  0  2  0  0  0  0  0  0  0  0  0
    3.1153   -7.5850    1.8140 C   0  0  0  0  0  0  0  0  0  0  0  0
    3.1454   -7.8056    3.2204 O   0  0  0  0  0  0  0  0  0  0  0  0
    4.3411   -7.2806    3.6817 C   0  0  1  0  0  0  0  0  0  0  0  0
    5.1608   -7.1141    2.5833 O   0  0  0  0  0  0  0  0  0  0  0  0
    4.1368   -5.8803    4.3685 C   0  0  1  0  0  0  0  0  0  0  0  0
    3.3384   -6.0941    5.6890 C   0  0  0  0  0  0  0  0  0  0  0  0
    5.4084   -5.5301    4.8435 O   0  0  0  0  0  0  0  0  0  0  0  0
    3.5307   -4.7941    3.3445 C   0  0  1  0  0  0  0  0  0  0  0  0
    1.9601   -4.9930    3.3952 C   0  0  0  0  0  0  0  0  0  0  0  0
    3.2914   -0.7593    2.6310 C   0  0  1  0  0  0  0  0  0  0  0  0
    4.4752   -0.1957    1.7965 C   0  0  0  0  0  0  0  0  0  0  0  0
   -0.0173   -0.5158    6.7255 H   0  0  0  0  0  0  0  0  0  0  0  0
   -0.8525    0.6383    7.5830 H   0  0  0  0  0  0  0  0  0  0  0  0
    0.4722    1.1593    6.5614 H   0  0  0  0  0  0  0  0  0  0  0  0
   -2.2369   -1.4222    5.5427 H   0  0  0  0  0  0  0  0  0  0  0  0
   -3.2119   -0.2882    4.7222 H   0  0  0  0  0  0  0  0  0  0  0  0
   -2.9815   -0.2108    6.4826 H   0  0  0  0  0  0  0  0  0  0  0  0
   -0.7181    2.4589    2.7176 H   0  0  0  0  0  0  0  0  0  0  0  0
    0.4280    2.5534    4.0799 H   0  0  0  0  0  0  0  0  0  0  0  0
   -1.4421    0.3158    3.3045 H   0  0  0  0  0  0  0  0  0  0  0  0
    0.9607   -1.6325    5.5483 H   0  0  0  0  0  0  0  0  0  0  0  0
    0.7907   -2.4289    4.0288 H   0  0  0  0  0  0  0  0  0  0  0  0
   -0.5637   -1.8838    4.7760 H   0  0  0  0  0  0  0  0  0  0  0  0
    1.9886   -0.0134    0.9326 H   0  0  0  0  0  0  0  0  0  0  0  0
    2.8382    1.9137    2.5161 H   0  0  0  0  0  0  0  0  0  0  0  0
    1.1623    1.8134    2.2577 H   0  0  0  0  0  0  0  0  0  0  0  0
    1.8414    1.3066    4.9120 H   0  0  0  0  0  0  0  0  0  0  0  0
    5.3397    0.4903    4.3652 H   0  0  0  0  0  0  0  0  0  0  0  0
    4.2259    1.2229    5.5098 H   0  0  0  0  0  0  0  0  0  0  0  0
    4.2958    1.8001    3.8964 H   0  0  0  0  0  0  0  0  0  0  0  0
    4.4838   -1.1312    5.6348 H   0  0  0  0  0  0  0  0  0  0  0  0
    2.8912   -0.9474    6.1611 H   0  0  0  0  0  0  0  0  0  0  0  0
    3.9763   -3.2231    5.7561 H   0  0  0  0  0  0  0  0  0  0  0  0
    2.3932   -3.1162    5.2202 H   0  0  0  0  0  0  0  0  0  0  0  0
    5.9046   -3.0634    2.6387 H   0  0  0  0  0  0  0  0  0  0  0  0
    5.9616   -3.3359    4.3756 H   0  0  0  0  0  0  0  0  0  0  0  0
    5.5766   -1.8157    3.7811 H   0  0  0  0  0  0  0  0  0  0  0  0
    2.1406   -2.5336    2.5589 H   0  0  0  0  0  0  0  0  0  0  0  0
    2.9246   -2.2628    0.3191 H   0  0  0  0  0  0  0  0  0  0  0  0
    4.5669   -2.5698    0.7968 H   0  0  0  0  0  0  0  0  0  0  0  0
    2.2778   -4.5505    0.7655 H   0  0  0  0  0  0  0  0  0  0  0  0
    4.7457   -4.4748   -0.5377 H   0  0  0  0  0  0  0  0  0  0  0  0
    5.0979   -4.7881    1.8537 H   0  0  0  0  0  0  0  0  0  0  0  0
    4.7341   -6.7814    0.6103 H   0  0  0  0  0  0  0  0  0  0  0  0
    2.1691   -7.1792    1.4579 H   0  0  0  0  0  0  0  0  0  0  0  0
    3.2880   -8.5324    1.2912 H   0  0  0  0  0  0  0  0  0  0  0  0
    4.8027   -7.9985    4.3580 H   0  0  0  0  0  0  0  0  0  0  0  0
    2.3510   -6.5218    5.5219 H   0  0  0  0  0  0  0  0  0  0  0  0
    3.1957   -5.1715    6.2427 H   0  0  0  0  0  0  0  0  0  0  0  0
    3.8539   -6.7737    6.3658 H   0  0  0  0  0  0  0  0  0  0  0  0
    6.0037   -5.5623    4.1094 H   0  0  0  0  0  0  0  0  0  0  0  0
    1.6446   -6.0206    3.2653 H   0  0  0  0  0  0  0  0  0  0  0  0
    1.3911   -4.4456    2.6538 H   0  0  0  0  0  0  0  0  0  0  0  0
    1.5138   -4.7243    4.3454 H   0  0  0  0  0  0  0  0  0  0  0  0
    5.4410   -0.5981    2.0674 H   0  0  0  0  0  0  0  0  0  0  0  0
    4.5439    0.8760    1.8797 H   0  0  0  0  0  0  0  0  0  0  0  0
    4.3309   -0.3380    0.7277 H   0  0  0  0  0  0  0  0  0  0  0  0
  1  2  1  0
  1 38  1  0
  1 39  1  0
  1 40  1  0
  2  8  1  0
  2  3  1  0
  2  4  1  0
  3 41  1  0
  3 42  1  0
  3 43  1  0
  4  5  1  0
  5  6  2  0
  5  7  1  0
  7  8  1  0
  7 44  1  0
  7 45  1  0
  8  9  1  0
  8 46  1  6
  9 14  1  0
  9 10  1  1
  9 11  1  0
 10 47  1  0
 10 48  1  0
 10 49  1  0
 11 12  1  0
 12 36  1  0
 12 13  1  0
 12 50  1  6
 13 14  1  0
 13 51  1  0
 13 52  1  0
 14 15  1  0
 14 53  1  1
 15 36  1  0
 15 16  1  6
 15 17  1  0
 16 54  1  0
 16 55  1  0
 16 56  1  0
 17 18  1  0
 17 57  1  0
 17 58  1  0
 18 19  1  0
 18 59  1  0
 18 60  1  0
 19 34  1  0
 19 20  1  1
 19 21  1  0
 20 61  1  0
 20 62  1  0
 20 63  1  0
 21 22  1  0
 21 36  1  0
 21 64  1  1
 22 23  1  0
 22 65  1  0
 22 66  1  0
 23 24  1  0
 23 25  1  0
 23 67  1  6
 24 68  1  0
 25 34  1  0
 25 26  1  0
 25 69  1  1
 26 30  1  0
 26 27  1  0
 26 70  1  6
 27 28  1  0
 27 71  1  0
 27 72  1  0
 28 29  1  0
 29 30  1  0
 29 31  1  0
 29 73  1  1
 31 32  1  0
 31 33  1  1
 31 34  1  0
 32 74  1  0
 32 75  1  0
 32 76  1  0
 33 77  1  0
 34 35  1  6
 35 78  1  0
 35 79  1  0
 35 80  1  0
 36 37  1  6
 37 81  1  0
 37 82  1  0
 37 83  1  0
M  END
>  <i_m_ct_stereo_status>  (182) 
1

>  <s_m_source_file>  (182) 
/var/tmp/pbs.5076255.sched01/tmpon41x2vr/43t03z2zi4.sdf

>  <i_m_source_file_index>  (182) 
39

>  <i_lp_mmshare_version>  (182) 
48012

>  <i_f3d_flags>  (182) 
0

>  <s_epik_input>  (182) 
W0NIM11DMShbQ0gzXSlPQyg9TylbQ0gyXVtDQEhdMVtDQF0oW0NIM10pKFtDQEhdMltDQEBdMzRbQ0gzXSlPW0NAQEhdKFtDSDJdMilbQ0BdNChbQ0gzXSlbQ0BASF01W0NAQF0oW0NIM10pKFtDSDJdW0NIMl0zKVtDQEBdNihbQ0gzXSlbQ0BIXShbQ0BASF0oW0NIMl01KVtPSF0pW0NAQEhdN1tDSDJdT1tDQEBIXShPNylbQ0BAXTYoW0NIM10pW09IXQ==

>  <s_epik_cmdline>  (182) 
J2VwaWtfcHl0aG9uJywgJy1waHQnLCAnMi4wJywgJy1waCcsICc3LjAnLCAnLXRuJywgJzgnLCAnLW1hJywgJzIwMCcsICctaW1hZScsICc8aW5maWxlLm1hZT4nLCAnLW9tYWUnLCAnPG91dGZpbGUubWFlPic=

>  <r_lp_tautomer_probability>  (182) 
1

>  <r_epik_Ionization_Penalty>  (182) 
2.18342e-07

>  <r_epik_Ionization_Penalty_Charging>  (182) 
0

>  <r_epik_Ionization_Penalty_Neutral>  (182) 
2.18342e-07

>  <r_epik_State_Penalty>  (182) 
-0

>  <r_epik_Charging_Adjusted_Penalty>  (182) 
0

>  <i_epik_Tot_Q>  (182) 
0

>  <i_epik_Tot_abs_Q>  (182) 
0

>  <s_epik_Chemistry_Notes>  (182) 
This compound has an ester and may undergo hydrolysis at high or low pH. This compound contains an acetal/aminal-like group ( X-CH(R)-Y where X, Y are N, S, or O) that may be acid/base labile, releasing an aldehyde.

>  <s_lp_Force_Field>  (182) 
OPLS3e

>  <r_lp_Energy>  (182) 
116.459

>  <b_lp_Chiralities_Consistent>  (182) 
1

>  <s_lp_Variant>  (182) 
51:0-1

>  <s_i_glide_gridfile>  (182) 
pfpi4k_grid

>  <i_i_glide_lignum>  (182) 
39

>  <i_i_glide_rotatable_bonds>  (182) 
3

>  <r_i_docking_score>  (182) 
-1.08458

>  <r_i_glide_ligand_efficiency>  (182) 
-0.0293129

>  <r_i_glide_ligand_efficiency_sa>  (182) 
-0.0976771

>  <r_i_glide_ligand_efficiency_ln>  (182) 
-0.23522

>  <r_i_glide_gscore>  (182) 
-1.08458

>  <r_i_glide_lipo>  (182) 
-0.239397

>  <r_i_glide_hbond>  (182) 
0

>  <r_i_glide_metal>  (182) 
-0

>  <r_i_glide_rewards>  (182) 
0

>  <r_i_glide_evdw>  (182) 
-20.7584

>  <r_i_glide_ecoul>  (182) 
0.890525

>  <r_i_glide_erotb>  (182) 
0.0763479

>  <r_i_glide_esite>  (182) 
-0.0171882

>  <r_i_glide_emodel>  (182) 
-12.308

>  <r_i_glide_energy>  (182) 
-19.8679

>  <r_i_glide_einternal>  (182) 
15.3474

>  <r_i_glide_intrahb_reward>  (182) 
-0

>  <i_i_glide_confnum>  (182) 
4

>  <i_i_glide_posenum>  (182) 
16

>  <r_i_glide_eff_state_penalty>  (182) 
0

>  <ligand_id>  (182) 
51

>  <original_smiles>  (182) 
CC1(C)OC(=O)CC1C1(C)OC2CC1C1(C)CCC3(C)C(CC(O)C4C5COC(O5)C(C)(O)C43C)C21C

>  <smiles>  (182) 
[H]OC1([H])C([H])([H])C2([H])C(C([H])([H])[H])(C([H])([H])C([H])([H])C3(C([H])([H])[H])C4([H])C([H])([H])C([H])(OC4(C([H])([H])[H])C4([H])C([H])([H])C(=O)OC4(C([H])([H])[H])C([H])([H])[H])C23C([H])([H])[H])C2(C([H])([H])[H])C1([H])C1([H])OC([H])(OC1([H])[H])C2(O[H])C([H])([H])[H]

$$$$
53:0:0
     RDKit          3D

 28 30  0  0  1  0  0  0  0  0999 V2000
    5.0516   -8.9773    1.2077 N   0  0  0  0  0  0  0  0  0  0  0  0
    3.9706   -8.1035    1.2806 C   0  0  0  0  0  0  0  0  0  0  0  0
    2.7813   -8.4949    1.7106 N   0  0  0  0  0  0  0  0  0  0  0  0
    1.9455   -7.3457    1.6519 O   0  0  0  0  0  0  0  0  0  0  0  0
    2.6532   -6.2524    1.1781 C   0  0  0  0  0  0  0  0  0  0  0  0
    2.1990   -4.9884    0.9790 N   0  0  0  0  0  0  0  0  0  0  0  0
    3.1304   -4.1365    0.4909 C   0  0  0  0  0  0  0  0  0  0  0  0
    4.4719   -4.4878    0.1995 C   0  0  0  0  0  0  0  0  0  0  0  0
    5.4227   -3.4325   -0.3476 C   0  0  0  0  0  0  0  0  0  0  0  0
    4.8828   -2.7137   -1.5746 C   0  0  0  0  0  0  0  0  0  0  0  0
    4.5233   -3.4567   -2.7187 C   0  0  0  0  0  0  0  0  0  0  0  0
    3.9984   -2.8112   -3.8552 C   0  0  0  0  0  0  0  0  0  0  0  0
    3.8463   -1.4112   -3.8629 C   0  0  0  0  0  0  0  0  0  0  0  0
    4.2099   -0.6636   -2.7247 C   0  0  0  0  0  0  0  0  0  0  0  0
    4.7153   -1.3129   -1.5796 C   0  0  0  0  0  0  0  0  0  0  0  0
    4.8941   -5.8222    0.4302 C   0  0  0  0  0  0  0  0  0  0  0  0
    3.9401   -6.7327    0.9358 C   0  0  0  0  0  0  0  0  0  0  0  0
    5.9609   -8.7100    0.8660 H   0  0  0  0  0  0  0  0  0  0  0  0
    2.7868   -3.1258    0.3225 H   0  0  0  0  0  0  0  0  0  0  0  0
    5.6167   -2.7094    0.4461 H   0  0  0  0  0  0  0  0  0  0  0  0
    6.3826   -3.8814   -0.6074 H   0  0  0  0  0  0  0  0  0  0  0  0
    4.6241   -4.5296   -2.7185 H   0  0  0  0  0  0  0  0  0  0  0  0
    3.7097   -3.4047   -4.7102 H   0  0  0  0  0  0  0  0  0  0  0  0
    3.4477   -0.9117   -4.7344 H   0  0  0  0  0  0  0  0  0  0  0  0
    4.0868    0.4095   -2.7249 H   0  0  0  0  0  0  0  0  0  0  0  0
    4.9660   -0.7311   -0.7059 H   0  0  0  0  0  0  0  0  0  0  0  0
    5.9051   -6.1398    0.2191 H   0  0  0  0  0  0  0  0  0  0  0  0
    4.9170   -9.9530    1.4458 H   0  0  0  0  0  0  0  0  0  0  0  0
  1  2  1  0
  1 18  1  0
  1 28  1  0
  2 17  1  0
  2  3  2  0
  3  4  1  0
  4  5  1  0
  5 17  2  0
  5  6  1  0
  6  7  2  0
  7  8  1  0
  7 19  1  0
  8  9  1  0
  8 16  2  0
  9 10  1  0
  9 20  1  0
  9 21  1  0
 10 15  1  0
 10 11  2  0
 11 12  1  0
 11 22  1  0
 12 13  2  0
 12 23  1  0
 13 14  1  0
 13 24  1  0
 14 15  2  0
 14 25  1  0
 15 26  1  0
 16 17  1  0
 16 27  1  0
M  END
>  <i_m_ct_stereo_status>  (183) 
1

>  <s_m_source_file>  (183) 
/var/tmp/pbs.5076255.sched01/tmpon41x2vr/43t03z2zi4.sdf

>  <i_m_source_file_index>  (183) 
42

>  <i_lp_mmshare_version>  (183) 
48012

>  <i_f3d_flags>  (183) 
0

>  <s_epik_input>  (183) 
bzFbbkhdL2MoPU5cW0hdKWMoYzEyKVtjSF1jKFtjSF1uMilbQ0gyXWMzW2NIXVtjSF1bY0hdW2NIXVtjSF0z

>  <s_epik_cmdline>  (183) 
J2VwaWtfcHl0aG9uJywgJy1waHQnLCAnMi4wJywgJy1waCcsICc3LjAnLCAnLXRuJywgJzgnLCAnLW1hJywgJzIwMCcsICctaW1hZScsICc8aW5maWxlLm1hZT4nLCAnLW9tYWUnLCAnPG91dGZpbGUubWFlPic=

>  <r_lp_tautomer_probability>  (183) 
1

>  <r_epik_Ionization_Penalty>  (183) 
4.54104e-06

>  <r_epik_Ionization_Penalty_Charging>  (183) 
0

>  <r_epik_Ionization_Penalty_Neutral>  (183) 
4.54104e-06

>  <r_epik_State_Penalty>  (183) 
-0

>  <r_epik_Charging_Adjusted_Penalty>  (183) 
0

>  <i_epik_Tot_Q>  (183) 
0

>  <i_epik_Tot_abs_Q>  (183) 
0

>  <s_lp_Force_Field>  (183) 
OPLS3e

>  <r_lp_Energy>  (183) 
20.29

>  <b_lp_Chiralities_Consistent>  (183) 
1

>  <s_lp_Variant>  (183) 
53:0-1

>  <s_i_glide_gridfile>  (183) 
pfpi4k_grid

>  <i_i_glide_lignum>  (183) 
42

>  <i_i_glide_rotatable_bonds>  (183) 
2

>  <r_i_docking_score>  (183) 
-3.27423

>  <r_i_glide_ligand_efficiency>  (183) 
-0.192602

>  <r_i_glide_ligand_efficiency_sa>  (183) 
-0.495233

>  <r_i_glide_ligand_efficiency_ln>  (183) 
-0.854173

>  <r_i_glide_gscore>  (183) 
-3.27423

>  <r_i_glide_lipo>  (183) 
-0.616099

>  <r_i_glide_hbond>  (183) 
-0.020775

>  <r_i_glide_metal>  (183) 
-0

>  <r_i_glide_rewards>  (183) 
-1.87332

>  <r_i_glide_evdw>  (183) 
-25.483

>  <r_i_glide_ecoul>  (183) 
-0.576269

>  <r_i_glide_erotb>  (183) 
0.668848

>  <r_i_glide_esite>  (183) 
-0.0722875

>  <r_i_glide_emodel>  (183) 
-31.15

>  <r_i_glide_energy>  (183) 
-26.0593

>  <r_i_glide_einternal>  (183) 
0.804823

>  <r_i_glide_intrahb_reward>  (183) 
-0

>  <i_i_glide_confnum>  (183) 
4

>  <i_i_glide_posenum>  (183) 
1

>  <r_i_glide_eff_state_penalty>  (183) 
0

>  <ligand_id>  (183) 
53

>  <original_smiles>  (183) 
N=c1[nH]oc2ncc(Cc3ccccc3)cc12

>  <smiles>  (183) 
[H]c1nc2onc(N([H])[H])c2c([H])c1C([H])([H])c1c([H])c([H])c([H])c([H])c1[H]

$$$$
53:0:1
     RDKit          3D

 28 30  0  0  1  0  0  0  0  0999 V2000
    4.2692   -8.3451    0.8686 N   0  0  0  0  0  0  0  0  0  0  0  0
    3.7539   -7.1867    1.4529 C   0  0  0  0  0  0  0  0  0  0  0  0
    2.9101   -7.2432    2.4699 N   0  0  0  0  0  0  0  0  0  0  0  0
    2.6219   -5.8881    2.8071 O   0  0  0  0  0  0  0  0  0  0  0  0
    3.2995   -5.0003    1.9747 C   0  0  0  0  0  0  0  0  0  0  0  0
    3.2765   -3.6365    1.9799 N   0  0  0  0  0  0  0  0  0  0  0  0
    4.0568   -3.0863    1.0175 C   0  0  0  0  0  0  0  0  0  0  0  0
    4.8292   -3.8163    0.0775 C   0  0  0  0  0  0  0  0  0  0  0  0
    5.6635   -3.0532   -0.9407 C   0  0  0  0  0  0  0  0  0  0  0  0
    4.8167   -2.3924   -2.0124 C   0  0  0  0  0  0  0  0  0  0  0  0
    4.1369   -3.1864   -2.9543 C   0  0  0  0  0  0  0  0  0  0  0  0
    3.3329   -2.5933   -3.9439 C   0  0  0  0  0  0  0  0  0  0  0  0
    3.2261   -1.1910   -4.0222 C   0  0  0  0  0  0  0  0  0  0  0  0
    3.9068   -0.3903   -3.0888 C   0  0  0  0  0  0  0  0  0  0  0  0
    4.6826   -0.9896   -2.0735 C   0  0  0  0  0  0  0  0  0  0  0  0
    4.8120   -5.2305    0.1154 C   0  0  0  0  0  0  0  0  0  0  0  0
    4.0093   -5.8406    1.1113 C   0  0  0  0  0  0  0  0  0  0  0  0
    4.8732   -8.3337    0.0597 H   0  0  0  0  0  0  0  0  0  0  0  0
    4.0577   -2.0078    1.0030 H   0  0  0  0  0  0  0  0  0  0  0  0
    6.2428   -2.2905   -0.4182 H   0  0  0  0  0  0  0  0  0  0  0  0
    6.3831   -3.7123   -1.4246 H   0  0  0  0  0  0  0  0  0  0  0  0
    4.2201   -4.2586   -2.9097 H   0  0  0  0  0  0  0  0  0  0  0  0
    2.8035   -3.2117   -4.6562 H   0  0  0  0  0  0  0  0  0  0  0  0
    2.6137   -0.7304   -4.7869 H   0  0  0  0  0  0  0  0  0  0  0  0
    3.8136    0.6876   -3.1336 H   0  0  0  0  0  0  0  0  0  0  0  0
    5.1802   -0.3589   -1.3507 H   0  0  0  0  0  0  0  0  0  0  0  0
    5.3796   -5.8211   -0.5907 H   0  0  0  0  0  0  0  0  0  0  0  0
    3.9772   -9.2545    1.2016 H   0  0  0  0  0  0  0  0  0  0  0  0
  1  2  1  0
  1 18  1  0
  1 28  1  0
  2 17  1  0
  2  3  2  0
  3  4  1  0
  4  5  1  0
  5 17  2  0
  5  6  1  0
  6  7  2  0
  7  8  1  0
  7 19  1  0
  8  9  1  0
  8 16  2  0
  9 10  1  0
  9 20  1  0
  9 21  1  0
 10 15  1  0
 10 11  2  0
 11 12  1  0
 11 22  1  0
 12 13  2  0
 12 23  1  0
 13 14  1  0
 13 24  1  0
 14 15  2  0
 14 25  1  0
 15 26  1  0
 16 17  1  0
 16 27  1  0
M  END
>  <i_m_ct_stereo_status>  (184) 
1

>  <s_m_source_file>  (184) 
/var/tmp/pbs.5076255.sched01/tmpon41x2vr/43t03z2zi4.sdf

>  <i_m_source_file_index>  (184) 
42

>  <i_lp_mmshare_version>  (184) 
48012

>  <i_f3d_flags>  (184) 
0

>  <s_epik_input>  (184) 
bzFbbkhdL2MoPU5cW0hdKWMoYzEyKVtjSF1jKFtjSF1uMilbQ0gyXWMzW2NIXVtjSF1bY0hdW2NIXVtjSF0z

>  <s_epik_cmdline>  (184) 
J2VwaWtfcHl0aG9uJywgJy1waHQnLCAnMi4wJywgJy1waCcsICc3LjAnLCAnLXRuJywgJzgnLCAnLW1hJywgJzIwMCcsICctaW1hZScsICc8aW5maWxlLm1hZT4nLCAnLW9tYWUnLCAnPG91dGZpbGUubWFlPic=

>  <r_lp_tautomer_probability>  (184) 
1

>  <r_epik_Ionization_Penalty>  (184) 
4.54104e-06

>  <r_epik_Ionization_Penalty_Charging>  (184) 
0

>  <r_epik_Ionization_Penalty_Neutral>  (184) 
4.54104e-06

>  <r_epik_State_Penalty>  (184) 
-0

>  <r_epik_Charging_Adjusted_Penalty>  (184) 
0

>  <i_epik_Tot_Q>  (184) 
0

>  <i_epik_Tot_abs_Q>  (184) 
0

>  <s_lp_Force_Field>  (184) 
OPLS3e

>  <r_lp_Energy>  (184) 
20.29

>  <b_lp_Chiralities_Consistent>  (184) 
1

>  <s_lp_Variant>  (184) 
53:0-1

>  <s_i_glide_gridfile>  (184) 
pfpi4k_grid

>  <i_i_glide_lignum>  (184) 
42

>  <i_i_glide_rotatable_bonds>  (184) 
2

>  <r_i_docking_score>  (184) 
-3.15694

>  <r_i_glide_ligand_efficiency>  (184) 
-0.185702

>  <r_i_glide_ligand_efficiency_sa>  (184) 
-0.477493

>  <r_i_glide_ligand_efficiency_ln>  (184) 
-0.823575

>  <r_i_glide_gscore>  (184) 
-3.15694

>  <r_i_glide_lipo>  (184) 
-0.6439

>  <r_i_glide_hbond>  (184) 
0

>  <r_i_glide_metal>  (184) 
-0

>  <r_i_glide_rewards>  (184) 
-1.87332

>  <r_i_glide_evdw>  (184) 
-23.1928

>  <r_i_glide_ecoul>  (184) 
-0.853187

>  <r_i_glide_erotb>  (184) 
0.668848

>  <r_i_glide_esite>  (184) 
-0.0209441

>  <r_i_glide_emodel>  (184) 
-29.2144

>  <r_i_glide_energy>  (184) 
-24.046

>  <r_i_glide_einternal>  (184) 
0.233494

>  <r_i_glide_intrahb_reward>  (184) 
-0

>  <i_i_glide_confnum>  (184) 
4

>  <i_i_glide_posenum>  (184) 
10

>  <r_i_glide_eff_state_penalty>  (184) 
0

>  <ligand_id>  (184) 
53

>  <original_smiles>  (184) 
N=c1[nH]oc2ncc(Cc3ccccc3)cc12

>  <smiles>  (184) 
[H]c1nc2onc(N([H])[H])c2c([H])c1C([H])([H])c1c([H])c([H])c([H])c([H])c1[H]

$$$$
53:0:2
     RDKit          3D

 28 30  0  0  1  0  0  0  0  0999 V2000
    1.5540   -7.0574    1.2681 N   0  0  0  0  0  0  0  0  0  0  0  0
    1.8237   -5.8709    1.9382 C   0  0  0  0  0  0  0  0  0  0  0  0
    1.1773   -5.5352    3.0379 N   0  0  0  0  0  0  0  0  0  0  0  0
    1.6679   -4.2520    3.4048 O   0  0  0  0  0  0  0  0  0  0  0  0
    2.6280   -3.8135    2.5012 C   0  0  0  0  0  0  0  0  0  0  0  0
    3.3120   -2.6355    2.5067 N   0  0  0  0  0  0  0  0  0  0  0  0
    4.1735   -2.5049    1.4671 C   0  0  0  0  0  0  0  0  0  0  0  0
    4.3766   -3.4751    0.4534 C   0  0  0  0  0  0  0  0  0  0  0  0
    5.3830   -3.2041   -0.6503 C   0  0  0  0  0  0  0  0  0  0  0  0
    4.7666   -2.4609   -1.8191 C   0  0  0  0  0  0  0  0  0  0  0  0
    4.7933   -1.0537   -1.8789 C   0  0  0  0  0  0  0  0  0  0  0  0
    4.2028   -0.3810   -2.9690 C   0  0  0  0  0  0  0  0  0  0  0  0
    3.5682   -1.1074   -3.9942 C   0  0  0  0  0  0  0  0  0  0  0  0
    3.5298   -2.5111   -3.9267 C   0  0  0  0  0  0  0  0  0  0  0  0
    4.1415   -3.1788   -2.8530 C   0  0  0  0  0  0  0  0  0  0  0  0
    3.6319   -4.6815    0.4927 C   0  0  0  0  0  0  0  0  0  0  0  0
    2.7259   -4.8467    1.5645 C   0  0  0  0  0  0  0  0  0  0  0  0
    2.0865   -7.3640    0.4672 H   0  0  0  0  0  0  0  0  0  0  0  0
    4.7368   -1.5820    1.4445 H   0  0  0  0  0  0  0  0  0  0  0  0
    6.2054   -2.6100   -0.2465 H   0  0  0  0  0  0  0  0  0  0  0  0
    5.8270   -4.1376   -1.0031 H   0  0  0  0  0  0  0  0  0  0  0  0
    5.2528   -0.4805   -1.0856 H   0  0  0  0  0  0  0  0  0  0  0  0
    4.2154    0.6984   -3.0130 H   0  0  0  0  0  0  0  0  0  0  0  0
    3.1007   -0.5919   -4.8215 H   0  0  0  0  0  0  0  0  0  0  0  0
    3.0368   -3.0778   -4.7033 H   0  0  0  0  0  0  0  0  0  0  0  0
    4.1146   -4.2546   -2.8093 H   0  0  0  0  0  0  0  0  0  0  0  0
    3.7471   -5.4433   -0.2678 H   0  0  0  0  0  0  0  0  0  0  0  0
    0.9440   -7.7517    1.6798 H   0  0  0  0  0  0  0  0  0  0  0  0
  1  2  1  0
  1 18  1  0
  1 28  1  0
  2 17  1  0
  2  3  2  0
  3  4  1  0
  4  5  1  0
  5 17  2  0
  5  6  1  0
  6  7  2  0
  7  8  1  0
  7 19  1  0
  8  9  1  0
  8 16  2  0
  9 10  1  0
  9 20  1  0
  9 21  1  0
 10 15  1  0
 10 11  2  0
 11 12  1  0
 11 22  1  0
 12 13  2  0
 12 23  1  0
 13 14  1  0
 13 24  1  0
 14 15  2  0
 14 25  1  0
 15 26  1  0
 16 17  1  0
 16 27  1  0
M  END
>  <i_m_ct_stereo_status>  (185) 
1

>  <s_m_source_file>  (185) 
/var/tmp/pbs.5076255.sched01/tmpon41x2vr/43t03z2zi4.sdf

>  <i_m_source_file_index>  (185) 
42

>  <i_lp_mmshare_version>  (185) 
48012

>  <i_f3d_flags>  (185) 
0

>  <s_epik_input>  (185) 
bzFbbkhdL2MoPU5cW0hdKWMoYzEyKVtjSF1jKFtjSF1uMilbQ0gyXWMzW2NIXVtjSF1bY0hdW2NIXVtjSF0z

>  <s_epik_cmdline>  (185) 
J2VwaWtfcHl0aG9uJywgJy1waHQnLCAnMi4wJywgJy1waCcsICc3LjAnLCAnLXRuJywgJzgnLCAnLW1hJywgJzIwMCcsICctaW1hZScsICc8aW5maWxlLm1hZT4nLCAnLW9tYWUnLCAnPG91dGZpbGUubWFlPic=

>  <r_lp_tautomer_probability>  (185) 
1

>  <r_epik_Ionization_Penalty>  (185) 
4.54104e-06

>  <r_epik_Ionization_Penalty_Charging>  (185) 
0

>  <r_epik_Ionization_Penalty_Neutral>  (185) 
4.54104e-06

>  <r_epik_State_Penalty>  (185) 
-0

>  <r_epik_Charging_Adjusted_Penalty>  (185) 
0

>  <i_epik_Tot_Q>  (185) 
0

>  <i_epik_Tot_abs_Q>  (185) 
0

>  <s_lp_Force_Field>  (185) 
OPLS3e

>  <r_lp_Energy>  (185) 
20.29

>  <b_lp_Chiralities_Consistent>  (185) 
1

>  <s_lp_Variant>  (185) 
53:0-1

>  <s_i_glide_gridfile>  (185) 
pfpi4k_grid

>  <i_i_glide_lignum>  (185) 
42

>  <i_i_glide_rotatable_bonds>  (185) 
2

>  <r_i_docking_score>  (185) 
-3.09046

>  <r_i_glide_ligand_efficiency>  (185) 
-0.181792

>  <r_i_glide_ligand_efficiency_sa>  (185) 
-0.467438

>  <r_i_glide_ligand_efficiency_ln>  (185) 
-0.806233

>  <r_i_glide_gscore>  (185) 
-3.09046

>  <r_i_glide_lipo>  (185) 
-0.469121

>  <r_i_glide_hbond>  (185) 
0

>  <r_i_glide_metal>  (185) 
-0

>  <r_i_glide_rewards>  (185) 
-1.87332

>  <r_i_glide_evdw>  (185) 
-22.5559

>  <r_i_glide_ecoul>  (185) 
-1.37262

>  <r_i_glide_erotb>  (185) 
0.668848

>  <r_i_glide_esite>  (185) 
-0.0831793

>  <r_i_glide_emodel>  (185) 
-29.1049

>  <r_i_glide_energy>  (185) 
-23.9285

>  <r_i_glide_einternal>  (185) 
0.00292455

>  <r_i_glide_intrahb_reward>  (185) 
-0

>  <i_i_glide_confnum>  (185) 
5

>  <i_i_glide_posenum>  (185) 
6

>  <r_i_glide_eff_state_penalty>  (185) 
0

>  <ligand_id>  (185) 
53

>  <original_smiles>  (185) 
N=c1[nH]oc2ncc(Cc3ccccc3)cc12

>  <smiles>  (185) 
[H]c1nc2onc(N([H])[H])c2c([H])c1C([H])([H])c1c([H])c([H])c([H])c([H])c1[H]

$$$$
54:0:0
     RDKit          3D

 43 46  0  0  1  0  0  0  0  0999 V2000
    8.0932   -5.4322    1.7363 C   0  0  0  0  0  0  0  0  0  0  0  0
    6.8891   -6.0088    1.8241 C   0  0  0  0  0  0  0  0  0  0  0  0
    6.6795   -7.0581    2.8917 C   0  0  0  0  0  0  0  0  0  0  0  0
    7.6038   -7.6508    3.4457 O   0  0  0  0  0  0  0  0  0  0  0  0
    5.3293   -7.3688    3.1626 O   0  0  0  0  0  0  0  0  0  0  0  0
    4.3761   -6.4073    2.7577 C   0  0  2  0  0  0  0  0  0  0  0  0
    2.9055   -6.6549    2.3707 C   0  0  0  0  0  0  0  0  0  0  0  0
    1.7600   -6.6113    3.3660 C   0  0  0  0  0  0  0  0  0  0  0  0
    0.5841   -7.4130    2.7750 C   0  0  0  0  0  0  0  0  0  0  0  0
   -0.0232   -8.5255    3.2419 C   0  0  0  0  0  0  0  0  0  0  0  0
    0.3199   -9.2544    4.5367 C   0  0  0  0  0  0  0  0  0  0  0  0
   -1.1532   -9.1870    2.4698 C   0  0  0  0  0  0  0  0  0  0  0  0
    3.1537   -6.0291    1.1845 C   0  0  0  0  0  0  0  0  0  0  0  0
    2.8940   -4.7337    0.7652 O   0  0  0  0  0  0  0  0  0  0  0  0
    3.9365   -4.2229   -0.1051 C   0  0  1  0  0  0  0  0  0  0  0  0
    3.8571   -2.7469   -0.5041 C   0  0  0  0  0  0  0  0  0  0  0  0
    5.3348   -2.4306   -0.7198 C   0  0  0  0  0  0  0  0  0  0  0  0
    5.7474   -1.4687   -1.3697 O   0  0  0  0  0  0  0  0  0  0  0  0
    6.0803   -3.3637   -0.0989 O   0  0  0  0  0  0  0  0  0  0  0  0
    5.2728   -4.2551    0.6528 C   0  0  2  0  0  0  0  0  0  0  0  0
    5.7644   -5.7121    0.8041 C   0  0  2  0  0  0  0  0  0  0  0  0
    4.5809   -6.5428    1.2370 C   0  0  1  0  0  0  0  0  0  0  0  0
    4.5282   -7.8927    0.5061 C   0  0  0  0  0  0  0  0  0  0  0  0
    8.3156   -4.7057    0.9581 H   0  0  0  0  0  0  0  0  0  0  0  0
    8.8985   -5.6816    2.4240 H   0  0  0  0  0  0  0  0  0  0  0  0
    4.6213   -5.4286    3.1793 H   0  0  0  0  0  0  0  0  0  0  0  0
    2.1499   -7.1385    4.2458 H   0  0  0  0  0  0  0  0  0  0  0  0
    1.4397   -5.6150    3.7145 H   0  0  0  0  0  0  0  0  0  0  0  0
    0.2363   -7.0185    1.8318 H   0  0  0  0  0  0  0  0  0  0  0  0
    0.7399  -10.2332    4.3148 H   0  0  0  0  0  0  0  0  0  0  0  0
   -0.5863   -9.4288    5.1156 H   0  0  0  0  0  0  0  0  0  0  0  0
    1.0100   -8.7218    5.1865 H   0  0  0  0  0  0  0  0  0  0  0  0
   -0.8981  -10.2166    2.2247 H   0  0  0  0  0  0  0  0  0  0  0  0
   -1.3697   -8.6698    1.5335 H   0  0  0  0  0  0  0  0  0  0  0  0
   -2.0689   -9.2100    3.0629 H   0  0  0  0  0  0  0  0  0  0  0  0
    4.0269   -4.7879   -1.0499 H   0  0  0  0  0  0  0  0  0  0  0  0
    3.2694   -2.5467   -1.4007 H   0  0  0  0  0  0  0  0  0  0  0  0
    3.4854   -2.1444    0.3145 H   0  0  0  0  0  0  0  0  0  0  0  0
    5.1242   -3.8147    1.6297 H   0  0  0  0  0  0  0  0  0  0  0  0
    6.1042   -6.0521   -0.1789 H   0  0  0  0  0  0  0  0  0  0  0  0
    5.4408   -8.4669    0.6192 H   0  0  0  0  0  0  0  0  0  0  0  0
    4.3266   -7.7218   -0.5560 H   0  0  0  0  0  0  0  0  0  0  0  0
    3.7090   -8.5057    0.8896 H   0  0  0  0  0  0  0  0  0  0  0  0
  1  2  2  0
  1 24  1  0
  1 25  1  0
  2 21  1  0
  2  3  1  0
  3  4  2  0
  3  5  1  0
  5  6  1  0
  6 22  1  0
  6  7  1  0
  6 26  1  1
  7  8  1  0
  7 13  2  0
  8  9  1  0
  8 27  1  0
  8 28  1  0
  9 10  2  3
  9 29  1  0
 10 11  1  0
 10 12  1  0
 11 30  1  0
 11 31  1  0
 11 32  1  0
 12 33  1  0
 12 34  1  0
 12 35  1  0
 13 22  1  0
 13 14  1  0
 14 15  1  0
 15 20  1  0
 15 16  1  0
 15 36  1  6
 16 17  1  0
 16 37  1  0
 16 38  1  0
 17 18  2  0
 17 19  1  0
 19 20  1  0
 20 21  1  0
 20 39  1  1
 21 22  1  0
 21 40  1  6
 22 23  1  1
 23 41  1  0
 23 42  1  0
 23 43  1  0
M  END
>  <i_m_ct_stereo_status>  (186) 
1

>  <s_m_source_file>  (186) 
/var/tmp/pbs.5076255.sched01/tmpon41x2vr/43t03z2zi4.sdf

>  <i_m_source_file_index>  (186) 
43

>  <i_lp_mmshare_version>  (186) 
48012

>  <i_f3d_flags>  (186) 
0

>  <s_epik_input>  (186) 
W0NIM11bQ0BdMTJbQ0BASF0zT0MoPU8pQyg9W0NIMl0pW0NAQEhdMltDQEBIXTRbQ0BIXShbQ0gyXUMoPU8pTzQpT0MxPUMzW0NIMl1bQ0hdPUMoW0NIM10pW0NIM10=

>  <s_epik_cmdline>  (186) 
J2VwaWtfcHl0aG9uJywgJy1waHQnLCAnMi4wJywgJy1waCcsICc3LjAnLCAnLXRuJywgJzgnLCAnLW1hJywgJzIwMCcsICctaW1hZScsICc8aW5maWxlLm1hZT4nLCAnLW9tYWUnLCAnPG91dGZpbGUubWFlPic=

>  <r_lp_tautomer_probability>  (186) 
1

>  <r_epik_Ionization_Penalty>  (186) 
3.17915e-11

>  <r_epik_Ionization_Penalty_Charging>  (186) 
0

>  <r_epik_Ionization_Penalty_Neutral>  (186) 
3.17915e-11

>  <r_epik_State_Penalty>  (186) 
-0

>  <r_epik_Charging_Adjusted_Penalty>  (186) 
0

>  <i_epik_Tot_Q>  (186) 
0

>  <i_epik_Tot_abs_Q>  (186) 
0

>  <s_epik_Chemistry_Notes>  (186) 
This compound has an ester and may undergo hydrolysis at high or low pH.

>  <s_lp_Force_Field>  (186) 
OPLS3e

>  <r_lp_Energy>  (186) 
54.7744

>  <b_lp_Chiralities_Consistent>  (186) 
1

>  <s_lp_Variant>  (186) 
54:0-1

>  <s_i_glide_gridfile>  (186) 
pfpi4k_grid

>  <i_i_glide_lignum>  (186) 
43

>  <i_i_glide_rotatable_bonds>  (186) 
2

>  <r_i_docking_score>  (186) 
-2.86516

>  <r_i_glide_ligand_efficiency>  (186) 
-0.124572

>  <r_i_glide_ligand_efficiency_sa>  (186) 
-0.354267

>  <r_i_glide_ligand_efficiency_ln>  (186) 
-0.692822

>  <r_i_glide_gscore>  (186) 
-2.86516

>  <r_i_glide_lipo>  (186) 
-0.596007

>  <r_i_glide_hbond>  (186) 
-0.0569715

>  <r_i_glide_metal>  (186) 
-0

>  <r_i_glide_rewards>  (186) 
-1.26751

>  <r_i_glide_evdw>  (186) 
-20.5367

>  <r_i_glide_ecoul>  (186) 
-1.84558

>  <r_i_glide_erotb>  (186) 
0.372026

>  <r_i_glide_esite>  (186) 
-0.0130266

>  <r_i_glide_emodel>  (186) 
-25.16

>  <r_i_glide_energy>  (186) 
-22.3823

>  <r_i_glide_einternal>  (186) 
1.57159

>  <r_i_glide_intrahb_reward>  (186) 
-0

>  <i_i_glide_confnum>  (186) 
6

>  <i_i_glide_posenum>  (186) 
12

>  <r_i_glide_eff_state_penalty>  (186) 
0

>  <ligand_id>  (186) 
54

>  <original_smiles>  (186) 
C=C1C(=O)OC2C(CC=C(C)C)=C3OC4CC(=O)OC4C1C32C

>  <smiles>  (186) 
[H]C([H])=C1C(=O)OC2([H])C(C([H])([H])C([H])=C(C([H])([H])[H])C([H])([H])[H])=C3OC4([H])C([H])([H])C(=O)OC4([H])C1([H])C32C([H])([H])[H]

$$$$
54:0:1
     RDKit          3D

 43 46  0  0  1  0  0  0  0  0999 V2000
    2.6432    4.3292    4.8869 C   0  0  0  0  0  0  0  0  0  0  0  0
    1.3349    4.0408    4.7919 C   0  0  0  0  0  0  0  0  0  0  0  0
    0.3400    5.1322    5.1465 C   0  0  0  0  0  0  0  0  0  0  0  0
    0.6194    6.1170    5.8252 O   0  0  0  0  0  0  0  0  0  0  0  0
   -0.9645    4.9176    4.7147 O   0  0  0  0  0  0  0  0  0  0  0  0
   -1.1234    3.9708    3.6726 C   0  0  2  0  0  0  0  0  0  0  0  0
   -2.3440    3.1213    3.3328 C   0  0  0  0  0  0  0  0  0  0  0  0
   -3.5142    3.5336    2.4414 C   0  0  0  0  0  0  0  0  0  0  0  0
   -3.5353    5.0232    2.0902 C   0  0  0  0  0  0  0  0  0  0  0  0
   -4.6116    5.8182    1.9078 C   0  0  0  0  0  0  0  0  0  0  0  0
   -6.0635    5.3985    2.0877 C   0  0  0  0  0  0  0  0  0  0  0  0
   -4.4551    7.2677    1.4731 C   0  0  0  0  0  0  0  0  0  0  0  0
   -1.5621    2.0266    3.4017 C   0  0  0  0  0  0  0  0  0  0  0  0
   -0.9574    1.2424    2.4342 O   0  0  0  0  0  0  0  0  0  0  0  0
    0.3701    0.7849    2.7946 C   0  0  1  0  0  0  0  0  0  0  0  0
    1.1954    0.0970    1.7077 C   0  0  0  0  0  0  0  0  0  0  0  0
    2.6090    0.4277    2.1589 C   0  0  0  0  0  0  0  0  0  0  0  0
    3.6098   -0.1830    1.7894 O   0  0  0  0  0  0  0  0  0  0  0  0
    2.5723    1.4623    3.0135 O   0  0  0  0  0  0  0  0  0  0  0  0
    1.2625    1.9980    3.1085 C   0  0  2  0  0  0  0  0  0  0  0  0
    0.8242    2.6184    4.4502 C   0  0  2  0  0  0  0  0  0  0  0  0
   -0.6918    2.7056    4.4431 C   0  0  1  0  0  0  0  0  0  0  0  0
   -1.3006    2.3087    5.7843 C   0  0  0  0  0  0  0  0  0  0  0  0
    3.3881    3.5686    4.6969 H   0  0  0  0  0  0  0  0  0  0  0  0
    2.9824    5.3192    5.1811 H   0  0  0  0  0  0  0  0  0  0  0  0
   -0.4666    4.2443    2.8490 H   0  0  0  0  0  0  0  0  0  0  0  0
   -3.6193    2.8954    1.5574 H   0  0  0  0  0  0  0  0  0  0  0  0
   -4.3883    3.3237    3.0569 H   0  0  0  0  0  0  0  0  0  0  0  0
   -2.5597    5.4600    1.9152 H   0  0  0  0  0  0  0  0  0  0  0  0
   -6.5664    5.3959    1.1191 H   0  0  0  0  0  0  0  0  0  0  0  0
   -6.5980    6.1027    2.7201 H   0  0  0  0  0  0  0  0  0  0  0  0
   -6.1840    4.4078    2.5207 H   0  0  0  0  0  0  0  0  0  0  0  0
   -4.9819    7.4284    0.5347 H   0  0  0  0  0  0  0  0  0  0  0  0
   -3.4124    7.5373    1.3094 H   0  0  0  0  0  0  0  0  0  0  0  0
   -4.8822    7.9516    2.2002 H   0  0  0  0  0  0  0  0  0  0  0  0
    0.3476    0.0888    3.6407 H   0  0  0  0  0  0  0  0  0  0  0  0
    1.0576   -0.9820    1.6256 H   0  0  0  0  0  0  0  0  0  0  0  0
    1.0425    0.5733    0.7489 H   0  0  0  0  0  0  0  0  0  0  0  0
    1.1437    2.7248    2.3085 H   0  0  0  0  0  0  0  0  0  0  0  0
    1.1407    1.9568    5.2647 H   0  0  0  0  0  0  0  0  0  0  0  0
   -0.9015    2.8849    6.6129 H   0  0  0  0  0  0  0  0  0  0  0  0
   -1.1387    1.2399    5.9556 H   0  0  0  0  0  0  0  0  0  0  0  0
   -2.3773    2.4639    5.7604 H   0  0  0  0  0  0  0  0  0  0  0  0
  1  2  2  0
  1 24  1  0
  1 25  1  0
  2 21  1  0
  2  3  1  0
  3  4  2  0
  3  5  1  0
  5  6  1  0
  6 22  1  0
  6  7  1  0
  6 26  1  6
  7  8  1  0
  7 13  2  0
  8  9  1  0
  8 27  1  0
  8 28  1  0
  9 10  2  3
  9 29  1  0
 10 11  1  0
 10 12  1  0
 11 30  1  0
 11 31  1  0
 11 32  1  0
 12 33  1  0
 12 34  1  0
 12 35  1  0
 13 22  1  0
 13 14  1  0
 14 15  1  0
 15 20  1  0
 15 16  1  0
 15 36  1  1
 16 17  1  0
 16 37  1  0
 16 38  1  0
 17 18  2  0
 17 19  1  0
 19 20  1  0
 20 21  1  0
 20 39  1  6
 21 22  1  0
 21 40  1  1
 22 23  1  1
 23 41  1  0
 23 42  1  0
 23 43  1  0
M  END
>  <i_m_ct_stereo_status>  (187) 
1

>  <s_m_source_file>  (187) 
/var/tmp/pbs.5076255.sched01/tmpon41x2vr/43t03z2zi4.sdf

>  <i_m_source_file_index>  (187) 
43

>  <i_lp_mmshare_version>  (187) 
48012

>  <i_f3d_flags>  (187) 
0

>  <s_epik_input>  (187) 
W0NIM11bQ0BdMTJbQ0BASF0zT0MoPU8pQyg9W0NIMl0pW0NAQEhdMltDQEBIXTRbQ0BIXShbQ0gyXUMoPU8pTzQpT0MxPUMzW0NIMl1bQ0hdPUMoW0NIM10pW0NIM10=

>  <s_epik_cmdline>  (187) 
J2VwaWtfcHl0aG9uJywgJy1waHQnLCAnMi4wJywgJy1waCcsICc3LjAnLCAnLXRuJywgJzgnLCAnLW1hJywgJzIwMCcsICctaW1hZScsICc8aW5maWxlLm1hZT4nLCAnLW9tYWUnLCAnPG91dGZpbGUubWFlPic=

>  <r_lp_tautomer_probability>  (187) 
1

>  <r_epik_Ionization_Penalty>  (187) 
3.17915e-11

>  <r_epik_Ionization_Penalty_Charging>  (187) 
0

>  <r_epik_Ionization_Penalty_Neutral>  (187) 
3.17915e-11

>  <r_epik_State_Penalty>  (187) 
-0

>  <r_epik_Charging_Adjusted_Penalty>  (187) 
0

>  <i_epik_Tot_Q>  (187) 
0

>  <i_epik_Tot_abs_Q>  (187) 
0

>  <s_epik_Chemistry_Notes>  (187) 
This compound has an ester and may undergo hydrolysis at high or low pH.

>  <s_lp_Force_Field>  (187) 
OPLS3e

>  <r_lp_Energy>  (187) 
54.7744

>  <b_lp_Chiralities_Consistent>  (187) 
1

>  <s_lp_Variant>  (187) 
54:0-1

>  <s_i_glide_gridfile>  (187) 
pfpi4k_grid

>  <i_i_glide_lignum>  (187) 
43

>  <i_i_glide_rotatable_bonds>  (187) 
2

>  <r_i_docking_score>  (187) 
-2.57061

>  <r_i_glide_ligand_efficiency>  (187) 
-0.111766

>  <r_i_glide_ligand_efficiency_sa>  (187) 
-0.317847

>  <r_i_glide_ligand_efficiency_ln>  (187) 
-0.621598

>  <r_i_glide_gscore>  (187) 
-2.57061

>  <r_i_glide_lipo>  (187) 
-0.118986

>  <r_i_glide_hbond>  (187) 
-0.040461

>  <r_i_glide_metal>  (187) 
-0

>  <r_i_glide_rewards>  (187) 
-1.25217

>  <r_i_glide_evdw>  (187) 
-23.5468

>  <r_i_glide_ecoul>  (187) 
-2.16416

>  <r_i_glide_erotb>  (187) 
0.372026

>  <r_i_glide_esite>  (187) 
-0.0290619

>  <r_i_glide_emodel>  (187) 
-26.866

>  <r_i_glide_energy>  (187) 
-25.7109

>  <r_i_glide_einternal>  (187) 
2.47495

>  <r_i_glide_intrahb_reward>  (187) 
-0

>  <i_i_glide_confnum>  (187) 
2

>  <i_i_glide_posenum>  (187) 
17

>  <r_i_glide_eff_state_penalty>  (187) 
0

>  <ligand_id>  (187) 
54

>  <original_smiles>  (187) 
C=C1C(=O)OC2C(CC=C(C)C)=C3OC4CC(=O)OC4C1C32C

>  <smiles>  (187) 
[H]C([H])=C1C(=O)OC2([H])C(C([H])([H])C([H])=C(C([H])([H])[H])C([H])([H])[H])=C3OC4([H])C([H])([H])C(=O)OC4([H])C1([H])C32C([H])([H])[H]

$$$$
54:0:2
     RDKit          3D

 43 46  0  0  1  0  0  0  0  0999 V2000
   -0.5091    0.2849    3.5329 C   0  0  0  0  0  0  0  0  0  0  0  0
   -0.1172   -0.7222    4.3091 C   0  0  0  0  0  0  0  0  0  0  0  0
   -1.1355   -1.3210    5.2823 C   0  0  0  0  0  0  0  0  0  0  0  0
   -2.1404   -0.7372    5.6448 O   0  0  0  0  0  0  0  0  0  0  0  0
   -0.7875   -2.5776    5.7936 O   0  0  0  0  0  0  0  0  0  0  0  0
    0.1703   -3.3088    5.0687 C   0  0  2  0  0  0  0  0  0  0  0  0
    1.1440   -4.3709    5.5727 C   0  0  0  0  0  0  0  0  0  0  0  0
    0.8804   -5.8636    5.6845 C   0  0  0  0  0  0  0  0  0  0  0  0
   -0.3830   -6.3812    5.0007 C   0  0  0  0  0  0  0  0  0  0  0  0
   -0.4784   -7.4306    4.1536 C   0  0  0  0  0  0  0  0  0  0  0  0
    0.6879   -8.3160    3.7574 C   0  0  0  0  0  0  0  0  0  0  0  0
   -1.7916   -7.8162    3.5103 C   0  0  0  0  0  0  0  0  0  0  0  0
    2.1516   -3.6556    5.0888 C   0  0  0  0  0  0  0  0  0  0  0  0
    2.9027   -3.7957    3.9264 O   0  0  0  0  0  0  0  0  0  0  0  0
    3.2560   -2.5363    3.3083 C   0  0  1  0  0  0  0  0  0  0  0  0
    3.8932   -2.5952    1.9211 C   0  0  0  0  0  0  0  0  0  0  0  0
    3.4493   -1.2468    1.3438 C   0  0  0  0  0  0  0  0  0  0  0  0
    4.0083   -0.7030    0.4027 O   0  0  0  0  0  0  0  0  0  0  0  0
    2.4007   -0.7891    2.0635 O   0  0  0  0  0  0  0  0  0  0  0  0
    1.9656   -1.7410    3.0101 C   0  0  2  0  0  0  0  0  0  0  0  0
    1.3504   -1.2353    4.3344 C   0  0  2  0  0  0  0  0  0  0  0  0
    1.3842   -2.3807    5.3173 C   0  0  1  0  0  0  0  0  0  0  0  0
    1.8120   -1.9227    6.7200 C   0  0  0  0  0  0  0  0  0  0  0  0
    0.1893    0.7725    2.8660 H   0  0  0  0  0  0  0  0  0  0  0  0
   -1.5212    0.6629    3.5603 H   0  0  0  0  0  0  0  0  0  0  0  0
   -0.1337   -3.4087    4.0234 H   0  0  0  0  0  0  0  0  0  0  0  0
    1.8034   -6.4238    5.5088 H   0  0  0  0  0  0  0  0  0  0  0  0
    0.6549   -6.0240    6.7388 H   0  0  0  0  0  0  0  0  0  0  0  0
   -1.2846   -5.8486    5.2584 H   0  0  0  0  0  0  0  0  0  0  0  0
    0.9310   -8.1418    2.7149 H   0  0  0  0  0  0  0  0  0  0  0  0
    0.4014   -9.3610    3.8744 H   0  0  0  0  0  0  0  0  0  0  0  0
    1.5884   -8.1748    4.3508 H   0  0  0  0  0  0  0  0  0  0  0  0
   -1.6942   -7.7686    2.4327 H   0  0  0  0  0  0  0  0  0  0  0  0
   -2.5951   -7.1521    3.8168 H   0  0  0  0  0  0  0  0  0  0  0  0
   -2.0666   -8.8359    3.7751 H   0  0  0  0  0  0  0  0  0  0  0  0
    3.9290   -1.9496    3.9421 H   0  0  0  0  0  0  0  0  0  0  0  0
    4.9745   -2.6641    1.9136 H   0  0  0  0  0  0  0  0  0  0  0  0
    3.4585   -3.3729    1.3096 H   0  0  0  0  0  0  0  0  0  0  0  0
    1.2649   -2.4071    2.5173 H   0  0  0  0  0  0  0  0  0  0  0  0
    1.9748   -0.4114    4.7121 H   0  0  0  0  0  0  0  0  0  0  0  0
    1.1905   -1.1112    7.1042 H   0  0  0  0  0  0  0  0  0  0  0  0
    2.8579   -1.6080    6.6987 H   0  0  0  0  0  0  0  0  0  0  0  0
    1.7470   -2.7507    7.4228 H   0  0  0  0  0  0  0  0  0  0  0  0
  1  2  2  0
  1 24  1  0
  1 25  1  0
  2 21  1  0
  2  3  1  0
  3  4  2  0
  3  5  1  0
  5  6  1  0
  6 22  1  0
  6  7  1  0
  6 26  1  6
  7  8  1  0
  7 13  2  0
  8  9  1  0
  8 27  1  0
  8 28  1  0
  9 10  2  3
  9 29  1  0
 10 11  1  0
 10 12  1  0
 11 30  1  0
 11 31  1  0
 11 32  1  0
 12 33  1  0
 12 34  1  0
 12 35  1  0
 13 22  1  0
 13 14  1  0
 14 15  1  0
 15 20  1  0
 15 16  1  0
 15 36  1  1
 16 17  1  0
 16 37  1  0
 16 38  1  0
 17 18  2  0
 17 19  1  0
 19 20  1  0
 20 21  1  0
 20 39  1  6
 21 22  1  0
 21 40  1  1
 22 23  1  1
 23 41  1  0
 23 42  1  0
 23 43  1  0
M  END
>  <i_m_ct_stereo_status>  (188) 
1

>  <s_m_source_file>  (188) 
/var/tmp/pbs.5076255.sched01/tmpon41x2vr/43t03z2zi4.sdf

>  <i_m_source_file_index>  (188) 
43

>  <i_lp_mmshare_version>  (188) 
48012

>  <i_f3d_flags>  (188) 
0

>  <s_epik_input>  (188) 
W0NIM11bQ0BdMTJbQ0BASF0zT0MoPU8pQyg9W0NIMl0pW0NAQEhdMltDQEBIXTRbQ0BIXShbQ0gyXUMoPU8pTzQpT0MxPUMzW0NIMl1bQ0hdPUMoW0NIM10pW0NIM10=

>  <s_epik_cmdline>  (188) 
J2VwaWtfcHl0aG9uJywgJy1waHQnLCAnMi4wJywgJy1waCcsICc3LjAnLCAnLXRuJywgJzgnLCAnLW1hJywgJzIwMCcsICctaW1hZScsICc8aW5maWxlLm1hZT4nLCAnLW9tYWUnLCAnPG91dGZpbGUubWFlPic=

>  <r_lp_tautomer_probability>  (188) 
1

>  <r_epik_Ionization_Penalty>  (188) 
3.17915e-11

>  <r_epik_Ionization_Penalty_Charging>  (188) 
0

>  <r_epik_Ionization_Penalty_Neutral>  (188) 
3.17915e-11

>  <r_epik_State_Penalty>  (188) 
-0

>  <r_epik_Charging_Adjusted_Penalty>  (188) 
0

>  <i_epik_Tot_Q>  (188) 
0

>  <i_epik_Tot_abs_Q>  (188) 
0

>  <s_epik_Chemistry_Notes>  (188) 
This compound has an ester and may undergo hydrolysis at high or low pH.

>  <s_lp_Force_Field>  (188) 
OPLS3e

>  <r_lp_Energy>  (188) 
54.7744

>  <b_lp_Chiralities_Consistent>  (188) 
1

>  <s_lp_Variant>  (188) 
54:0-1

>  <s_i_glide_gridfile>  (188) 
pfpi4k_grid

>  <i_i_glide_lignum>  (188) 
43

>  <i_i_glide_rotatable_bonds>  (188) 
2

>  <r_i_docking_score>  (188) 
-2.52005

>  <r_i_glide_ligand_efficiency>  (188) 
-0.109567

>  <r_i_glide_ligand_efficiency_sa>  (188) 
-0.311595

>  <r_i_glide_ligand_efficiency_ln>  (188) 
-0.609371

>  <r_i_glide_gscore>  (188) 
-2.52005

>  <r_i_glide_lipo>  (188) 
-3.38622e-05

>  <r_i_glide_hbond>  (188) 
-0.0578743

>  <r_i_glide_metal>  (188) 
-0

>  <r_i_glide_rewards>  (188) 
-1.25217

>  <r_i_glide_evdw>  (188) 
-19.2267

>  <r_i_glide_ecoul>  (188) 
-3.69591

>  <r_i_glide_erotb>  (188) 
0.372026

>  <r_i_glide_esite>  (188) 
-0.0662769

>  <r_i_glide_emodel>  (188) 
-25.3063

>  <r_i_glide_energy>  (188) 
-22.9226

>  <r_i_glide_einternal>  (188) 
0.966875

>  <r_i_glide_intrahb_reward>  (188) 
-0

>  <i_i_glide_confnum>  (188) 
2

>  <i_i_glide_posenum>  (188) 
8

>  <r_i_glide_eff_state_penalty>  (188) 
0

>  <ligand_id>  (188) 
54

>  <original_smiles>  (188) 
C=C1C(=O)OC2C(CC=C(C)C)=C3OC4CC(=O)OC4C1C32C

>  <smiles>  (188) 
[H]C([H])=C1C(=O)OC2([H])C(C([H])([H])C([H])=C(C([H])([H])[H])C([H])([H])[H])=C3OC4([H])C([H])([H])C(=O)OC4([H])C1([H])C32C([H])([H])[H]

$$$$
55:0:0
     RDKit          3D

 20 20  0  0  1  0  0  0  0  0999 V2000
   -5.2753   -9.6798   -6.1002 C   0  0  0  0  0  0  0  0  0  0  0  0
   -5.2147   -8.1889   -5.7359 C   0  0  0  0  0  0  0  0  0  0  0  0
   -4.2289   -7.7782   -5.1220 O   0  0  0  0  0  0  0  0  0  0  0  0
   -6.3389   -7.3217   -6.0894 C   0  0  0  0  0  0  0  0  0  0  0  0
   -6.6381   -6.1786   -5.2738 C   0  0  0  0  0  0  0  0  0  0  0  0
   -7.6716   -5.4188   -5.7460 C   0  0  0  0  0  0  0  0  0  0  0  0
   -8.2783   -4.1856   -5.1603 C   0  0  0  0  0  0  0  0  0  0  0  0
   -8.2560   -6.0467   -7.2523 S   0  0  0  0  0  0  0  0  0  0  0  0
   -7.1260   -7.3744   -7.2203 C   0  0  0  0  0  0  0  0  0  0  0  0
   -7.1529   -8.3046   -8.3975 C   0  0  0  0  0  0  0  0  0  0  0  0
   -6.2217   -9.9625   -6.5608 H   0  0  0  0  0  0  0  0  0  0  0  0
   -5.1444  -10.2755   -5.1980 H   0  0  0  0  0  0  0  0  0  0  0  0
   -4.4570   -9.9237   -6.7730 H   0  0  0  0  0  0  0  0  0  0  0  0
   -6.0834   -5.9592   -4.3798 H   0  0  0  0  0  0  0  0  0  0  0  0
   -7.7825   -3.9068   -4.2260 H   0  0  0  0  0  0  0  0  0  0  0  0
   -9.3372   -4.3316   -4.9524 H   0  0  0  0  0  0  0  0  0  0  0  0
   -8.2009   -3.3485   -5.8520 H   0  0  0  0  0  0  0  0  0  0  0  0
   -6.3501   -9.0481   -8.4033 H   0  0  0  0  0  0  0  0  0  0  0  0
   -7.0635   -7.7324   -9.3170 H   0  0  0  0  0  0  0  0  0  0  0  0
   -8.1072   -8.8276   -8.4351 H   0  0  0  0  0  0  0  0  0  0  0  0
  1  2  1  0
  1 11  1  0
  1 12  1  0
  1 13  1  0
  2  3  2  0
  2  4  1  0
  4  9  2  0
  4  5  1  0
  5  6  2  0
  5 14  1  0
  6  7  1  0
  6  8  1  0
  7 15  1  0
  7 16  1  0
  7 17  1  0
  8  9  1  0
  9 10  1  0
 10 18  1  0
 10 19  1  0
 10 20  1  0
M  END
>  <i_m_ct_stereo_status>  (189) 
1

>  <s_m_source_file>  (189) 
/var/tmp/pbs.5076255.sched01/tmpthapbt4w/86pc0xbys0.sdf

>  <i_m_source_file_index>  (189) 
1

>  <i_lp_mmshare_version>  (189) 
48012

>  <i_f3d_flags>  (189) 
0

>  <s_epik_input>  (189) 
W0NIM11DKD1PKWMxW2NIXWMoW0NIM10pc2MxW0NIM10=

>  <s_epik_cmdline>  (189) 
J2VwaWtfcHl0aG9uJywgJy1waHQnLCAnMi4wJywgJy1waCcsICc3LjAnLCAnLXRuJywgJzgnLCAnLW1hJywgJzIwMCcsICctaW1hZScsICc8aW5maWxlLm1hZT4nLCAnLW9tYWUnLCAnPG91dGZpbGUubWFlPic=

>  <r_lp_tautomer_probability>  (189) 
1

>  <r_epik_Ionization_Penalty>  (189) 
0

>  <r_epik_Ionization_Penalty_Charging>  (189) 
0

>  <r_epik_Ionization_Penalty_Neutral>  (189) 
0

>  <r_epik_State_Penalty>  (189) 
-0

>  <r_epik_Charging_Adjusted_Penalty>  (189) 
0

>  <i_epik_Tot_Q>  (189) 
0

>  <i_epik_Tot_abs_Q>  (189) 
0

>  <s_lp_Force_Field>  (189) 
OPLS3e

>  <r_lp_Energy>  (189) 
11.591

>  <b_lp_Chiralities_Consistent>  (189) 
1

>  <s_lp_Variant>  (189) 
55:0-1

>  <s_i_glide_gridfile>  (189) 
pfpi4k_grid

>  <i_i_glide_lignum>  (189) 
1

>  <i_i_glide_rotatable_bonds>  (189) 
1

>  <r_i_docking_score>  (189) 
-6.23129

>  <r_i_glide_ligand_efficiency>  (189) 
-0.623129

>  <r_i_glide_ligand_efficiency_sa>  (189) 
-1.34249

>  <r_i_glide_ligand_efficiency_ln>  (189) 
-1.88679

>  <r_i_glide_gscore>  (189) 
-6.23129

>  <r_i_glide_lipo>  (189) 
-1.96895

>  <r_i_glide_hbond>  (189) 
0

>  <r_i_glide_metal>  (189) 
-0

>  <r_i_glide_rewards>  (189) 
-3.23937

>  <r_i_glide_evdw>  (189) 
-19.9912

>  <r_i_glide_ecoul>  (189) 
-0.156064

>  <r_i_glide_erotb>  (189) 
0

>  <r_i_glide_esite>  (189) 
0

>  <r_i_glide_emodel>  (189) 
-27.4037

>  <r_i_glide_energy>  (189) 
-20.1473

>  <r_i_glide_einternal>  (189) 
1.47879

>  <r_i_glide_intrahb_reward>  (189) 
-0

>  <i_i_glide_confnum>  (189) 
2

>  <i_i_glide_posenum>  (189) 
14

>  <r_i_glide_eff_state_penalty>  (189) 
0

>  <ligand_id>  (189) 
55

>  <original_smiles>  (189) 
CC(=O)c1cc(C)sc1C

>  <smiles>  (189) 
[H]c1c(C([H])([H])[H])sc(C([H])([H])[H])c1C(=O)C([H])([H])[H]

$$$$
55:0:1
     RDKit          3D

 20 20  0  0  1  0  0  0  0  0999 V2000
   -4.4400   -9.1995   -5.0759 C   0  0  0  0  0  0  0  0  0  0  0  0
   -5.3794   -8.7698   -6.2069 C   0  0  0  0  0  0  0  0  0  0  0  0
   -5.3948   -9.4973   -7.1977 O   0  0  0  0  0  0  0  0  0  0  0  0
   -6.1696   -7.5355   -6.0377 C   0  0  0  0  0  0  0  0  0  0  0  0
   -6.0501   -6.6420   -4.9190 C   0  0  0  0  0  0  0  0  0  0  0  0
   -6.8752   -5.5524   -4.9831 C   0  0  0  0  0  0  0  0  0  0  0  0
   -7.0256   -4.4445   -4.0000 C   0  0  0  0  0  0  0  0  0  0  0  0
   -7.8305   -5.5817   -6.4254 S   0  0  0  0  0  0  0  0  0  0  0  0
   -7.1069   -7.0801   -6.9507 C   0  0  0  0  0  0  0  0  0  0  0  0
   -7.5796   -7.6343   -8.2640 C   0  0  0  0  0  0  0  0  0  0  0  0
   -4.4426   -8.5524   -4.2039 H   0  0  0  0  0  0  0  0  0  0  0  0
   -3.4152   -9.2532   -5.4453 H   0  0  0  0  0  0  0  0  0  0  0  0
   -4.7158  -10.1983   -4.7378 H   0  0  0  0  0  0  0  0  0  0  0  0
   -5.3797   -6.7967   -4.0908 H   0  0  0  0  0  0  0  0  0  0  0  0
   -6.3725   -4.5791   -3.1408 H   0  0  0  0  0  0  0  0  0  0  0  0
   -8.0490   -4.4036   -3.6287 H   0  0  0  0  0  0  0  0  0  0  0  0
   -6.7904   -3.4829   -4.4578 H   0  0  0  0  0  0  0  0  0  0  0  0
   -7.1007   -8.5632   -8.5613 H   0  0  0  0  0  0  0  0  0  0  0  0
   -7.4063   -6.9154   -9.0647 H   0  0  0  0  0  0  0  0  0  0  0  0
   -8.6520   -7.8231   -8.2287 H   0  0  0  0  0  0  0  0  0  0  0  0
  1  2  1  0
  1 11  1  0
  1 12  1  0
  1 13  1  0
  2  3  2  0
  2  4  1  0
  4  9  2  0
  4  5  1  0
  5  6  2  0
  5 14  1  0
  6  7  1  0
  6  8  1  0
  7 15  1  0
  7 16  1  0
  7 17  1  0
  8  9  1  0
  9 10  1  0
 10 18  1  0
 10 19  1  0
 10 20  1  0
M  END
>  <i_m_ct_stereo_status>  (190) 
1

>  <s_m_source_file>  (190) 
/var/tmp/pbs.5076255.sched01/tmpthapbt4w/86pc0xbys0.sdf

>  <i_m_source_file_index>  (190) 
1

>  <i_lp_mmshare_version>  (190) 
48012

>  <i_f3d_flags>  (190) 
0

>  <s_epik_input>  (190) 
W0NIM11DKD1PKWMxW2NIXWMoW0NIM10pc2MxW0NIM10=

>  <s_epik_cmdline>  (190) 
J2VwaWtfcHl0aG9uJywgJy1waHQnLCAnMi4wJywgJy1waCcsICc3LjAnLCAnLXRuJywgJzgnLCAnLW1hJywgJzIwMCcsICctaW1hZScsICc8aW5maWxlLm1hZT4nLCAnLW9tYWUnLCAnPG91dGZpbGUubWFlPic=

>  <r_lp_tautomer_probability>  (190) 
1

>  <r_epik_Ionization_Penalty>  (190) 
0

>  <r_epik_Ionization_Penalty_Charging>  (190) 
0

>  <r_epik_Ionization_Penalty_Neutral>  (190) 
0

>  <r_epik_State_Penalty>  (190) 
-0

>  <r_epik_Charging_Adjusted_Penalty>  (190) 
0

>  <i_epik_Tot_Q>  (190) 
0

>  <i_epik_Tot_abs_Q>  (190) 
0

>  <s_lp_Force_Field>  (190) 
OPLS3e

>  <r_lp_Energy>  (190) 
11.591

>  <b_lp_Chiralities_Consistent>  (190) 
1

>  <s_lp_Variant>  (190) 
55:0-1

>  <s_i_glide_gridfile>  (190) 
pfpi4k_grid

>  <i_i_glide_lignum>  (190) 
1

>  <i_i_glide_rotatable_bonds>  (190) 
1

>  <r_i_docking_score>  (190) 
-5.95588

>  <r_i_glide_ligand_efficiency>  (190) 
-0.595588

>  <r_i_glide_ligand_efficiency_sa>  (190) 
-1.28316

>  <r_i_glide_ligand_efficiency_ln>  (190) 
-1.8034

>  <r_i_glide_gscore>  (190) 
-5.95588

>  <r_i_glide_lipo>  (190) 
-1.86842

>  <r_i_glide_hbond>  (190) 
0

>  <r_i_glide_metal>  (190) 
-0

>  <r_i_glide_rewards>  (190) 
-2.89508

>  <r_i_glide_evdw>  (190) 
-20.5577

>  <r_i_glide_ecoul>  (190) 
-1.09666

>  <r_i_glide_erotb>  (190) 
0

>  <r_i_glide_esite>  (190) 
0

>  <r_i_glide_emodel>  (190) 
-29.6493

>  <r_i_glide_energy>  (190) 
-21.6543

>  <r_i_glide_einternal>  (190) 
0.0240292

>  <r_i_glide_intrahb_reward>  (190) 
-0

>  <i_i_glide_confnum>  (190) 
2

>  <i_i_glide_posenum>  (190) 
1

>  <r_i_glide_eff_state_penalty>  (190) 
0

>  <ligand_id>  (190) 
55

>  <original_smiles>  (190) 
CC(=O)c1cc(C)sc1C

>  <smiles>  (190) 
[H]c1c(C([H])([H])[H])sc(C([H])([H])[H])c1C(=O)C([H])([H])[H]

$$$$
55:0:2
     RDKit          3D

 20 20  0  0  1  0  0  0  0  0999 V2000
   -9.3386   -7.0975   -8.8268 C   0  0  0  0  0  0  0  0  0  0  0  0
   -9.4689   -5.8252   -7.9854 C   0  0  0  0  0  0  0  0  0  0  0  0
  -10.3637   -5.0536   -8.3167 O   0  0  0  0  0  0  0  0  0  0  0  0
   -8.5326   -5.6166   -6.8667 C   0  0  0  0  0  0  0  0  0  0  0  0
   -7.3873   -6.4437   -6.6084 C   0  0  0  0  0  0  0  0  0  0  0  0
   -6.6620   -6.0623   -5.5122 C   0  0  0  0  0  0  0  0  0  0  0  0
   -5.4250   -6.6848   -4.9662 C   0  0  0  0  0  0  0  0  0  0  0  0
   -7.3493   -4.6557   -4.7684 S   0  0  0  0  0  0  0  0  0  0  0  0
   -8.6389   -4.5906   -5.9417 C   0  0  0  0  0  0  0  0  0  0  0  0
   -9.6428   -3.4863   -5.7813 C   0  0  0  0  0  0  0  0  0  0  0  0
   -8.5503   -7.7754   -8.5097 H   0  0  0  0  0  0  0  0  0  0  0  0
   -9.1582   -6.8268   -9.8679 H   0  0  0  0  0  0  0  0  0  0  0  0
  -10.2810   -7.6450   -8.7906 H   0  0  0  0  0  0  0  0  0  0  0  0
   -7.1093   -7.2891   -7.2172 H   0  0  0  0  0  0  0  0  0  0  0  0
   -5.1215   -7.5505   -5.5565 H   0  0  0  0  0  0  0  0  0  0  0  0
   -5.5854   -7.0131   -3.9398 H   0  0  0  0  0  0  0  0  0  0  0  0
   -4.6063   -5.9659   -4.9718 H   0  0  0  0  0  0  0  0  0  0  0  0
  -10.4361   -3.4811   -6.5243 H   0  0  0  0  0  0  0  0  0  0  0  0
   -9.1523   -2.5146   -5.8205 H   0  0  0  0  0  0  0  0  0  0  0  0
  -10.1250   -3.5604   -4.8091 H   0  0  0  0  0  0  0  0  0  0  0  0
  1  2  1  0
  1 11  1  0
  1 12  1  0
  1 13  1  0
  2  3  2  0
  2  4  1  0
  4  9  2  0
  4  5  1  0
  5  6  2  0
  5 14  1  0
  6  7  1  0
  6  8  1  0
  7 15  1  0
  7 16  1  0
  7 17  1  0
  8  9  1  0
  9 10  1  0
 10 18  1  0
 10 19  1  0
 10 20  1  0
M  END
>  <i_m_ct_stereo_status>  (191) 
1

>  <s_m_source_file>  (191) 
/var/tmp/pbs.5076255.sched01/tmpthapbt4w/86pc0xbys0.sdf

>  <i_m_source_file_index>  (191) 
1

>  <i_lp_mmshare_version>  (191) 
48012

>  <i_f3d_flags>  (191) 
0

>  <s_epik_input>  (191) 
W0NIM11DKD1PKWMxW2NIXWMoW0NIM10pc2MxW0NIM10=

>  <s_epik_cmdline>  (191) 
J2VwaWtfcHl0aG9uJywgJy1waHQnLCAnMi4wJywgJy1waCcsICc3LjAnLCAnLXRuJywgJzgnLCAnLW1hJywgJzIwMCcsICctaW1hZScsICc8aW5maWxlLm1hZT4nLCAnLW9tYWUnLCAnPG91dGZpbGUubWFlPic=

>  <r_lp_tautomer_probability>  (191) 
1

>  <r_epik_Ionization_Penalty>  (191) 
0

>  <r_epik_Ionization_Penalty_Charging>  (191) 
0

>  <r_epik_Ionization_Penalty_Neutral>  (191) 
0

>  <r_epik_State_Penalty>  (191) 
-0

>  <r_epik_Charging_Adjusted_Penalty>  (191) 
0

>  <i_epik_Tot_Q>  (191) 
0

>  <i_epik_Tot_abs_Q>  (191) 
0

>  <s_lp_Force_Field>  (191) 
OPLS3e

>  <r_lp_Energy>  (191) 
11.591

>  <b_lp_Chiralities_Consistent>  (191) 
1

>  <s_lp_Variant>  (191) 
55:0-1

>  <s_i_glide_gridfile>  (191) 
pfpi4k_grid

>  <i_i_glide_lignum>  (191) 
1

>  <i_i_glide_rotatable_bonds>  (191) 
1

>  <r_i_docking_score>  (191) 
-5.85415

>  <r_i_glide_ligand_efficiency>  (191) 
-0.585415

>  <r_i_glide_ligand_efficiency_sa>  (191) 
-1.26124

>  <r_i_glide_ligand_efficiency_ln>  (191) 
-1.7726

>  <r_i_glide_gscore>  (191) 
-5.85415

>  <r_i_glide_lipo>  (191) 
-1.98262

>  <r_i_glide_hbond>  (191) 
-0.0139618

>  <r_i_glide_metal>  (191) 
-0

>  <r_i_glide_rewards>  (191) 
-2.74924

>  <r_i_glide_evdw>  (191) 
-21.2078

>  <r_i_glide_ecoul>  (191) 
-0.319606

>  <r_i_glide_erotb>  (191) 
0

>  <r_i_glide_esite>  (191) 
0

>  <r_i_glide_emodel>  (191) 
-29.3246

>  <r_i_glide_energy>  (191) 
-21.5274

>  <r_i_glide_einternal>  (191) 
0.0741114

>  <r_i_glide_intrahb_reward>  (191) 
-0

>  <i_i_glide_confnum>  (191) 
2

>  <i_i_glide_posenum>  (191) 
28

>  <r_i_glide_eff_state_penalty>  (191) 
0

>  <ligand_id>  (191) 
55

>  <original_smiles>  (191) 
CC(=O)c1cc(C)sc1C

>  <smiles>  (191) 
[H]c1c(C([H])([H])[H])sc(C([H])([H])[H])c1C(=O)C([H])([H])[H]

$$$$
56:0:0
     RDKit          3D

 52 58  0  0  1  0  0  0  0  0999 V2000
    4.7054   -5.0729    4.8386 C   0  0  0  0  0  0  0  0  0  0  0  0
    4.1882   -4.3836    3.5585 C   0  0  2  0  0  0  0  0  0  0  0  0
    4.9330   -4.8777    2.2946 C   0  0  1  0  0  0  0  0  0  0  0  0
    4.4960   -6.2108    1.5881 C   0  0  1  0  0  0  0  0  0  0  0  0
    3.3573   -6.8146    2.1642 O   0  0  0  0  0  0  0  0  0  0  0  0
    4.1728   -5.8672    0.0904 C   0  0  0  0  0  0  0  0  0  0  0  0
    4.9313   -4.5572   -0.1024 C   0  0  1  0  0  0  0  0  0  0  0  0
    4.6207   -3.3580   -1.0271 C   0  0  1  0  0  0  0  0  0  0  0  0
    3.7469   -3.4067   -2.2949 C   0  0  1  0  0  0  0  0  0  0  0  0
    2.4279   -3.7690   -1.9134 O   0  0  0  0  0  0  0  0  0  0  0  0
    3.8314   -2.0546   -2.9348 C   0  0  0  0  0  0  0  0  0  0  0  0
    3.4712   -1.6372   -4.2470 C   0  0  0  0  0  0  0  0  0  0  0  0
    3.6952   -0.2940   -4.2865 C   0  0  0  0  0  0  0  0  0  0  0  0
    4.2213    0.1393   -3.1056 O   0  0  0  0  0  0  0  0  0  0  0  0
    4.2965   -0.9431   -2.3071 C   0  0  0  0  0  0  0  0  0  0  0  0
    4.8403   -0.8275   -0.9284 C   0  0  0  0  0  0  0  0  0  0  0  0
    4.3937   -2.0740   -0.1313 C   0  0  1  0  0  0  0  0  0  0  0  0
    3.0274   -1.8680    0.1679 O   0  0  0  0  0  0  0  0  0  0  0  0
    5.0379   -2.4765    1.2415 C   0  0  2  0  0  0  0  0  0  0  0  0
    6.5679   -2.3599    1.1699 C   0  0  0  0  0  0  0  0  0  0  0  0
    4.5900   -3.9291    1.2050 C   0  0  2  0  0  0  0  0  0  0  0  0
    4.4733   -1.8635    2.5468 C   0  0  2  0  0  0  0  0  0  0  0  0
    3.8911   -0.5324    2.5378 O   0  0  0  0  0  0  0  0  0  0  0  0
    5.1600   -0.6665    3.1570 C   0  0  1  0  0  0  0  0  0  0  0  0
    5.2393   -1.0171    4.6022 C   0  0  0  0  0  0  0  0  0  0  0  0
    5.7350   -0.2843    5.4646 O   0  0  0  0  0  0  0  0  0  0  0  0
    4.7464   -2.2559    4.8008 O   0  0  0  0  0  0  0  0  0  0  0  0
    4.0538   -2.8151    3.6885 C   0  0  2  0  0  0  0  0  0  0  0  0
    5.7397   -4.8064    5.0554 H   0  0  0  0  0  0  0  0  0  0  0  0
    4.6634   -6.1573    4.7579 H   0  0  0  0  0  0  0  0  0  0  0  0
    4.1102   -4.8028    5.7109 H   0  0  0  0  0  0  0  0  0  0  0  0
    3.1487   -4.7019    3.4507 H   0  0  0  0  0  0  0  0  0  0  0  0
    6.0064   -4.9064    2.4620 H   0  0  0  0  0  0  0  0  0  0  0  0
    5.3214   -6.9331    1.6187 H   0  0  0  0  0  0  0  0  0  0  0  0
    3.6215   -7.2191    2.9809 H   0  0  0  0  0  0  0  0  0  0  0  0
    4.4986   -6.6414   -0.6065 H   0  0  0  0  0  0  0  0  0  0  0  0
    3.0983   -5.7113   -0.0497 H   0  0  0  0  0  0  0  0  0  0  0  0
    5.9973   -4.7860   -0.1522 H   0  0  0  0  0  0  0  0  0  0  0  0
    5.6056   -3.2174   -1.4767 H   0  0  0  0  0  0  0  0  0  0  0  0
    4.1525   -4.1323   -3.0008 H   0  0  0  0  0  0  0  0  0  0  0  0
    2.4274   -4.7298   -1.9158 H   0  0  0  0  0  0  0  0  0  0  0  0
    3.0689   -2.2405   -5.0350 H   0  0  0  0  0  0  0  0  0  0  0  0
    3.5329    0.4698   -5.0270 H   0  0  0  0  0  0  0  0  0  0  0  0
    5.9256   -0.7933   -1.0051 H   0  0  0  0  0  0  0  0  0  0  0  0
    4.5166    0.0881   -0.4633 H   0  0  0  0  0  0  0  0  0  0  0  0
    2.5600   -1.5648   -0.6036 H   0  0  0  0  0  0  0  0  0  0  0  0
    6.9471   -2.8294    2.0628 H   0  0  0  0  0  0  0  0  0  0  0  0
    6.9146   -1.3309    1.1367 H   0  0  0  0  0  0  0  0  0  0  0  0
    7.0264   -2.8727    0.3333 H   0  0  0  0  0  0  0  0  0  0  0  0
    3.4974   -3.9138    1.2444 H   0  0  0  0  0  0  0  0  0  0  0  0
    5.9925   -0.1890    2.6575 H   0  0  0  0  0  0  0  0  0  0  0  0
    3.0006   -2.6194    3.8603 H   0  0  0  0  0  0  0  0  0  0  0  0
  1  2  1  0
  1 29  1  0
  1 30  1  0
  1 31  1  0
  2 28  1  0
  2  3  1  0
  2 32  1  6
  3 21  1  0
  3  4  1  0
  3 33  1  1
  4  5  1  0
  4  6  1  0
  4 34  1  6
  5 35  1  0
  6  7  1  0
  6 36  1  0
  6 37  1  0
  7 21  1  0
  7  8  1  0
  7 38  1  1
  8 17  1  0
  8  9  1  0
  8 39  1  6
  9 10  1  0
  9 11  1  0
  9 40  1  6
 10 41  1  0
 11 15  2  0
 11 12  1  0
 12 13  2  0
 12 42  1  0
 13 14  1  0
 13 43  1  0
 14 15  1  0
 15 16  1  0
 16 17  1  0
 16 44  1  0
 16 45  1  0
 17 18  1  1
 17 19  1  0
 18 46  1  0
 19 20  1  6
 19 21  1  0
 19 22  1  0
 20 47  1  0
 20 48  1  0
 20 49  1  0
 21 50  1  6
 22 24  1  0
 22 28  1  0
 22 23  1  6
 23 24  1  0
 24 25  1  0
 24 51  1  6
 25 26  2  0
 25 27  1  0
 27 28  1  0
 28 52  1  1
M  END
>  <i_m_ct_stereo_status>  (192) 
1

>  <s_m_source_file>  (192) 
/var/tmp/pbs.5076255.sched01/tmpthapbt4w/86pc0xbys0.sdf

>  <i_m_source_file_index>  (192) 
2

>  <i_lp_mmshare_version>  (192) 
48012

>  <i_f3d_flags>  (192) 
0

>  <s_epik_input>  (192) 
TzFbQ0BIXTJDKD1PKU9bQ0BASF0zW0NASF0oW0NIM10pW0NAQEhdKFtDQEBIXShbT0hdKVtDSDJdNClbQ0BASF01W0NAQEhdNFtDQEhdKFtDQEBdNihbT0hdKVtDQF01KFtDQF0xMjMpW0NIM10pW0NAQEhdKFtPSF0pYzdjKFtDSDJdNilvW2NIXVtjSF03

>  <s_epik_cmdline>  (192) 
J2VwaWtfcHl0aG9uJywgJy1waHQnLCAnMi4wJywgJy1waCcsICc3LjAnLCAnLXRuJywgJzgnLCAnLW1hJywgJzIwMCcsICctaW1hZScsICc8aW5maWxlLm1hZT4nLCAnLW9tYWUnLCAnPG91dGZpbGUubWFlPic=

>  <r_lp_tautomer_probability>  (192) 
1

>  <r_epik_Ionization_Penalty>  (192) 
6.95489e-07

>  <r_epik_Ionization_Penalty_Charging>  (192) 
0

>  <r_epik_Ionization_Penalty_Neutral>  (192) 
6.95489e-07

>  <r_epik_State_Penalty>  (192) 
-0

>  <r_epik_Charging_Adjusted_Penalty>  (192) 
0

>  <i_epik_Tot_Q>  (192) 
0

>  <i_epik_Tot_abs_Q>  (192) 
0

>  <s_epik_Chemistry_Notes>  (192) 
This compound has an ester and may undergo hydrolysis at high or low pH.

>  <s_lp_Force_Field>  (192) 
OPLS3e

>  <r_lp_Energy>  (192) 
78.5257

>  <b_lp_Chiralities_Consistent>  (192) 
1

>  <s_lp_Variant>  (192) 
56:0-1

>  <s_i_glide_gridfile>  (192) 
pfpi4k_grid

>  <i_i_glide_lignum>  (192) 
2

>  <i_i_glide_rotatable_bonds>  (192) 
3

>  <r_i_docking_score>  (192) 
-3.52207

>  <r_i_glide_ligand_efficiency>  (192) 
-0.125788

>  <r_i_glide_ligand_efficiency_sa>  (192) 
-0.381967

>  <r_i_glide_ligand_efficiency_ln>  (192) 
-0.812998

>  <r_i_glide_gscore>  (192) 
-3.52207

>  <r_i_glide_lipo>  (192) 
-0.805759

>  <r_i_glide_hbond>  (192) 
0

>  <r_i_glide_metal>  (192) 
-0

>  <r_i_glide_rewards>  (192) 
-0.830339

>  <r_i_glide_evdw>  (192) 
-21.5576

>  <r_i_glide_ecoul>  (192) 
-5.38729

>  <r_i_glide_erotb>  (192) 
0

>  <r_i_glide_esite>  (192) 
0

>  <r_i_glide_emodel>  (192) 
-33.6355

>  <r_i_glide_energy>  (192) 
-26.9449

>  <r_i_glide_einternal>  (192) 
0.939526

>  <r_i_glide_intrahb_reward>  (192) 
-0

>  <i_i_glide_confnum>  (192) 
2

>  <i_i_glide_posenum>  (192) 
36

>  <r_i_glide_eff_state_penalty>  (192) 
0

>  <ligand_id>  (192) 
56

>  <original_smiles>  (192) 
CC1C2C(O)CC3C4C(O)c5ccoc5CC4(O)C(C)(C32)C23OC2C(=O)OC13

>  <smiles>  (192) 
[H]OC1([H])c2c(oc([H])c2[H])C([H])([H])C2(O[H])C1([H])C1([H])C([H])([H])C([H])(O[H])C3([H])C([H])(C([H])([H])[H])C4([H])OC(=O)C5([H])OC54C2(C([H])([H])[H])C13[H]

$$$$
56:0:1
     RDKit          3D

 52 58  0  0  1  0  0  0  0  0999 V2000
    3.6867   -3.2589    6.8253 C   0  0  0  0  0  0  0  0  0  0  0  0
    3.3906   -3.2474    5.3079 C   0  0  2  0  0  0  0  0  0  0  0  0
    4.6480   -3.5752    4.4645 C   0  0  1  0  0  0  0  0  0  0  0  0
    5.0732   -5.0677    4.2226 C   0  0  1  0  0  0  0  0  0  0  0  0
    4.2191   -6.0299    4.8106 O   0  0  0  0  0  0  0  0  0  0  0  0
    5.1713   -5.2880    2.6685 C   0  0  0  0  0  0  0  0  0  0  0  0
    5.3231   -3.8564    2.1520 C   0  0  1  0  0  0  0  0  0  0  0  0
    4.8792   -3.2403    0.8093 C   0  0  1  0  0  0  0  0  0  0  0  0
    4.6372   -4.0361   -0.4949 C   0  0  1  0  0  0  0  0  0  0  0  0
    3.6069   -4.9868   -0.3158 O   0  0  0  0  0  0  0  0  0  0  0  0
    4.3262   -3.0203   -1.5767 C   0  0  0  0  0  0  0  0  0  0  0  0
    4.2392   -3.1618   -2.9908 C   0  0  0  0  0  0  0  0  0  0  0  0
    3.9124   -1.9291   -3.4749 C   0  0  0  0  0  0  0  0  0  0  0  0
    3.8286   -1.0105   -2.4692 O   0  0  0  0  0  0  0  0  0  0  0  0
    4.0623   -1.6963   -1.3247 C   0  0  0  0  0  0  0  0  0  0  0  0
    3.9939   -0.9928    0.0051 C   0  0  0  0  0  0  0  0  0  0  0  0
    3.8629   -2.0696    1.1132 C   0  0  1  0  0  0  0  0  0  0  0  0
    2.5189   -2.5122    0.9823 O   0  0  0  0  0  0  0  0  0  0  0  0
    4.1130   -1.7480    2.6392 C   0  0  2  0  0  0  0  0  0  0  0  0
    5.3817   -0.8698    2.8463 C   0  0  0  0  0  0  0  0  0  0  0  0
    4.3383   -3.1932    3.0547 C   0  0  2  0  0  0  0  0  0  0  0  0
    2.9291   -1.2464    3.5058 C   0  0  2  0  0  0  0  0  0  0  0  0
    1.8652   -0.4681    2.9165 O   0  0  0  0  0  0  0  0  0  0  0  0
    2.7860    0.2320    3.7445 C   0  0  1  0  0  0  0  0  0  0  0  0
    2.5596    0.3207    5.2180 C   0  0  0  0  0  0  0  0  0  0  0  0
    2.4401    1.3773    5.8379 O   0  0  0  0  0  0  0  0  0  0  0  0
    2.5516   -0.9140    5.7614 O   0  0  0  0  0  0  0  0  0  0  0  0
    2.5765   -1.9836    4.8210 C   0  0  2  0  0  0  0  0  0  0  0  0
    4.3713   -2.4636    7.1225 H   0  0  0  0  0  0  0  0  0  0  0  0
    4.1348   -4.2027    7.1322 H   0  0  0  0  0  0  0  0  0  0  0  0
    2.7763   -3.1427    7.4138 H   0  0  0  0  0  0  0  0  0  0  0  0
    2.6884   -4.0698    5.1509 H   0  0  0  0  0  0  0  0  0  0  0  0
    5.5063   -3.0091    4.8229 H   0  0  0  0  0  0  0  0  0  0  0  0
    6.0618   -5.2121    4.6641 H   0  0  0  0  0  0  0  0  0  0  0  0
    3.3840   -6.0111    4.3670 H   0  0  0  0  0  0  0  0  0  0  0  0
    6.0186   -5.9152    2.3899 H   0  0  0  0  0  0  0  0  0  0  0  0
    4.2656   -5.7415    2.2594 H   0  0  0  0  0  0  0  0  0  0  0  0
    6.3319   -3.5144    2.3850 H   0  0  0  0  0  0  0  0  0  0  0  0
    5.7912   -2.7061    0.5436 H   0  0  0  0  0  0  0  0  0  0  0  0
    5.5442   -4.5693   -0.7820 H   0  0  0  0  0  0  0  0  0  0  0  0
    3.4124   -5.3681   -1.1792 H   0  0  0  0  0  0  0  0  0  0  0  0
    4.3728   -4.0627   -3.5767 H   0  0  0  0  0  0  0  0  0  0  0  0
    3.7021   -1.5417   -4.4630 H   0  0  0  0  0  0  0  0  0  0  0  0
    4.9102   -0.4183    0.1232 H   0  0  0  0  0  0  0  0  0  0  0  0
    3.1710   -0.2812    0.0561 H   0  0  0  0  0  0  0  0  0  0  0  0
    2.0660   -1.8991    0.4100 H   0  0  0  0  0  0  0  0  0  0  0  0
    5.6385   -0.7618    3.9011 H   0  0  0  0  0  0  0  0  0  0  0  0
    5.2406    0.1316    2.4420 H   0  0  0  0  0  0  0  0  0  0  0  0
    6.2633   -1.2665    2.3429 H   0  0  0  0  0  0  0  0  0  0  0  0
    3.3890   -3.7058    2.8677 H   0  0  0  0  0  0  0  0  0  0  0  0
    3.4188    0.9500    3.2341 H   0  0  0  0  0  0  0  0  0  0  0  0
    1.5484   -2.3186    4.7074 H   0  0  0  0  0  0  0  0  0  0  0  0
  1  2  1  0
  1 29  1  0
  1 30  1  0
  1 31  1  0
  2 28  1  0
  2  3  1  0
  2 32  1  1
  3 21  1  0
  3  4  1  0
  3 33  1  1
  4  5  1  0
  4  6  1  0
  4 34  1  1
  5 35  1  0
  6  7  1  0
  6 36  1  0
  6 37  1  0
  7 21  1  0
  7  8  1  0
  7 38  1  1
  8 17  1  0
  8  9  1  0
  8 39  1  6
  9 10  1  0
  9 11  1  0
  9 40  1  6
 10 41  1  0
 11 15  2  0
 11 12  1  0
 12 13  2  0
 12 42  1  0
 13 14  1  0
 13 43  1  0
 14 15  1  0
 15 16  1  0
 16 17  1  0
 16 44  1  0
 16 45  1  0
 17 18  1  1
 17 19  1  0
 18 46  1  0
 19 20  1  6
 19 21  1  0
 19 22  1  0
 20 47  1  0
 20 48  1  0
 20 49  1  0
 21 50  1  6
 22 24  1  0
 22 28  1  0
 22 23  1  6
 23 24  1  0
 24 25  1  0
 24 51  1  6
 25 26  2  0
 25 27  1  0
 27 28  1  0
 28 52  1  6
M  END
>  <i_m_ct_stereo_status>  (193) 
1

>  <s_m_source_file>  (193) 
/var/tmp/pbs.5076255.sched01/tmpthapbt4w/86pc0xbys0.sdf

>  <i_m_source_file_index>  (193) 
2

>  <i_lp_mmshare_version>  (193) 
48012

>  <i_f3d_flags>  (193) 
0

>  <s_epik_input>  (193) 
TzFbQ0BIXTJDKD1PKU9bQ0BASF0zW0NASF0oW0NIM10pW0NAQEhdKFtDQEBIXShbT0hdKVtDSDJdNClbQ0BASF01W0NAQEhdNFtDQEhdKFtDQEBdNihbT0hdKVtDQF01KFtDQF0xMjMpW0NIM10pW0NAQEhdKFtPSF0pYzdjKFtDSDJdNilvW2NIXVtjSF03

>  <s_epik_cmdline>  (193) 
J2VwaWtfcHl0aG9uJywgJy1waHQnLCAnMi4wJywgJy1waCcsICc3LjAnLCAnLXRuJywgJzgnLCAnLW1hJywgJzIwMCcsICctaW1hZScsICc8aW5maWxlLm1hZT4nLCAnLW9tYWUnLCAnPG91dGZpbGUubWFlPic=

>  <r_lp_tautomer_probability>  (193) 
1

>  <r_epik_Ionization_Penalty>  (193) 
6.95489e-07

>  <r_epik_Ionization_Penalty_Charging>  (193) 
0

>  <r_epik_Ionization_Penalty_Neutral>  (193) 
6.95489e-07

>  <r_epik_State_Penalty>  (193) 
-0

>  <r_epik_Charging_Adjusted_Penalty>  (193) 
0

>  <i_epik_Tot_Q>  (193) 
0

>  <i_epik_Tot_abs_Q>  (193) 
0

>  <s_epik_Chemistry_Notes>  (193) 
This compound has an ester and may undergo hydrolysis at high or low pH.

>  <s_lp_Force_Field>  (193) 
OPLS3e

>  <r_lp_Energy>  (193) 
78.5257

>  <b_lp_Chiralities_Consistent>  (193) 
1

>  <s_lp_Variant>  (193) 
56:0-1

>  <s_i_glide_gridfile>  (193) 
pfpi4k_grid

>  <i_i_glide_lignum>  (193) 
2

>  <i_i_glide_rotatable_bonds>  (193) 
3

>  <r_i_docking_score>  (193) 
-3.14242

>  <r_i_glide_ligand_efficiency>  (193) 
-0.112229

>  <r_i_glide_ligand_efficiency_sa>  (193) 
-0.340795

>  <r_i_glide_ligand_efficiency_ln>  (193) 
-0.725364

>  <r_i_glide_gscore>  (193) 
-3.14242

>  <r_i_glide_lipo>  (193) 
-0.45786

>  <r_i_glide_hbond>  (193) 
0

>  <r_i_glide_metal>  (193) 
-0

>  <r_i_glide_rewards>  (193) 
-0.760834

>  <r_i_glide_evdw>  (193) 
-23.3916

>  <r_i_glide_ecoul>  (193) 
-5.02767

>  <r_i_glide_erotb>  (193) 
0

>  <r_i_glide_esite>  (193) 
0

>  <r_i_glide_emodel>  (193) 
-34.1109

>  <r_i_glide_energy>  (193) 
-28.4193

>  <r_i_glide_einternal>  (193) 
1.86539

>  <r_i_glide_intrahb_reward>  (193) 
-0

>  <i_i_glide_confnum>  (193) 
2

>  <i_i_glide_posenum>  (193) 
2

>  <r_i_glide_eff_state_penalty>  (193) 
0

>  <ligand_id>  (193) 
56

>  <original_smiles>  (193) 
CC1C2C(O)CC3C4C(O)c5ccoc5CC4(O)C(C)(C32)C23OC2C(=O)OC13

>  <smiles>  (193) 
[H]OC1([H])c2c(oc([H])c2[H])C([H])([H])C2(O[H])C1([H])C1([H])C([H])([H])C([H])(O[H])C3([H])C([H])(C([H])([H])[H])C4([H])OC(=O)C5([H])OC54C2(C([H])([H])[H])C13[H]

$$$$
56:0:2
     RDKit          3D

 52 58  0  0  1  0  0  0  0  0999 V2000
   -1.6031    1.3462    7.4346 C   0  0  0  0  0  0  0  0  0  0  0  0
   -0.9158    0.6060    6.2630 C   0  0  2  0  0  0  0  0  0  0  0  0
    0.6106    0.4528    6.4835 C   0  0  1  0  0  0  0  0  0  0  0  0
    1.1789   -0.7245    7.3585 C   0  0  1  0  0  0  0  0  0  0  0  0
    0.2053   -1.6199    7.8586 O   0  0  0  0  0  0  0  0  0  0  0  0
    2.2117   -1.5139    6.4783 C   0  0  0  0  0  0  0  0  0  0  0  0
    2.5731   -0.4839    5.4080 C   0  0  1  0  0  0  0  0  0  0  0  0
    3.0065   -0.7011    3.9417 C   0  0  1  0  0  0  0  0  0  0  0  0
    3.6465   -1.9989    3.3931 C   0  0  1  0  0  0  0  0  0  0  0  0
    2.7732   -3.1010    3.5436 O   0  0  0  0  0  0  0  0  0  0  0  0
    4.0066   -1.7324    1.9454 C   0  0  0  0  0  0  0  0  0  0  0  0
    4.8108   -2.4763    1.0323 C   0  0  0  0  0  0  0  0  0  0  0  0
    4.7904   -1.7791   -0.1454 C   0  0  0  0  0  0  0  0  0  0  0  0
    4.0515   -0.6427   -0.0272 O   0  0  0  0  0  0  0  0  0  0  0  0
    3.5789   -0.6337    1.2439 C   0  0  0  0  0  0  0  0  0  0  0  0
    2.6823    0.4860    1.7065 C   0  0  0  0  0  0  0  0  0  0  0  0
    1.9586    0.0143    2.9984 C   0  0  1  0  0  0  0  0  0  0  0  0
    1.0118   -0.9173    2.5004 O   0  0  0  0  0  0  0  0  0  0  0  0
    1.2076    1.0071    3.9732 C   0  0  2  0  0  0  0  0  0  0  0  0
    2.0406    2.2959    4.2359 C   0  0  0  0  0  0  0  0  0  0  0  0
    1.2072    0.0674    5.1690 C   0  0  2  0  0  0  0  0  0  0  0  0
   -0.2870    1.3335    3.7128 C   0  0  2  0  0  0  0  0  0  0  0  0
   -0.8172    1.3086    2.3742 O   0  0  0  0  0  0  0  0  0  0  0  0
   -0.6247    2.5912    2.9677 C   0  0  1  0  0  0  0  0  0  0  0  0
   -1.6924    3.2094    3.8087 C   0  0  0  0  0  0  0  0  0  0  0  0
   -2.1908    4.3147    3.5934 O   0  0  0  0  0  0  0  0  0  0  0  0
   -1.9761    2.4155    4.8635 O   0  0  0  0  0  0  0  0  0  0  0  0
   -1.3306    1.1464    4.8395 C   0  0  2  0  0  0  0  0  0  0  0  0
   -1.2802    2.3825    7.5145 H   0  0  0  0  0  0  0  0  0  0  0  0
   -1.3751    0.8728    8.3892 H   0  0  0  0  0  0  0  0  0  0  0  0
   -2.6876    1.3501    7.3266 H   0  0  0  0  0  0  0  0  0  0  0  0
   -1.3265   -0.4044    6.2727 H   0  0  0  0  0  0  0  0  0  0  0  0
    1.0421    1.3922    6.8244 H   0  0  0  0  0  0  0  0  0  0  0  0
    1.6961   -0.2945    8.2185 H   0  0  0  0  0  0  0  0  0  0  0  0
    0.6609   -2.3036    8.3311 H   0  0  0  0  0  0  0  0  0  0  0  0
    3.0823   -1.8402    7.0483 H   0  0  0  0  0  0  0  0  0  0  0  0
    1.7624   -2.3965    6.0169 H   0  0  0  0  0  0  0  0  0  0  0  0
    3.2112    0.2731    5.8705 H   0  0  0  0  0  0  0  0  0  0  0  0
    3.8629   -0.0277    3.9032 H   0  0  0  0  0  0  0  0  0  0  0  0
    4.5664   -2.2164    3.9375 H   0  0  0  0  0  0  0  0  0  0  0  0
    3.2049   -3.8640    3.1933 H   0  0  0  0  0  0  0  0  0  0  0  0
    5.3271   -3.4067    1.2005 H   0  0  0  0  0  0  0  0  0  0  0  0
    5.2184   -1.9482   -1.1212 H   0  0  0  0  0  0  0  0  0  0  0  0
    3.3058    1.3533    1.9177 H   0  0  0  0  0  0  0  0  0  0  0  0
    1.9801    0.7828    0.9257 H   0  0  0  0  0  0  0  0  0  0  0  0
    1.0120   -0.8455    1.5529 H   0  0  0  0  0  0  0  0  0  0  0  0
    1.5967    2.9193    5.0144 H   0  0  0  0  0  0  0  0  0  0  0  0
    2.1261    2.9090    3.3384 H   0  0  0  0  0  0  0  0  0  0  0  0
    3.0663    2.0872    4.5437 H   0  0  0  0  0  0  0  0  0  0  0  0
    0.5954   -0.7912    4.8709 H   0  0  0  0  0  0  0  0  0  0  0  0
    0.1589    3.2064    2.5379 H   0  0  0  0  0  0  0  0  0  0  0  0
   -2.0620    0.4382    4.4481 H   0  0  0  0  0  0  0  0  0  0  0  0
  1  2  1  0
  1 29  1  0
  1 30  1  0
  1 31  1  0
  2 28  1  0
  2  3  1  0
  2 32  1  6
  3 21  1  0
  3  4  1  0
  3 33  1  1
  4  5  1  0
  4  6  1  0
  4 34  1  1
  5 35  1  0
  6  7  1  0
  6 36  1  0
  6 37  1  0
  7 21  1  0
  7  8  1  0
  7 38  1  1
  8 17  1  0
  8  9  1  0
  8 39  1  1
  9 10  1  0
  9 11  1  0
  9 40  1  1
 10 41  1  0
 11 15  2  0
 11 12  1  0
 12 13  2  0
 12 42  1  0
 13 14  1  0
 13 43  1  0
 14 15  1  0
 15 16  1  0
 16 17  1  0
 16 44  1  0
 16 45  1  0
 17 18  1  6
 17 19  1  0
 18 46  1  0
 19 20  1  1
 19 21  1  0
 19 22  1  0
 20 47  1  0
 20 48  1  0
 20 49  1  0
 21 50  1  6
 22 24  1  0
 22 28  1  0
 22 23  1  6
 23 24  1  0
 24 25  1  0
 24 51  1  6
 25 26  2  0
 25 27  1  0
 27 28  1  0
 28 52  1  6
M  END
>  <i_m_ct_stereo_status>  (194) 
1

>  <s_m_source_file>  (194) 
/var/tmp/pbs.5076255.sched01/tmpthapbt4w/86pc0xbys0.sdf

>  <i_m_source_file_index>  (194) 
2

>  <i_lp_mmshare_version>  (194) 
48012

>  <i_f3d_flags>  (194) 
0

>  <s_epik_input>  (194) 
TzFbQ0BIXTJDKD1PKU9bQ0BASF0zW0NASF0oW0NIM10pW0NAQEhdKFtDQEBIXShbT0hdKVtDSDJdNClbQ0BASF01W0NAQEhdNFtDQEhdKFtDQEBdNihbT0hdKVtDQF01KFtDQF0xMjMpW0NIM10pW0NAQEhdKFtPSF0pYzdjKFtDSDJdNilvW2NIXVtjSF03

>  <s_epik_cmdline>  (194) 
J2VwaWtfcHl0aG9uJywgJy1waHQnLCAnMi4wJywgJy1waCcsICc3LjAnLCAnLXRuJywgJzgnLCAnLW1hJywgJzIwMCcsICctaW1hZScsICc8aW5maWxlLm1hZT4nLCAnLW9tYWUnLCAnPG91dGZpbGUubWFlPic=

>  <r_lp_tautomer_probability>  (194) 
1

>  <r_epik_Ionization_Penalty>  (194) 
6.95489e-07

>  <r_epik_Ionization_Penalty_Charging>  (194) 
0

>  <r_epik_Ionization_Penalty_Neutral>  (194) 
6.95489e-07

>  <r_epik_State_Penalty>  (194) 
-0

>  <r_epik_Charging_Adjusted_Penalty>  (194) 
0

>  <i_epik_Tot_Q>  (194) 
0

>  <i_epik_Tot_abs_Q>  (194) 
0

>  <s_epik_Chemistry_Notes>  (194) 
This compound has an ester and may undergo hydrolysis at high or low pH.

>  <s_lp_Force_Field>  (194) 
OPLS3e

>  <r_lp_Energy>  (194) 
78.5257

>  <b_lp_Chiralities_Consistent>  (194) 
1

>  <s_lp_Variant>  (194) 
56:0-1

>  <s_i_glide_gridfile>  (194) 
pfpi4k_grid

>  <i_i_glide_lignum>  (194) 
2

>  <i_i_glide_rotatable_bonds>  (194) 
3

>  <r_i_docking_score>  (194) 
-2.79337

>  <r_i_glide_ligand_efficiency>  (194) 
-0.0997633

>  <r_i_glide_ligand_efficiency_sa>  (194) 
-0.30294

>  <r_i_glide_ligand_efficiency_ln>  (194) 
-0.644792

>  <r_i_glide_gscore>  (194) 
-2.79337

>  <r_i_glide_lipo>  (194) 
-0.0295019

>  <r_i_glide_hbond>  (194) 
-0.180078

>  <r_i_glide_metal>  (194) 
-0

>  <r_i_glide_rewards>  (194) 
-0.760834

>  <r_i_glide_evdw>  (194) 
-25.472

>  <r_i_glide_ecoul>  (194) 
-3.3286

>  <r_i_glide_erotb>  (194) 
0

>  <r_i_glide_esite>  (194) 
-0.0500666

>  <r_i_glide_emodel>  (194) 
-33.6182

>  <r_i_glide_energy>  (194) 
-28.8006

>  <r_i_glide_einternal>  (194) 
2.21659

>  <r_i_glide_intrahb_reward>  (194) 
-0

>  <i_i_glide_confnum>  (194) 
2

>  <i_i_glide_posenum>  (194) 
20

>  <r_i_glide_eff_state_penalty>  (194) 
0

>  <ligand_id>  (194) 
56

>  <original_smiles>  (194) 
CC1C2C(O)CC3C4C(O)c5ccoc5CC4(O)C(C)(C32)C23OC2C(=O)OC13

>  <smiles>  (194) 
[H]OC1([H])c2c(oc([H])c2[H])C([H])([H])C2(O[H])C1([H])C1([H])C([H])([H])C([H])(O[H])C3([H])C([H])(C([H])([H])[H])C4([H])OC(=O)C5([H])OC54C2(C([H])([H])[H])C13[H]

$$$$
60:0:0
     RDKit          3D

 70 77  0  0  1  0  0  0  0  0999 V2000
    0.8865    6.2317    3.7746 C   0  0  0  0  0  0  0  0  0  0  0  0
    1.6334    5.0582    4.4211 C   0  0  0  0  0  0  0  0  0  0  0  0
    1.0083    3.7298    4.1733 N   0  0  2  0  0  0  0  0  0  0  0  0
   -0.4627    3.5891    4.8840 C   0  0  1  0  0  0  0  0  0  0  0  0
   -1.6263    3.7072    3.9267 C   0  0  0  0  0  0  0  0  0  0  0  0
   -2.6110    2.8651    3.4909 C   0  0  0  0  0  0  0  0  0  0  0  0
   -3.3891    3.5761    2.5432 C   0  0  0  0  0  0  0  0  0  0  0  0
   -2.8449    4.8248    2.4939 C   0  0  0  0  0  0  0  0  0  0  0  0
   -1.7539    4.9086    3.2921 O   0  0  0  0  0  0  0  0  0  0  0  0
   -0.5532    2.3635    5.5932 O   0  0  0  0  0  0  0  0  0  0  0  0
   -0.1871    1.1900    4.8489 C   0  0  2  0  0  0  0  0  0  0  0  0
   -0.7149   -0.1281    5.4699 C   0  0  0  0  0  0  0  0  0  0  0  0
   -1.7860   -0.0758    6.0717 O   0  0  0  0  0  0  0  0  0  0  0  0
   -0.0367   -1.3452    5.3469 O   0  0  0  0  0  0  0  0  0  0  0  0
    1.2471   -1.7226    4.7697 C   0  0  1  0  0  0  0  0  0  0  0  0
    1.3878   -1.5539    3.2851 C   0  0  2  0  0  0  0  0  0  0  0  0
    2.4569   -2.5375    2.7227 C   0  0  1  0  0  0  0  0  0  0  0  0
    2.2327   -2.8467    1.3528 O   0  0  0  0  0  0  0  0  0  0  0  0
    2.9735   -3.9586    0.8583 C   0  0  0  0  0  0  0  0  0  0  0  0
    3.8273   -1.8191    2.8750 C   0  0  2  0  0  0  0  0  0  0  0  0
    3.8536   -1.5844    4.4934 C   0  0  0  0  0  0  0  0  0  0  0  0
    2.5169   -1.1265    5.3383 C   0  0  2  0  0  0  0  0  0  0  0  0
    2.6811   -1.7498    6.6002 O   0  0  0  0  0  0  0  0  0  0  0  0
    2.1431    0.3741    5.6189 C   0  0  1  0  0  0  0  0  0  0  0  0
    3.3270    0.9168    6.1920 O   0  0  0  0  0  0  0  0  0  0  0  0
    1.2843    1.2715    4.4811 C   0  0  2  0  0  0  0  0  0  0  0  0
    1.9113    2.6450    4.6368 C   0  0  1  0  0  0  0  0  0  0  0  0
    3.2238    2.4289    3.8344 C   0  0  0  0  0  0  0  0  0  0  0  0
    3.2902    0.8941    3.2786 C   0  0  2  0  0  0  0  0  0  0  0  0
    3.0661    0.7898    1.9800 C   0  0  1  0  0  0  0  0  0  0  0  0
    3.9908   -0.6039    1.7234 C   0  0  1  0  0  0  0  0  0  0  0  0
    5.3690   -0.2864    1.5924 O   0  0  0  0  0  0  0  0  0  0  0  0
    1.5027    1.0041    2.8208 C   0  0  2  0  0  0  0  0  0  0  0  0
    0.3388    1.4619    1.8909 C   0  0  0  0  0  0  0  0  0  0  0  0
   -0.7409    0.5539    1.8592 O   0  0  0  0  0  0  0  0  0  0  0  0
    1.9131   -0.2122    2.8184 C   0  0  2  0  0  0  0  0  0  0  0  0
    1.4668    7.1501    3.8951 H   0  0  0  0  0  0  0  0  0  0  0  0
   -0.0785    6.4202    4.2503 H   0  0  0  0  0  0  0  0  0  0  0  0
    0.7310    6.0802    2.7018 H   0  0  0  0  0  0  0  0  0  0  0  0
    2.6530    5.0723    4.0362 H   0  0  0  0  0  0  0  0  0  0  0  0
    1.7159    5.2312    5.4935 H   0  0  0  0  0  0  0  0  0  0  0  0
   -0.5633    4.3552    5.6551 H   0  0  0  0  0  0  0  0  0  0  0  0
   -2.7459    1.8304    3.7897 H   0  0  0  0  0  0  0  0  0  0  0  0
   -4.2431    3.2255    1.9833 H   0  0  0  0  0  0  0  0  0  0  0  0
   -3.0771    5.7153    1.9275 H   0  0  0  0  0  0  0  0  0  0  0  0
   -0.7909    1.2438    3.9675 H   0  0  0  0  0  0  0  0  0  0  0  0
    1.2770   -2.7979    4.9571 H   0  0  0  0  0  0  0  0  0  0  0  0
    0.4204   -1.7787    2.8451 H   0  0  0  0  0  0  0  0  0  0  0  0
    2.4184   -3.4688    3.2878 H   0  0  0  0  0  0  0  0  0  0  0  0
    2.7603   -4.1008   -0.2009 H   0  0  0  0  0  0  0  0  0  0  0  0
    2.6999   -4.8675    1.3862 H   0  0  0  0  0  0  0  0  0  0  0  0
    4.0422   -3.8074    0.9507 H   0  0  0  0  0  0  0  0  0  0  0  0
    4.6286   -2.5306    2.6647 H   0  0  0  0  0  0  0  0  0  0  0  0
    4.0852   -2.5819    4.8669 H   0  0  0  0  0  0  0  0  0  0  0  0
    4.7354   -1.0237    4.8103 H   0  0  0  0  0  0  0  0  0  0  0  0
    3.5149   -1.4930    6.9593 H   0  0  0  0  0  0  0  0  0  0  0  0
    1.5314    0.4006    6.5197 H   0  0  0  0  0  0  0  0  0  0  0  0
    3.4981    0.4427    6.9880 H   0  0  0  0  0  0  0  0  0  0  0  0
    2.1096    2.8707    5.6822 H   0  0  0  0  0  0  0  0  0  0  0  0
    3.3281    3.1547    3.0247 H   0  0  0  0  0  0  0  0  0  0  0  0
    4.0785    2.6202    4.4818 H   0  0  0  0  0  0  0  0  0  0  0  0
    4.2850    0.5577    3.5666 H   0  0  0  0  0  0  0  0  0  0  0  0
    3.4007    1.6589    1.4333 H   0  0  0  0  0  0  0  0  0  0  0  0
    3.7380   -1.0134    0.7471 H   0  0  0  0  0  0  0  0  0  0  0  0
    5.5019    0.1510    0.7657 H   0  0  0  0  0  0  0  0  0  0  0  0
   -0.0337    2.4562    2.1071 H   0  0  0  0  0  0  0  0  0  0  0  0
    0.6630    1.5208    0.8618 H   0  0  0  0  0  0  0  0  0  0  0  0
   -1.1081    0.6070    0.9803 H   0  0  0  0  0  0  0  0  0  0  0  0
    1.5413   -0.4865    1.7768 H   0  0  0  0  0  0  0  0  0  0  0  0
    0.9120    3.6368    3.1730 H   0  0  0  0  0  0  0  0  0  0  0  0
  1  2  1  0
  1 37  1  0
  1 38  1  0
  1 39  1  0
  2  3  1  0
  2 40  1  0
  2 41  1  0
  3 27  1  0
  3  4  1  0
  3 70  1  6
  4  5  1  0
  4 10  1  0
  4 42  1  1
  5  9  1  0
  5  6  2  0
  6  7  1  0
  6 43  1  0
  7  8  2  0
  7 44  1  0
  8  9  1  0
  8 45  1  0
 10 11  1  0
 11 26  1  0
 11 12  1  0
 11 46  1  6
 12 13  2  0
 12 14  1  0
 14 15  1  0
 15 22  1  0
 15 16  1  0
 15 47  1  6
 16 36  1  0
 16 17  1  0
 16 48  1  6
 17 18  1  0
 17 20  1  0
 17 49  1  1
 18 19  1  0
 19 50  1  0
 19 51  1  0
 19 52  1  0
 20 31  1  0
 20 21  1  0
 20 53  1  1
 21 22  1  0
 21 54  1  0
 21 55  1  0
 22 23  1  1
 22 24  1  0
 23 56  1  0
 24 25  1  0
 24 26  1  0
 24 57  1  1
 25 58  1  0
 26 33  1  6
 26 27  1  0
 27 28  1  0
 27 59  1  1
 28 29  1  0
 28 60  1  0
 28 61  1  0
 29 36  1  0
 29 30  1  0
 29 62  1  6
 30 31  1  0
 30 33  1  0
 30 63  1  6
 31 32  1  0
 31 64  1  6
 32 65  1  0
 33 34  1  6
 33 36  1  0
 34 35  1  0
 34 66  1  0
 34 67  1  0
 35 68  1  0
 36 69  1  6
M  CHG  1   3   1
M  END
>  <i_m_ct_stereo_status>  (195) 
1

>  <s_m_source_file>  (195) 
/var/tmp/pbs.5076255.sched01/tmpthapbt4w/86pc0xbys0.sdf

>  <i_m_source_file_index>  (195) 
6

>  <i_lp_mmshare_version>  (195) 
48012

>  <i_f3d_flags>  (195) 
0

>  <s_epik_input>  (195) 
bzFbY0hdW2NIXVtjSF1jMVtDQEBIXShPW0NASF0yW0NAXTM0NSlOKFtDSDJdW0NIM10pW0NAQEhdNFtDSDJdW0NAQEhdNltDQEBIXTdbQ0BAXTUoW0NIMl1bT0hdKVtDQEBIXTZbQ0BASF04W0NASF0oT0MyPU8pW0NAXShbT0hdKShbQ0BIXTNbT0hdKVtDSDJdW0NASF0oW0NAQEhdN1tPSF0pW0NAQEhdOE9bQ0gzXQ==

>  <s_epik_cmdline>  (195) 
J2VwaWtfcHl0aG9uJywgJy1waHQnLCAnMi4wJywgJy1waCcsICc3LjAnLCAnLXRuJywgJzgnLCAnLW1hJywgJzIwMCcsICctaW1hZScsICc8aW5maWxlLm1hZT4nLCAnLW9tYWUnLCAnPG91dGZpbGUubWFlPic=

>  <r_epik_Ionization_Penalty>  (195) 
0.0102002

>  <r_epik_Ionization_Penalty_Charging>  (195) 
0.0101849

>  <r_epik_Ionization_Penalty_Neutral>  (195) 
1.52649e-05

>  <r_epik_State_Penalty>  (195) 
0.00777528

>  <r_epik_Charging_Adjusted_Penalty>  (195) 
0.0179602

>  <i_epik_Tot_Q>  (195) 
1

>  <i_epik_Tot_abs_Q>  (195) 
1

>  <s_epik_Chemistry_Notes>  (195) 
This compound has an ester and may undergo hydrolysis at high or low pH. This compound contains an acetal/aminal-like group ( X-CH(R)-Y where X, Y are N, S, or O) that may be acid/base labile, releasing an aldehyde.

>  <s_lp_Force_Field>  (195) 
OPLS3e

>  <r_lp_Energy>  (195) 
431.634

>  <b_lp_Chiralities_Consistent>  (195) 
1

>  <s_lp_Variant>  (195) 
60:0-1

>  <s_i_glide_gridfile>  (195) 
pfpi4k_grid

>  <i_i_glide_lignum>  (195) 
6

>  <i_i_glide_rotatable_bonds>  (195) 
8

>  <r_i_docking_score>  (195) 
-3.19059

>  <r_i_glide_ligand_efficiency>  (195) 
-0.0886275

>  <r_i_glide_ligand_efficiency_sa>  (195) 
-0.292641

>  <r_i_glide_ligand_efficiency_ln>  (195) 
-0.6961

>  <r_i_glide_gscore>  (195) 
-3.19059

>  <r_i_glide_lipo>  (195) 
-0.20586

>  <r_i_glide_hbond>  (195) 
-0.67379

>  <r_i_glide_metal>  (195) 
-0

>  <r_i_glide_rewards>  (195) 
0

>  <r_i_glide_evdw>  (195) 
-18.9493

>  <r_i_glide_ecoul>  (195) 
-9.21448

>  <r_i_glide_erotb>  (195) 
0.11245

>  <r_i_glide_esite>  (195) 
-0.093752

>  <r_i_glide_emodel>  (195) 
-33.0179

>  <r_i_glide_energy>  (195) 
-28.1638

>  <r_i_glide_einternal>  (195) 
4.78579

>  <r_i_glide_intrahb_reward>  (195) 
-0

>  <i_i_glide_confnum>  (195) 
4

>  <i_i_glide_posenum>  (195) 
14

>  <r_i_glide_eff_state_penalty>  (195) 
0

>  <ligand_id>  (195) 
60

>  <original_smiles>  (195) 
CCN1C(c2ccco2)OC2C(=O)OC3C4C(OC)C5CC3(O)C(O)C23C1CC1C(C5O)C3(CO)C14

>  <smiles>  (195) 
[H]OC([H])([H])C12C3([H])C([H])(O[H])C4([H])C([H])([H])C5(O[H])C6([H])OC(=O)C7([H])OC([H])(c8oc([H])c([H])c8[H])[N+]([H])(C([H])([H])C([H])([H])[H])C([H])(C([H])([H])C3([H])C1([H])C6([H])C4([H])OC([H])([H])[H])C72C5([H])O[H]

$$$$
60:0:1
     RDKit          3D

 70 77  0  0  1  0  0  0  0  0999 V2000
    4.1866   -0.1431    6.3601 C   0  0  0  0  0  0  0  0  0  0  0  0
    3.5979   -1.5731    6.4840 C   0  0  0  0  0  0  0  0  0  0  0  0
    2.9313   -2.0954    5.2477 N   0  0  2  0  0  0  0  0  0  0  0  0
    1.5984   -3.0047    5.6144 C   0  0  1  0  0  0  0  0  0  0  0  0
    0.2845   -2.2751    5.4647 C   0  0  0  0  0  0  0  0  0  0  0  0
   -0.9979   -2.4979    5.9233 C   0  0  0  0  0  0  0  0  0  0  0  0
   -1.7982   -1.4672    5.3468 C   0  0  0  0  0  0  0  0  0  0  0  0
   -0.9456   -0.7073    4.6010 C   0  0  0  0  0  0  0  0  0  0  0  0
    0.3202   -1.1405    4.7375 O   0  0  0  0  0  0  0  0  0  0  0  0
    1.5925   -4.1850    4.8287 O   0  0  0  0  0  0  0  0  0  0  0  0
    1.8035   -4.0332    3.4142 C   0  0  2  0  0  0  0  0  0  0  0  0
    1.4466   -5.3340    2.6374 C   0  0  0  0  0  0  0  0  0  0  0  0
    0.5282   -6.0046    3.0781 O   0  0  0  0  0  0  0  0  0  0  0  0
    2.0744   -5.7046    1.4377 O   0  0  0  0  0  0  0  0  0  0  0  0
    3.2192   -5.1902    0.6982 C   0  0  1  0  0  0  0  0  0  0  0  0
    3.0781   -3.8043    0.1492 C   0  0  2  0  0  0  0  0  0  0  0  0
    4.0075   -3.5971   -1.0838 C   0  0  1  0  0  0  0  0  0  0  0  0
    3.5328   -2.5847   -1.9717 O   0  0  0  0  0  0  0  0  0  0  0  0
    2.4070   -2.9456   -2.7584 C   0  0  0  0  0  0  0  0  0  0  0  0
    5.4006   -3.1673   -0.5332 C   0  0  2  0  0  0  0  0  0  0  0  0
    5.7324   -4.4512    0.4300 C   0  0  0  0  0  0  0  0  0  0  0  0
    4.5790   -5.1736    1.3590 C   0  0  2  0  0  0  0  0  0  0  0  0
    4.9925   -6.5199    1.3712 O   0  0  0  0  0  0  0  0  0  0  0  0
    4.2676   -4.7712    2.8495 C   0  0  1  0  0  0  0  0  0  0  0  0
    5.5481   -4.8392    3.4872 O   0  0  0  0  0  0  0  0  0  0  0  0
    3.2074   -3.4795    3.1656 C   0  0  2  0  0  0  0  0  0  0  0  0
    3.8669   -2.8734    4.3914 C   0  0  1  0  0  0  0  0  0  0  0  0
    5.0237   -2.0866    3.6879 C   0  0  0  0  0  0  0  0  0  0  0  0
    4.9978   -2.3412    2.0858 C   0  0  2  0  0  0  0  0  0  0  0  0
    4.5612   -1.2849    1.4117 C   0  0  1  0  0  0  0  0  0  0  0  0
    5.3807   -1.5691   -0.0208 C   0  0  1  0  0  0  0  0  0  0  0  0
    6.7135   -1.0762    0.0718 O   0  0  0  0  0  0  0  0  0  0  0  0
    3.1552   -2.1322    2.1222 C   0  0  2  0  0  0  0  0  0  0  0  0
    1.8791   -1.2720    2.1717 C   0  0  0  0  0  0  0  0  0  0  0  0
    1.9332   -0.0639    1.4357 O   0  0  0  0  0  0  0  0  0  0  0  0
    3.5488   -2.6829    1.0400 C   0  0  2  0  0  0  0  0  0  0  0  0
    4.6968    0.0852    7.3039 H   0  0  0  0  0  0  0  0  0  0  0  0
    3.3866    0.5934    6.2127 H   0  0  0  0  0  0  0  0  0  0  0  0
    4.9372   -0.0121    5.5898 H   0  0  0  0  0  0  0  0  0  0  0  0
    4.3629   -2.2739    6.8266 H   0  0  0  0  0  0  0  0  0  0  0  0
    2.8659   -1.5470    7.2910 H   0  0  0  0  0  0  0  0  0  0  0  0
    1.6751   -3.3788    6.6340 H   0  0  0  0  0  0  0  0  0  0  0  0
   -1.3114   -3.3286    6.5643 H   0  0  0  0  0  0  0  0  0  0  0  0
   -2.8750   -1.2987    5.4120 H   0  0  0  0  0  0  0  0  0  0  0  0
   -1.0927    0.1249    3.9368 H   0  0  0  0  0  0  0  0  0  0  0  0
    1.0221   -3.3491    3.1151 H   0  0  0  0  0  0  0  0  0  0  0  0
    3.2903   -5.8524   -0.1627 H   0  0  0  0  0  0  0  0  0  0  0  0
    2.0340   -3.6665   -0.1162 H   0  0  0  0  0  0  0  0  0  0  0  0
    4.1384   -4.5295   -1.6270 H   0  0  0  0  0  0  0  0  0  0  0  0
    2.2002   -2.1460   -3.4683 H   0  0  0  0  0  0  0  0  0  0  0  0
    1.5091   -3.0864   -2.1584 H   0  0  0  0  0  0  0  0  0  0  0  0
    2.5927   -3.8485   -3.3333 H   0  0  0  0  0  0  0  0  0  0  0  0
    6.1024   -3.1846   -1.3642 H   0  0  0  0  0  0  0  0  0  0  0  0
    6.0172   -5.2178   -0.2850 H   0  0  0  0  0  0  0  0  0  0  0  0
    6.6643   -4.3238    0.9848 H   0  0  0  0  0  0  0  0  0  0  0  0
    5.7544   -6.5862    1.9276 H   0  0  0  0  0  0  0  0  0  0  0  0
    3.8374   -5.6302    3.3658 H   0  0  0  0  0  0  0  0  0  0  0  0
    6.1169   -4.2033    3.0781 H   0  0  0  0  0  0  0  0  0  0  0  0
    4.2519   -3.6621    5.0457 H   0  0  0  0  0  0  0  0  0  0  0  0
    4.9901   -1.0189    3.8620 H   0  0  0  0  0  0  0  0  0  0  0  0
    5.9423   -2.4546    4.1313 H   0  0  0  0  0  0  0  0  0  0  0  0
    6.0348   -2.5782    1.8304 H   0  0  0  0  0  0  0  0  0  0  0  0
    4.7811   -0.3224    1.8725 H   0  0  0  0  0  0  0  0  0  0  0  0
    4.9346   -0.9443   -0.8037 H   0  0  0  0  0  0  0  0  0  0  0  0
    7.0971   -1.4206    0.8777 H   0  0  0  0  0  0  0  0  0  0  0  0
    1.0001   -1.8342    1.8405 H   0  0  0  0  0  0  0  0  0  0  0  0
    1.8482   -0.9061    3.1626 H   0  0  0  0  0  0  0  0  0  0  0  0
    1.5103   -0.2003    0.5848 H   0  0  0  0  0  0  0  0  0  0  0  0
    3.0197   -1.9865    0.3188 H   0  0  0  0  0  0  0  0  0  0  0  0
    2.6429   -1.2935    4.7027 H   0  0  0  0  0  0  0  0  0  0  0  0
  1  2  1  0
  1 37  1  0
  1 38  1  0
  1 39  1  0
  2  3  1  0
  2 40  1  0
  2 41  1  0
  3 27  1  0
  3  4  1  0
  3 70  1  6
  4  5  1  0
  4 10  1  0
  4 42  1  1
  5  9  1  0
  5  6  2  0
  6  7  1  0
  6 43  1  0
  7  8  2  0
  7 44  1  0
  8  9  1  0
  8 45  1  0
 10 11  1  0
 11 26  1  0
 11 12  1  0
 11 46  1  6
 12 13  2  0
 12 14  1  0
 14 15  1  0
 15 22  1  0
 15 16  1  0
 15 47  1  6
 16 36  1  0
 16 17  1  0
 16 48  1  6
 17 18  1  0
 17 20  1  0
 17 49  1  6
 18 19  1  0
 19 50  1  0
 19 51  1  0
 19 52  1  0
 20 31  1  0
 20 21  1  0
 20 53  1  6
 21 22  1  0
 21 54  1  0
 21 55  1  0
 22 23  1  1
 22 24  1  0
 23 56  1  0
 24 25  1  0
 24 26  1  0
 24 57  1  1
 25 58  1  0
 26 33  1  6
 26 27  1  0
 27 28  1  0
 27 59  1  1
 28 29  1  0
 28 60  1  0
 28 61  1  0
 29 36  1  0
 29 30  1  0
 29 62  1  6
 30 31  1  0
 30 33  1  0
 30 63  1  1
 31 32  1  0
 31 64  1  6
 32 65  1  0
 33 34  1  6
 33 36  1  0
 34 35  1  0
 34 66  1  0
 34 67  1  0
 35 68  1  0
 36 69  1  6
M  CHG  1   3   1
M  END
>  <i_m_ct_stereo_status>  (196) 
1

>  <s_m_source_file>  (196) 
/var/tmp/pbs.5076255.sched01/tmpthapbt4w/86pc0xbys0.sdf

>  <i_m_source_file_index>  (196) 
6

>  <i_lp_mmshare_version>  (196) 
48012

>  <i_f3d_flags>  (196) 
0

>  <s_epik_input>  (196) 
bzFbY0hdW2NIXVtjSF1jMVtDQEBIXShPW0NASF0yW0NAXTM0NSlOKFtDSDJdW0NIM10pW0NAQEhdNFtDSDJdW0NAQEhdNltDQEBIXTdbQ0BAXTUoW0NIMl1bT0hdKVtDQEBIXTZbQ0BASF04W0NASF0oT0MyPU8pW0NAXShbT0hdKShbQ0BIXTNbT0hdKVtDSDJdW0NASF0oW0NAQEhdN1tPSF0pW0NAQEhdOE9bQ0gzXQ==

>  <s_epik_cmdline>  (196) 
J2VwaWtfcHl0aG9uJywgJy1waHQnLCAnMi4wJywgJy1waCcsICc3LjAnLCAnLXRuJywgJzgnLCAnLW1hJywgJzIwMCcsICctaW1hZScsICc8aW5maWxlLm1hZT4nLCAnLW9tYWUnLCAnPG91dGZpbGUubWFlPic=

>  <r_epik_Ionization_Penalty>  (196) 
0.0102002

>  <r_epik_Ionization_Penalty_Charging>  (196) 
0.0101849

>  <r_epik_Ionization_Penalty_Neutral>  (196) 
1.52649e-05

>  <r_epik_State_Penalty>  (196) 
0.00777528

>  <r_epik_Charging_Adjusted_Penalty>  (196) 
0.0179602

>  <i_epik_Tot_Q>  (196) 
1

>  <i_epik_Tot_abs_Q>  (196) 
1

>  <s_epik_Chemistry_Notes>  (196) 
This compound has an ester and may undergo hydrolysis at high or low pH. This compound contains an acetal/aminal-like group ( X-CH(R)-Y where X, Y are N, S, or O) that may be acid/base labile, releasing an aldehyde.

>  <s_lp_Force_Field>  (196) 
OPLS3e

>  <r_lp_Energy>  (196) 
431.634

>  <b_lp_Chiralities_Consistent>  (196) 
1

>  <s_lp_Variant>  (196) 
60:0-1

>  <s_i_glide_gridfile>  (196) 
pfpi4k_grid

>  <i_i_glide_lignum>  (196) 
6

>  <i_i_glide_rotatable_bonds>  (196) 
8

>  <r_i_docking_score>  (196) 
-3.00013

>  <r_i_glide_ligand_efficiency>  (196) 
-0.083337

>  <r_i_glide_ligand_efficiency_sa>  (196) 
-0.275173

>  <r_i_glide_ligand_efficiency_ln>  (196) 
-0.654548

>  <r_i_glide_gscore>  (196) 
-3.00013

>  <r_i_glide_lipo>  (196) 
-0.359134

>  <r_i_glide_hbond>  (196) 
-0.268629

>  <r_i_glide_metal>  (196) 
-0

>  <r_i_glide_rewards>  (196) 
0

>  <r_i_glide_evdw>  (196) 
-22.147

>  <r_i_glide_ecoul>  (196) 
-9.23164

>  <r_i_glide_erotb>  (196) 
0.160643

>  <r_i_glide_esite>  (196) 
-0.0409179

>  <r_i_glide_emodel>  (196) 
-34.4172

>  <r_i_glide_energy>  (196) 
-31.3786

>  <r_i_glide_einternal>  (196) 
4.34592

>  <r_i_glide_intrahb_reward>  (196) 
-0

>  <i_i_glide_confnum>  (196) 
2

>  <i_i_glide_posenum>  (196) 
10

>  <r_i_glide_eff_state_penalty>  (196) 
0

>  <ligand_id>  (196) 
60

>  <original_smiles>  (196) 
CCN1C(c2ccco2)OC2C(=O)OC3C4C(OC)C5CC3(O)C(O)C23C1CC1C(C5O)C3(CO)C14

>  <smiles>  (196) 
[H]OC([H])([H])C12C3([H])C([H])(O[H])C4([H])C([H])([H])C5(O[H])C6([H])OC(=O)C7([H])OC([H])(c8oc([H])c([H])c8[H])[N+]([H])(C([H])([H])C([H])([H])[H])C([H])(C([H])([H])C3([H])C1([H])C6([H])C4([H])OC([H])([H])[H])C72C5([H])O[H]

$$$$
60:0:2
     RDKit          3D

 70 77  0  0  1  0  0  0  0  0999 V2000
    4.3141   -0.4982    6.4800 C   0  0  0  0  0  0  0  0  0  0  0  0
    3.6870   -1.9124    6.5558 C   0  0  0  0  0  0  0  0  0  0  0  0
    2.9988   -2.3662    5.2974 N   0  0  2  0  0  0  0  0  0  0  0  0
    1.6640   -3.2669    5.6126 C   0  0  1  0  0  0  0  0  0  0  0  0
    0.3470   -2.5240    5.4881 C   0  0  0  0  0  0  0  0  0  0  0  0
   -0.8734   -2.6115    6.1099 C   0  0  0  0  0  0  0  0  0  0  0  0
   -1.6961   -1.6027    5.5170 C   0  0  0  0  0  0  0  0  0  0  0  0
   -0.9057   -0.9971    4.5847 C   0  0  0  0  0  0  0  0  0  0  0  0
    0.3171   -1.5422    4.5794 O   0  0  0  0  0  0  0  0  0  0  0  0
    1.6418   -4.4148    4.7772 O   0  0  0  0  0  0  0  0  0  0  0  0
    1.8377   -4.1904    3.3731 C   0  0  2  0  0  0  0  0  0  0  0  0
    1.4450   -5.4396    2.5290 C   0  0  0  0  0  0  0  0  0  0  0  0
    0.5105   -6.1165    2.9345 O   0  0  0  0  0  0  0  0  0  0  0  0
    2.0637   -5.7724    1.3138 O   0  0  0  0  0  0  0  0  0  0  0  0
    3.2080   -5.2266    0.5984 C   0  0  1  0  0  0  0  0  0  0  0  0
    3.0926   -3.8125    0.1189 C   0  0  2  0  0  0  0  0  0  0  0  0
    4.0256   -3.5632   -1.1098 C   0  0  1  0  0  0  0  0  0  0  0  0
    3.5658   -2.5039   -1.9499 O   0  0  0  0  0  0  0  0  0  0  0  0
    2.4456   -2.8216   -2.7634 C   0  0  0  0  0  0  0  0  0  0  0  0
    5.4299   -3.1936   -0.5455 C   0  0  2  0  0  0  0  0  0  0  0  0
    5.7356   -4.5328    0.3579 C   0  0  0  0  0  0  0  0  0  0  0  0
    4.5696   -5.2894    1.2494 C   0  0  2  0  0  0  0  0  0  0  0  0
    4.9528   -6.6483    1.1845 O   0  0  0  0  0  0  0  0  0  0  0  0
    4.2825   -4.9359    2.7625 C   0  0  1  0  0  0  0  0  0  0  0  0
    5.5584   -5.0521    3.4010 O   0  0  0  0  0  0  0  0  0  0  0  0
    3.2546   -3.6415    3.1444 C   0  0  2  0  0  0  0  0  0  0  0  0
    3.9333   -3.1056    4.3970 C   0  0  1  0  0  0  0  0  0  0  0  0
    5.1000   -2.2953    3.7364 C   0  0  0  0  0  0  0  0  0  0  0  0
    5.0591   -2.4725    2.1187 C   0  0  2  0  0  0  0  0  0  0  0  0
    4.6377   -1.3825    1.4996 C   0  0  1  0  0  0  0  0  0  0  0  0
    5.4437   -1.6204    0.0473 C   0  0  1  0  0  0  0  0  0  0  0  0
    6.7894   -1.1696    0.1431 O   0  0  0  0  0  0  0  0  0  0  0  0
    3.2169   -2.2386    2.1806 C   0  0  2  0  0  0  0  0  0  0  0  0
    1.9559   -1.3502    2.2904 C   0  0  0  0  0  0  0  0  0  0  0  0
    2.0112   -0.1240    1.5780 O   0  0  0  0  0  0  0  0  0  0  0  0
    3.5906   -2.7409    1.0579 C   0  0  2  0  0  0  0  0  0  0  0  0
    4.8358   -0.3137    7.4267 H   0  0  0  0  0  0  0  0  0  0  0  0
    3.5354    0.2661    6.3811 H   0  0  0  0  0  0  0  0  0  0  0  0
    5.0481   -0.3683    5.6925 H   0  0  0  0  0  0  0  0  0  0  0  0
    4.4419   -2.6429    6.8457 H   0  0  0  0  0  0  0  0  0  0  0  0
    2.9609   -1.9131    7.3650 H   0  0  0  0  0  0  0  0  0  0  0  0
    1.7420   -3.6831    6.6285 H   0  0  0  0  0  0  0  0  0  0  0  0
   -1.1538   -3.3179    6.8937 H   0  0  0  0  0  0  0  0  0  0  0  0
   -2.7388   -1.3533    5.6944 H   0  0  0  0  0  0  0  0  0  0  0  0
   -1.0730   -0.2202    3.8625 H   0  0  0  0  0  0  0  0  0  0  0  0
    1.0685   -3.4767    3.1128 H   0  0  0  0  0  0  0  0  0  0  0  0
    3.2578   -5.8436   -0.2975 H   0  0  0  0  0  0  0  0  0  0  0  0
    2.0501   -3.6458   -0.1425 H   0  0  0  0  0  0  0  0  0  0  0  0
    4.1346   -4.4627   -1.7092 H   0  0  0  0  0  0  0  0  0  0  0  0
    2.2371   -1.9815   -3.4264 H   0  0  0  0  0  0  0  0  0  0  0  0
    1.5455   -3.0031   -2.1779 H   0  0  0  0  0  0  0  0  0  0  0  0
    2.6370   -3.6964   -3.3847 H   0  0  0  0  0  0  0  0  0  0  0  0
    6.1253   -3.1867   -1.3832 H   0  0  0  0  0  0  0  0  0  0  0  0
    6.0103   -5.2701   -0.3856 H   0  0  0  0  0  0  0  0  0  0  0  0
    6.6686   -4.4462    0.9179 H   0  0  0  0  0  0  0  0  0  0  0  0
    4.3471   -7.1556    1.7043 H   0  0  0  0  0  0  0  0  0  0  0  0
    3.8401   -5.8104    3.2455 H   0  0  0  0  0  0  0  0  0  0  0  0
    6.1558   -4.4416    2.9915 H   0  0  0  0  0  0  0  0  0  0  0  0
    4.2962   -3.9241    5.0198 H   0  0  0  0  0  0  0  0  0  0  0  0
    5.0732   -1.2438    3.9879 H   0  0  0  0  0  0  0  0  0  0  0  0
    6.0313   -2.6723    4.1462 H   0  0  0  0  0  0  0  0  0  0  0  0
    6.0869   -2.7354    1.8452 H   0  0  0  0  0  0  0  0  0  0  0  0
    4.8799   -0.4467    2.0025 H   0  0  0  0  0  0  0  0  0  0  0  0
    5.0058   -0.9500   -0.6984 H   0  0  0  0  0  0  0  0  0  0  0  0
    7.1948   -1.6033    0.8819 H   0  0  0  0  0  0  0  0  0  0  0  0
    1.0586   -1.8745    1.9695 H   0  0  0  0  0  0  0  0  0  0  0  0
    1.9574   -0.9944    3.2936 H   0  0  0  0  0  0  0  0  0  0  0  0
    1.6331   -0.2458    0.7017 H   0  0  0  0  0  0  0  0  0  0  0  0
    3.0746   -2.0039    0.3786 H   0  0  0  0  0  0  0  0  0  0  0  0
    2.7156   -1.5319    4.7889 H   0  0  0  0  0  0  0  0  0  0  0  0
  1  2  1  0
  1 37  1  0
  1 38  1  0
  1 39  1  0
  2  3  1  0
  2 40  1  0
  2 41  1  0
  3 27  1  0
  3  4  1  0
  3 70  1  6
  4  5  1  0
  4 10  1  0
  4 42  1  1
  5  9  1  0
  5  6  2  0
  6  7  1  0
  6 43  1  0
  7  8  2  0
  7 44  1  0
  8  9  1  0
  8 45  1  0
 10 11  1  0
 11 26  1  0
 11 12  1  0
 11 46  1  6
 12 13  2  0
 12 14  1  0
 14 15  1  0
 15 22  1  0
 15 16  1  0
 15 47  1  6
 16 36  1  0
 16 17  1  0
 16 48  1  6
 17 18  1  0
 17 20  1  0
 17 49  1  6
 18 19  1  0
 19 50  1  0
 19 51  1  0
 19 52  1  0
 20 31  1  0
 20 21  1  0
 20 53  1  6
 21 22  1  0
 21 54  1  0
 21 55  1  0
 22 23  1  1
 22 24  1  0
 23 56  1  0
 24 25  1  0
 24 26  1  0
 24 57  1  1
 25 58  1  0
 26 33  1  6
 26 27  1  0
 27 28  1  0
 27 59  1  1
 28 29  1  0
 28 60  1  0
 28 61  1  0
 29 36  1  0
 29 30  1  0
 29 62  1  6
 30 31  1  0
 30 33  1  0
 30 63  1  1
 31 32  1  0
 31 64  1  6
 32 65  1  0
 33 34  1  6
 33 36  1  0
 34 35  1  0
 34 66  1  0
 34 67  1  0
 35 68  1  0
 36 69  1  6
M  CHG  1   3   1
M  END
>  <i_m_ct_stereo_status>  (197) 
1

>  <s_m_source_file>  (197) 
/var/tmp/pbs.5076255.sched01/tmpthapbt4w/86pc0xbys0.sdf

>  <i_m_source_file_index>  (197) 
6

>  <i_lp_mmshare_version>  (197) 
48012

>  <i_f3d_flags>  (197) 
0

>  <s_epik_input>  (197) 
bzFbY0hdW2NIXVtjSF1jMVtDQEBIXShPW0NASF0yW0NAXTM0NSlOKFtDSDJdW0NIM10pW0NAQEhdNFtDSDJdW0NAQEhdNltDQEBIXTdbQ0BAXTUoW0NIMl1bT0hdKVtDQEBIXTZbQ0BASF04W0NASF0oT0MyPU8pW0NAXShbT0hdKShbQ0BIXTNbT0hdKVtDSDJdW0NASF0oW0NAQEhdN1tPSF0pW0NAQEhdOE9bQ0gzXQ==

>  <s_epik_cmdline>  (197) 
J2VwaWtfcHl0aG9uJywgJy1waHQnLCAnMi4wJywgJy1waCcsICc3LjAnLCAnLXRuJywgJzgnLCAnLW1hJywgJzIwMCcsICctaW1hZScsICc8aW5maWxlLm1hZT4nLCAnLW9tYWUnLCAnPG91dGZpbGUubWFlPic=

>  <r_epik_Ionization_Penalty>  (197) 
0.0102002

>  <r_epik_Ionization_Penalty_Charging>  (197) 
0.0101849

>  <r_epik_Ionization_Penalty_Neutral>  (197) 
1.52649e-05

>  <r_epik_State_Penalty>  (197) 
0.00777528

>  <r_epik_Charging_Adjusted_Penalty>  (197) 
0.0179602

>  <i_epik_Tot_Q>  (197) 
1

>  <i_epik_Tot_abs_Q>  (197) 
1

>  <s_epik_Chemistry_Notes>  (197) 
This compound has an ester and may undergo hydrolysis at high or low pH. This compound contains an acetal/aminal-like group ( X-CH(R)-Y where X, Y are N, S, or O) that may be acid/base labile, releasing an aldehyde.

>  <s_lp_Force_Field>  (197) 
OPLS3e

>  <r_lp_Energy>  (197) 
431.634

>  <b_lp_Chiralities_Consistent>  (197) 
1

>  <s_lp_Variant>  (197) 
60:0-1

>  <s_i_glide_gridfile>  (197) 
pfpi4k_grid

>  <i_i_glide_lignum>  (197) 
6

>  <i_i_glide_rotatable_bonds>  (197) 
8

>  <r_i_docking_score>  (197) 
-2.89878

>  <r_i_glide_ligand_efficiency>  (197) 
-0.0805217

>  <r_i_glide_ligand_efficiency_sa>  (197) 
-0.265877

>  <r_i_glide_ligand_efficiency_ln>  (197) 
-0.632436

>  <r_i_glide_gscore>  (197) 
-2.89878

>  <r_i_glide_lipo>  (197) 
-0.333189

>  <r_i_glide_hbond>  (197) 
-0.27246

>  <r_i_glide_metal>  (197) 
-0

>  <r_i_glide_rewards>  (197) 
0

>  <r_i_glide_evdw>  (197) 
-23.0788

>  <r_i_glide_ecoul>  (197) 
-8.37043

>  <r_i_glide_erotb>  (197) 
0.160643

>  <r_i_glide_esite>  (197) 
-0.0442722

>  <r_i_glide_emodel>  (197) 
-34.4991

>  <r_i_glide_energy>  (197) 
-31.4492

>  <r_i_glide_einternal>  (197) 
4.05049

>  <r_i_glide_intrahb_reward>  (197) 
-0

>  <i_i_glide_confnum>  (197) 
2

>  <i_i_glide_posenum>  (197) 
3

>  <r_i_glide_eff_state_penalty>  (197) 
0

>  <ligand_id>  (197) 
60

>  <original_smiles>  (197) 
CCN1C(c2ccco2)OC2C(=O)OC3C4C(OC)C5CC3(O)C(O)C23C1CC1C(C5O)C3(CO)C14

>  <smiles>  (197) 
[H]OC([H])([H])C12C3([H])C([H])(O[H])C4([H])C([H])([H])C5(O[H])C6([H])OC(=O)C7([H])OC([H])(c8oc([H])c([H])c8[H])[N+]([H])(C([H])([H])C([H])([H])[H])C([H])(C([H])([H])C3([H])C1([H])C6([H])C4([H])OC([H])([H])[H])C72C5([H])O[H]

$$$$
60:1:0
     RDKit          3D

 69 76  0  0  1  0  0  0  0  0999 V2000
    6.6132   -4.1071    6.5599 C   0  0  0  0  0  0  0  0  0  0  0  0
    5.6254   -3.8851    5.4035 C   0  0  0  0  0  0  0  0  0  0  0  0
    4.3012   -4.4509    5.6635 N   0  0  0  0  0  0  0  0  0  0  0  0
    3.4968   -3.7665    6.6824 C   0  0  1  0  0  0  0  0  0  0  0  0
    2.8296   -2.5223    6.1521 C   0  0  0  0  0  0  0  0  0  0  0  0
    3.2897   -1.4093    5.4956 C   0  0  0  0  0  0  0  0  0  0  0  0
    2.1692   -0.5883    5.2235 C   0  0  0  0  0  0  0  0  0  0  0  0
    1.0880   -1.2548    5.7438 C   0  0  0  0  0  0  0  0  0  0  0  0
    1.4757   -2.4241    6.3166 O   0  0  0  0  0  0  0  0  0  0  0  0
    2.5301   -4.5979    7.3020 O   0  0  0  0  0  0  0  0  0  0  0  0
    1.8467   -5.4880    6.4154 C   0  0  2  0  0  0  0  0  0  0  0  0
    0.6328   -6.1806    7.0983 C   0  0  0  0  0  0  0  0  0  0  0  0
   -0.0443   -5.4972    7.8724 O   0  0  0  0  0  0  0  0  0  0  0  0
    0.2748   -7.5154    6.8575 O   0  0  0  0  0  0  0  0  0  0  0  0
    0.8477   -8.5724    6.0399 C   0  0  1  0  0  0  0  0  0  0  0  0
    0.8772   -8.2813    4.5705 C   0  0  2  0  0  0  0  0  0  0  0  0
    0.8437   -9.6128    3.7663 C   0  0  1  0  0  0  0  0  0  0  0  0
    0.2563   -9.4317    2.4818 O   0  0  0  0  0  0  0  0  0  0  0  0
   -1.1647   -9.3238    2.4949 C   0  0  0  0  0  0  0  0  0  0  0  0
    2.3309  -10.0763    3.6288 C   0  0  2  0  0  0  0  0  0  0  0  0
    2.7387  -10.1913    5.2211 C   0  0  0  0  0  0  0  0  0  0  0  0
    2.2317   -9.1008    6.3501 C   0  0  2  0  0  0  0  0  0  0  0  0
    2.1501   -9.8597    7.5589 O   0  0  0  0  0  0  0  0  0  0  0  0
    3.0270   -7.7932    6.7070 C   0  0  1  0  0  0  0  0  0  0  0  0
    4.2987   -8.3036    7.0925 O   0  0  0  0  0  0  0  0  0  0  0  0
    2.9097   -6.3947    5.7692 C   0  0  2  0  0  0  0  0  0  0  0  0
    4.3343   -5.8912    5.8656 C   0  0  1  0  0  0  0  0  0  0  0  0
    5.0228   -6.8201    4.8130 C   0  0  0  0  0  0  0  0  0  0  0  0
    3.9306   -7.8523    4.1957 C   0  0  2  0  0  0  0  0  0  0  0  0
    3.5486   -7.5649    2.9523 C   0  0  1  0  0  0  0  0  0  0  0  0
    3.1561   -9.1464    2.4904 C   0  0  1  0  0  0  0  0  0  0  0  0
    4.3333   -9.8372    2.0789 O   0  0  0  0  0  0  0  0  0  0  0  0
    2.6946   -6.4578    4.0793 C   0  0  2  0  0  0  0  0  0  0  0  0
    2.0011   -5.2192    3.3966 C   0  0  0  0  0  0  0  0  0  0  0  0
    2.7740   -4.0431    3.3441 O   0  0  0  0  0  0  0  0  0  0  0  0
    2.1384   -7.6232    4.0211 C   0  0  2  0  0  0  0  0  0  0  0  0
    7.5734   -3.6457    6.3435 H   0  0  0  0  0  0  0  0  0  0  0  0
    6.7958   -5.1695    6.7304 H   0  0  0  0  0  0  0  0  0  0  0  0
    6.2490   -3.6671    7.4885 H   0  0  0  0  0  0  0  0  0  0  0  0
    5.5462   -2.8234    5.1974 H   0  0  0  0  0  0  0  0  0  0  0  0
    6.0247   -4.2998    4.4766 H   0  0  0  0  0  0  0  0  0  0  0  0
    4.1221   -3.4554    7.5141 H   0  0  0  0  0  0  0  0  0  0  0  0
    4.3155   -1.1937    5.2248 H   0  0  0  0  0  0  0  0  0  0  0  0
    2.1452    0.3590    4.7111 H   0  0  0  0  0  0  0  0  0  0  0  0
    0.0383   -1.0424    5.7788 H   0  0  0  0  0  0  0  0  0  0  0  0
    1.3815   -4.8148    5.7137 H   0  0  0  0  0  0  0  0  0  0  0  0
    0.1445   -9.3931    6.1736 H   0  0  0  0  0  0  0  0  0  0  0  0
    0.0107   -7.6580    4.3562 H   0  0  0  0  0  0  0  0  0  0  0  0
    0.2807  -10.3869    4.2967 H   0  0  0  0  0  0  0  0  0  0  0  0
   -1.5290   -9.1500    1.4836 H   0  0  0  0  0  0  0  0  0  0  0  0
   -1.5265   -8.4973    3.1056 H   0  0  0  0  0  0  0  0  0  0  0  0
   -1.6161  -10.2406    2.8697 H   0  0  0  0  0  0  0  0  0  0  0  0
    2.3305  -11.0923    3.2232 H   0  0  0  0  0  0  0  0  0  0  0  0
    2.2729  -11.1309    5.5228 H   0  0  0  0  0  0  0  0  0  0  0  0
    3.7966  -10.4260    5.3611 H   0  0  0  0  0  0  0  0  0  0  0  0
    1.8166  -10.7533    7.3926 H   0  0  0  0  0  0  0  0  0  0  0  0
    2.7240   -7.4943    7.7082 H   0  0  0  0  0  0  0  0  0  0  0  0
    4.1310   -9.0325    7.6749 H   0  0  0  0  0  0  0  0  0  0  0  0
    4.7453   -6.0417    6.8645 H   0  0  0  0  0  0  0  0  0  0  0  0
    5.5358   -6.2754    4.0227 H   0  0  0  0  0  0  0  0  0  0  0  0
    5.8175   -7.3843    5.3069 H   0  0  0  0  0  0  0  0  0  0  0  0
    4.4272   -8.8183    4.2599 H   0  0  0  0  0  0  0  0  0  0  0  0
    4.3323   -7.0982    2.3617 H   0  0  0  0  0  0  0  0  0  0  0  0
    2.5583   -9.1110    1.5797 H   0  0  0  0  0  0  0  0  0  0  0  0
    4.1176  -10.6051    1.5514 H   0  0  0  0  0  0  0  0  0  0  0  0
    1.8083   -5.4264    2.3413 H   0  0  0  0  0  0  0  0  0  0  0  0
    1.0146   -5.0046    3.8088 H   0  0  0  0  0  0  0  0  0  0  0  0
    3.0712   -3.8403    4.2215 H   0  0  0  0  0  0  0  0  0  0  0  0
    1.5454   -7.4227    3.0753 H   0  0  0  0  0  0  0  0  0  0  0  0
  1  2  1  0
  1 37  1  0
  1 38  1  0
  1 39  1  0
  2  3  1  0
  2 40  1  0
  2 41  1  0
  3 27  1  0
  3  4  1  0
  4  5  1  0
  4 10  1  0
  4 42  1  1
  5  9  1  0
  5  6  2  0
  6  7  1  0
  6 43  1  0
  7  8  2  0
  7 44  1  0
  8  9  1  0
  8 45  1  0
 10 11  1  0
 11 26  1  0
 11 12  1  0
 11 46  1  6
 12 13  2  0
 12 14  1  0
 14 15  1  0
 15 22  1  0
 15 16  1  0
 15 47  1  6
 16 36  1  0
 16 17  1  0
 16 48  1  6
 17 18  1  0
 17 20  1  0
 17 49  1  1
 18 19  1  0
 19 50  1  0
 19 51  1  0
 19 52  1  0
 20 31  1  0
 20 21  1  0
 20 53  1  6
 21 22  1  0
 21 54  1  0
 21 55  1  0
 22 23  1  1
 22 24  1  0
 23 56  1  0
 24 25  1  0
 24 26  1  0
 24 57  1  1
 25 58  1  0
 26 33  1  6
 26 27  1  0
 27 28  1  0
 27 59  1  1
 28 29  1  0
 28 60  1  0
 28 61  1  0
 29 36  1  0
 29 30  1  0
 29 62  1  6
 30 31  1  0
 30 33  1  0
 30 63  1  6
 31 32  1  0
 31 64  1  6
 32 65  1  0
 33 34  1  6
 33 36  1  0
 34 35  1  0
 34 66  1  0
 34 67  1  0
 35 68  1  0
 36 69  1  6
M  END
>  <i_m_ct_stereo_status>  (198) 
1

>  <s_m_source_file>  (198) 
/var/tmp/pbs.5076255.sched01/tmpthapbt4w/86pc0xbys0.sdf

>  <i_m_source_file_index>  (198) 
7

>  <i_lp_mmshare_version>  (198) 
48012

>  <i_f3d_flags>  (198) 
0

>  <s_epik_input>  (198) 
bzFbY0hdW2NIXVtjSF1jMVtDQEBIXShPW0NASF0yW0NAXTM0NSlOKFtDSDJdW0NIM10pW0NAQEhdNFtDSDJdW0NAQEhdNltDQEBIXTdbQ0BAXTUoW0NIMl1bT0hdKVtDQEBIXTZbQ0BASF04W0NASF0oT0MyPU8pW0NAXShbT0hdKShbQ0BIXTNbT0hdKVtDSDJdW0NASF0oW0NAQEhdN1tPSF0pW0NAQEhdOE9bQ0gzXQ==

>  <s_epik_cmdline>  (198) 
J2VwaWtfcHl0aG9uJywgJy1waHQnLCAnMi4wJywgJy1waCcsICc3LjAnLCAnLXRuJywgJzgnLCAnLW1hJywgJzIwMCcsICctaW1hZScsICc8aW5maWxlLm1hZT4nLCAnLW9tYWUnLCAnPG91dGZpbGUubWFlPic=

>  <r_epik_Ionization_Penalty>  (198) 
2.4126

>  <r_epik_Ionization_Penalty_Charging>  (198) 
0

>  <r_epik_Ionization_Penalty_Neutral>  (198) 
2.4126

>  <r_epik_State_Penalty>  (198) 
2.57135

>  <r_epik_Charging_Adjusted_Penalty>  (198) 
2.57135

>  <i_epik_Tot_Q>  (198) 
0

>  <i_epik_Tot_abs_Q>  (198) 
0

>  <s_epik_Chemistry_Notes>  (198) 
This compound has an ester and may undergo hydrolysis at high or low pH. This compound contains an acetal/aminal-like group ( X-CH(R)-Y where X, Y are N, S, or O) that may be acid/base labile, releasing an aldehyde.

>  <s_lp_Force_Field>  (198) 
OPLS3e

>  <r_lp_Energy>  (198) 
434.516

>  <b_lp_Chiralities_Consistent>  (198) 
1

>  <s_lp_Variant>  (198) 
60:0-2

>  <s_i_glide_gridfile>  (198) 
pfpi4k_grid

>  <i_i_glide_lignum>  (198) 
7

>  <i_i_glide_rotatable_bonds>  (198) 
8

>  <r_i_docking_score>  (198) 
-2.71765

>  <r_i_glide_ligand_efficiency>  (198) 
-0.0754903

>  <r_i_glide_ligand_efficiency_sa>  (198) 
-0.249264

>  <r_i_glide_ligand_efficiency_ln>  (198) 
-0.592918

>  <r_i_glide_gscore>  (198) 
-2.71765

>  <r_i_glide_lipo>  (198) 
-0.240907

>  <r_i_glide_hbond>  (198) 
-0.152

>  <r_i_glide_metal>  (198) 
-0

>  <r_i_glide_rewards>  (198) 
-0.5

>  <r_i_glide_evdw>  (198) 
-16.9875

>  <r_i_glide_ecoul>  (198) 
-7.55921

>  <r_i_glide_erotb>  (198) 
0.161233

>  <r_i_glide_esite>  (198) 
-0.00272124

>  <r_i_glide_emodel>  (198) 
-33.6951

>  <r_i_glide_energy>  (198) 
-24.5467

>  <r_i_glide_einternal>  (198) 
5.30429

>  <r_i_glide_intrahb_reward>  (198) 
-0.5

>  <i_i_glide_confnum>  (198) 
3

>  <i_i_glide_posenum>  (198) 
15

>  <r_i_glide_eff_state_penalty>  (198) 
0

>  <ligand_id>  (198) 
60

>  <original_smiles>  (198) 
CCN1C(c2ccco2)OC2C(=O)OC3C4C(OC)C5CC3(O)C(O)C23C1CC1C(C5O)C3(CO)C14

>  <smiles>  (198) 
[H]OC([H])([H])C12C3([H])C([H])(O[H])C4([H])C([H])([H])C5(O[H])C6([H])OC(=O)C7([H])OC([H])(c8oc([H])c([H])c8[H])N(C([H])([H])C([H])([H])[H])C([H])(C([H])([H])C3([H])C1([H])C6([H])C4([H])OC([H])([H])[H])C72C5([H])O[H]

$$$$
60:1:1
     RDKit          3D

 69 76  0  0  1  0  0  0  0  0999 V2000
    1.0086  -11.4471    4.6943 C   0  0  0  0  0  0  0  0  0  0  0  0
    1.7325  -11.4279    3.3420 C   0  0  0  0  0  0  0  0  0  0  0  0
    2.3656  -10.1203    3.1242 N   0  0  0  0  0  0  0  0  0  0  0  0
    1.6968   -9.2784    2.1246 C   0  0  1  0  0  0  0  0  0  0  0  0
    0.4731   -8.5762    2.6433 C   0  0  0  0  0  0  0  0  0  0  0  0
   -0.8697   -8.8586    2.5878 C   0  0  0  0  0  0  0  0  0  0  0  0
   -1.5267   -7.8634    3.3660 C   0  0  0  0  0  0  0  0  0  0  0  0
   -0.5346   -7.0543    3.8523 C   0  0  0  0  0  0  0  0  0  0  0  0
    0.6700   -7.4460    3.3746 O   0  0  0  0  0  0  0  0  0  0  0  0
    2.5434   -8.3151    1.5136 O   0  0  0  0  0  0  0  0  0  0  0  0
    3.4859   -7.6976    2.3876 C   0  0  2  0  0  0  0  0  0  0  0  0
    4.1957   -6.4842    1.7282 C   0  0  0  0  0  0  0  0  0  0  0  0
    3.5122   -5.7738    0.9943 O   0  0  0  0  0  0  0  0  0  0  0  0
    5.5377   -6.1559    1.9772 O   0  0  0  0  0  0  0  0  0  0  0  0
    6.5878   -6.7817    2.7605 C   0  0  1  0  0  0  0  0  0  0  0  0
    6.3481   -6.8578    4.2382 C   0  0  2  0  0  0  0  0  0  0  0  0
    7.7021   -6.9103    5.0036 C   0  0  1  0  0  0  0  0  0  0  0  0
    7.5402   -6.3330    6.2964 O   0  0  0  0  0  0  0  0  0  0  0  0
    8.7530   -6.1217    7.0037 C   0  0  0  0  0  0  0  0  0  0  0  0
    8.1063   -8.4129    5.0640 C   0  0  2  0  0  0  0  0  0  0  0  0
    8.1721   -8.7521    3.4603 C   0  0  0  0  0  0  0  0  0  0  0  0
    7.0637   -8.1677    2.3823 C   0  0  2  0  0  0  0  0  0  0  0  0
    7.7804   -7.9278    1.1795 O   0  0  0  0  0  0  0  0  0  0  0  0
    5.7371   -8.9425    2.0007 C   0  0  1  0  0  0  0  0  0  0  0  0
    6.2002  -10.2365    1.5777 O   0  0  0  0  0  0  0  0  0  0  0  0
    4.3646   -8.8175    2.9796 C   0  0  2  0  0  0  0  0  0  0  0  0
    3.7876  -10.2220    2.8556 C   0  0  1  0  0  0  0  0  0  0  0  0
    4.7342  -10.9550    3.8690 C   0  0  0  0  0  0  0  0  0  0  0  0
    5.8073   -9.9111    4.4884 C   0  0  2  0  0  0  0  0  0  0  0  0
    5.5758   -9.5661    5.7465 C   0  0  1  0  0  0  0  0  0  0  0  0
    7.1657   -9.2418    6.1877 C   0  0  1  0  0  0  0  0  0  0  0  0
    7.8349  -10.4418    6.5509 O   0  0  0  0  0  0  0  0  0  0  0  0
    4.4580   -8.6437    4.6773 C   0  0  2  0  0  0  0  0  0  0  0  0
    3.2749   -7.9366    5.4456 C   0  0  0  0  0  0  0  0  0  0  0  0
    2.0822   -8.6550    5.6467 O   0  0  0  0  0  0  0  0  0  0  0  0
    5.6512   -8.1203    4.7349 C   0  0  2  0  0  0  0  0  0  0  0  0
    0.5368  -12.4131    4.8682 H   0  0  0  0  0  0  0  0  0  0  0  0
    0.2256  -10.6896    4.7416 H   0  0  0  0  0  0  0  0  0  0  0  0
    1.6935  -11.2803    5.5272 H   0  0  0  0  0  0  0  0  0  0  0  0
    2.4659  -12.2380    3.3352 H   0  0  0  0  0  0  0  0  0  0  0  0
    1.0214  -11.6589    2.5523 H   0  0  0  0  0  0  0  0  0  0  0  0
    1.3932   -9.9032    1.2858 H   0  0  0  0  0  0  0  0  0  0  0  0
   -1.2975   -9.7008    2.0656 H   0  0  0  0  0  0  0  0  0  0  0  0
   -2.5783   -7.7572    3.5818 H   0  0  0  0  0  0  0  0  0  0  0  0
   -0.5040   -6.2094    4.5166 H   0  0  0  0  0  0  0  0  0  0  0  0
    2.8959   -7.2064    3.1367 H   0  0  0  0  0  0  0  0  0  0  0  0
    7.4337   -6.1075    2.6202 H   0  0  0  0  0  0  0  0  0  0  0  0
    5.8086   -5.9566    4.5288 H   0  0  0  0  0  0  0  0  0  0  0  0
    8.4526   -6.3224    4.4690 H   0  0  0  0  0  0  0  0  0  0  0  0
    8.5424   -5.6053    7.9402 H   0  0  0  0  0  0  0  0  0  0  0  0
    9.4447   -5.5038    6.4302 H   0  0  0  0  0  0  0  0  0  0  0  0
    9.2452   -7.0621    7.2530 H   0  0  0  0  0  0  0  0  0  0  0  0
    9.1313   -8.4801    5.4397 H   0  0  0  0  0  0  0  0  0  0  0  0
    9.1179   -8.3026    3.1550 H   0  0  0  0  0  0  0  0  0  0  0  0
    8.3760   -9.8115    3.2869 H   0  0  0  0  0  0  0  0  0  0  0  0
    8.7168   -7.8599    1.3656 H   0  0  0  0  0  0  0  0  0  0  0  0
    5.4327   -8.5828    1.0183 H   0  0  0  0  0  0  0  0  0  0  0  0
    5.4708  -10.7264    1.2132 H   0  0  0  0  0  0  0  0  0  0  0  0
    3.8860  -10.6457    1.8523 H   0  0  0  0  0  0  0  0  0  0  0  0
    4.1717  -11.4707    4.6490 H   0  0  0  0  0  0  0  0  0  0  0  0
    5.2640  -11.7536    3.3450 H   0  0  0  0  0  0  0  0  0  0  0  0
    6.7651  -10.4317    4.3807 H   0  0  0  0  0  0  0  0  0  0  0  0
    5.0867  -10.3501    6.3235 H   0  0  0  0  0  0  0  0  0  0  0  0
    7.1733   -8.6723    7.1192 H   0  0  0  0  0  0  0  0  0  0  0  0
    7.8002  -11.0415    5.8232 H   0  0  0  0  0  0  0  0  0  0  0  0
    3.5711   -7.7492    6.4813 H   0  0  0  0  0  0  0  0  0  0  0  0
    3.0684   -6.9360    5.0661 H   0  0  0  0  0  0  0  0  0  0  0  0
    2.2786   -9.5742    5.7330 H   0  0  0  0  0  0  0  0  0  0  0  0
    5.4890   -7.5573    5.7029 H   0  0  0  0  0  0  0  0  0  0  0  0
  1  2  1  0
  1 37  1  0
  1 38  1  0
  1 39  1  0
  2  3  1  0
  2 40  1  0
  2 41  1  0
  3 27  1  0
  3  4  1  0
  4  5  1  0
  4 10  1  0
  4 42  1  6
  5  9  1  0
  5  6  2  0
  6  7  1  0
  6 43  1  0
  7  8  2  0
  7 44  1  0
  8  9  1  0
  8 45  1  0
 10 11  1  0
 11 26  1  0
 11 12  1  0
 11 46  1  1
 12 13  2  0
 12 14  1  0
 14 15  1  0
 15 22  1  0
 15 16  1  0
 15 47  1  1
 16 36  1  0
 16 17  1  0
 16 48  1  1
 17 18  1  0
 17 20  1  0
 17 49  1  6
 18 19  1  0
 19 50  1  0
 19 51  1  0
 19 52  1  0
 20 31  1  0
 20 21  1  0
 20 53  1  1
 21 22  1  0
 21 54  1  0
 21 55  1  0
 22 23  1  6
 22 24  1  0
 23 56  1  0
 24 25  1  0
 24 26  1  0
 24 57  1  6
 25 58  1  0
 26 33  1  1
 26 27  1  0
 27 28  1  0
 27 59  1  6
 28 29  1  0
 28 60  1  0
 28 61  1  0
 29 36  1  0
 29 30  1  0
 29 62  1  1
 30 31  1  0
 30 33  1  0
 30 63  1  1
 31 32  1  0
 31 64  1  1
 32 65  1  0
 33 34  1  1
 33 36  1  0
 34 35  1  0
 34 66  1  0
 34 67  1  0
 35 68  1  0
 36 69  1  1
M  END
>  <i_m_ct_stereo_status>  (199) 
1

>  <s_m_source_file>  (199) 
/var/tmp/pbs.5076255.sched01/tmpthapbt4w/86pc0xbys0.sdf

>  <i_m_source_file_index>  (199) 
7

>  <i_lp_mmshare_version>  (199) 
48012

>  <i_f3d_flags>  (199) 
0

>  <s_epik_input>  (199) 
bzFbY0hdW2NIXVtjSF1jMVtDQEBIXShPW0NASF0yW0NAXTM0NSlOKFtDSDJdW0NIM10pW0NAQEhdNFtDSDJdW0NAQEhdNltDQEBIXTdbQ0BAXTUoW0NIMl1bT0hdKVtDQEBIXTZbQ0BASF04W0NASF0oT0MyPU8pW0NAXShbT0hdKShbQ0BIXTNbT0hdKVtDSDJdW0NASF0oW0NAQEhdN1tPSF0pW0NAQEhdOE9bQ0gzXQ==

>  <s_epik_cmdline>  (199) 
J2VwaWtfcHl0aG9uJywgJy1waHQnLCAnMi4wJywgJy1waCcsICc3LjAnLCAnLXRuJywgJzgnLCAnLW1hJywgJzIwMCcsICctaW1hZScsICc8aW5maWxlLm1hZT4nLCAnLW9tYWUnLCAnPG91dGZpbGUubWFlPic=

>  <r_epik_Ionization_Penalty>  (199) 
2.4126

>  <r_epik_Ionization_Penalty_Charging>  (199) 
0

>  <r_epik_Ionization_Penalty_Neutral>  (199) 
2.4126

>  <r_epik_State_Penalty>  (199) 
2.57135

>  <r_epik_Charging_Adjusted_Penalty>  (199) 
2.57135

>  <i_epik_Tot_Q>  (199) 
0

>  <i_epik_Tot_abs_Q>  (199) 
0

>  <s_epik_Chemistry_Notes>  (199) 
This compound has an ester and may undergo hydrolysis at high or low pH. This compound contains an acetal/aminal-like group ( X-CH(R)-Y where X, Y are N, S, or O) that may be acid/base labile, releasing an aldehyde.

>  <s_lp_Force_Field>  (199) 
OPLS3e

>  <r_lp_Energy>  (199) 
434.516

>  <b_lp_Chiralities_Consistent>  (199) 
1

>  <s_lp_Variant>  (199) 
60:0-2

>  <s_i_glide_gridfile>  (199) 
pfpi4k_grid

>  <i_i_glide_lignum>  (199) 
7

>  <i_i_glide_rotatable_bonds>  (199) 
8

>  <r_i_docking_score>  (199) 
-2.70507

>  <r_i_glide_ligand_efficiency>  (199) 
-0.0751407

>  <r_i_glide_ligand_efficiency_sa>  (199) 
-0.248109

>  <r_i_glide_ligand_efficiency_ln>  (199) 
-0.590172

>  <r_i_glide_gscore>  (199) 
-2.70507

>  <r_i_glide_lipo>  (199) 
-0.256542

>  <r_i_glide_hbond>  (199) 
0

>  <r_i_glide_metal>  (199) 
-0

>  <r_i_glide_rewards>  (199) 
-0.14936

>  <r_i_glide_evdw>  (199) 
-27.7426

>  <r_i_glide_ecoul>  (199) 
-7.15511

>  <r_i_glide_erotb>  (199) 
0.161233

>  <r_i_glide_esite>  (199) 
0

>  <r_i_glide_emodel>  (199) 
-38.0936

>  <r_i_glide_energy>  (199) 
-34.8977

>  <r_i_glide_einternal>  (199) 
4.81407

>  <r_i_glide_intrahb_reward>  (199) 
-0

>  <i_i_glide_confnum>  (199) 
3

>  <i_i_glide_posenum>  (199) 
27

>  <r_i_glide_eff_state_penalty>  (199) 
0

>  <ligand_id>  (199) 
60

>  <original_smiles>  (199) 
CCN1C(c2ccco2)OC2C(=O)OC3C4C(OC)C5CC3(O)C(O)C23C1CC1C(C5O)C3(CO)C14

>  <smiles>  (199) 
[H]OC([H])([H])C12C3([H])C([H])(O[H])C4([H])C([H])([H])C5(O[H])C6([H])OC(=O)C7([H])OC([H])(c8oc([H])c([H])c8[H])N(C([H])([H])C([H])([H])[H])C([H])(C([H])([H])C3([H])C1([H])C6([H])C4([H])OC([H])([H])[H])C72C5([H])O[H]

$$$$
60:1:2
     RDKit          3D

 69 76  0  0  1  0  0  0  0  0999 V2000
    6.1891   -5.8006    1.0973 C   0  0  0  0  0  0  0  0  0  0  0  0
    6.2621   -5.1890    2.5157 C   0  0  0  0  0  0  0  0  0  0  0  0
    4.9437   -4.9065    3.0797 N   0  0  0  0  0  0  0  0  0  0  0  0
    4.8293   -3.5873    3.7172 C   0  0  1  0  0  0  0  0  0  0  0  0
    4.6395   -2.4649    2.7189 C   0  0  0  0  0  0  0  0  0  0  0  0
    5.3960   -1.4111    2.3243 C   0  0  0  0  0  0  0  0  0  0  0  0
    4.6659   -0.7477    1.2825 C   0  0  0  0  0  0  0  0  0  0  0  0
    3.5147   -1.4567    1.1348 C   0  0  0  0  0  0  0  0  0  0  0  0
    3.4743   -2.4925    2.0072 O   0  0  0  0  0  0  0  0  0  0  0  0
    3.7992   -3.4860    4.6859 O   0  0  0  0  0  0  0  0  0  0  0  0
    2.6076   -4.2154    4.3874 C   0  0  2  0  0  0  0  0  0  0  0  0
    1.4436   -3.8799    5.3664 C   0  0  0  0  0  0  0  0  0  0  0  0
    1.3358   -2.7182    5.7458 O   0  0  0  0  0  0  0  0  0  0  0  0
    0.5075   -4.8437    5.7791 O   0  0  0  0  0  0  0  0  0  0  0  0
    0.3644   -6.2735    5.5492 C   0  0  1  0  0  0  0  0  0  0  0  0
    0.1155   -6.6682    4.1303 C   0  0  2  0  0  0  0  0  0  0  0  0
   -0.6382   -8.0255    4.0430 C   0  0  1  0  0  0  0  0  0  0  0  0
   -1.3924   -8.0657    2.8299 O   0  0  0  0  0  0  0  0  0  0  0  0
   -2.0105   -9.3145    2.5380 C   0  0  0  0  0  0  0  0  0  0  0  0
    0.4565   -9.1370    4.1048 C   0  0  2  0  0  0  0  0  0  0  0  0
    1.1556   -8.7717    5.5463 C   0  0  0  0  0  0  0  0  0  0  0  0
    1.4434   -7.2184    6.0175 C   0  0  2  0  0  0  0  0  0  0  0  0
    1.2834   -7.2855    7.4184 O   0  0  0  0  0  0  0  0  0  0  0  0
    2.7870   -6.4401    5.7153 C   0  0  1  0  0  0  0  0  0  0  0  0
    3.7814   -7.2993    6.2685 O   0  0  0  0  0  0  0  0  0  0  0  0
    3.0159   -5.6934    4.2277 C   0  0  2  0  0  0  0  0  0  0  0  0
    4.4959   -5.9474    3.9924 C   0  0  1  0  0  0  0  0  0  0  0  0
    4.4191   -7.4478    3.5583 C   0  0  0  0  0  0  0  0  0  0  0  0
    2.8809   -7.9455    3.5242 C   0  0  2  0  0  0  0  0  0  0  0  0
    2.3736   -8.0355    2.3006 C   0  0  1  0  0  0  0  0  0  0  0  0
    1.2820   -9.2532    2.6385 C   0  0  1  0  0  0  0  0  0  0  0  0
    1.9029  -10.5158    2.5734 O   0  0  0  0  0  0  0  0  0  0  0  0
    2.3524   -6.3238    2.7959 C   0  0  2  0  0  0  0  0  0  0  0  0
    2.1470   -5.3082    1.6327 C   0  0  0  0  0  0  0  0  0  0  0  0
    1.6139   -5.8677    0.4497 O   0  0  0  0  0  0  0  0  0  0  0  0
    1.3621   -6.9732    3.3086 C   0  0  2  0  0  0  0  0  0  0  0  0
    7.1950   -5.9902    0.7172 H   0  0  0  0  0  0  0  0  0  0  0  0
    5.6784   -5.1211    0.4127 H   0  0  0  0  0  0  0  0  0  0  0  0
    5.6672   -6.7515    1.0089 H   0  0  0  0  0  0  0  0  0  0  0  0
    6.8481   -5.7955    3.2061 H   0  0  0  0  0  0  0  0  0  0  0  0
    6.8066   -4.2561    2.4066 H   0  0  0  0  0  0  0  0  0  0  0  0
    5.7435   -3.3699    4.2735 H   0  0  0  0  0  0  0  0  0  0  0  0
    6.3680   -1.1426    2.7223 H   0  0  0  0  0  0  0  0  0  0  0  0
    4.9385    0.1247    0.7136 H   0  0  0  0  0  0  0  0  0  0  0  0
    2.6495   -1.3741    0.4875 H   0  0  0  0  0  0  0  0  0  0  0  0
    2.2551   -3.7627    3.4752 H   0  0  0  0  0  0  0  0  0  0  0  0
   -0.5494   -6.5171    6.1001 H   0  0  0  0  0  0  0  0  0  0  0  0
   -0.4899   -5.8807    3.6798 H   0  0  0  0  0  0  0  0  0  0  0  0
   -1.3389   -8.1259    4.8772 H   0  0  0  0  0  0  0  0  0  0  0  0
   -2.6701   -9.2156    1.6815 H   0  0  0  0  0  0  0  0  0  0  0  0
   -2.5873   -9.6609    3.3812 H   0  0  0  0  0  0  0  0  0  0  0  0
   -1.3139  -10.1169    2.3037 H   0  0  0  0  0  0  0  0  0  0  0  0
   -0.0331  -10.0946    4.2542 H   0  0  0  0  0  0  0  0  0  0  0  0
    0.4309   -9.1538    6.2706 H   0  0  0  0  0  0  0  0  0  0  0  0
    2.0097   -9.4126    5.7637 H   0  0  0  0  0  0  0  0  0  0  0  0
    1.9975   -7.8134    7.7475 H   0  0  0  0  0  0  0  0  0  0  0  0
    2.8853   -5.6534    6.4614 H   0  0  0  0  0  0  0  0  0  0  0  0
    3.8014   -8.1034    5.7666 H   0  0  0  0  0  0  0  0  0  0  0  0
    5.0873   -5.8401    4.9015 H   0  0  0  0  0  0  0  0  0  0  0  0
    4.9035   -7.7114    2.6259 H   0  0  0  0  0  0  0  0  0  0  0  0
    4.9822   -8.0486    4.2702 H   0  0  0  0  0  0  0  0  0  0  0  0
    2.9383   -8.9092    4.0040 H   0  0  0  0  0  0  0  0  0  0  0  0
    3.0887   -8.2644    1.5277 H   0  0  0  0  0  0  0  0  0  0  0  0
    0.5904   -9.2707    1.8054 H   0  0  0  0  0  0  0  0  0  0  0  0
    2.5571  -10.6039    3.2519 H   0  0  0  0  0  0  0  0  0  0  0  0
    1.4179   -4.5453    1.8995 H   0  0  0  0  0  0  0  0  0  0  0  0
    3.0695   -4.8065    1.3469 H   0  0  0  0  0  0  0  0  0  0  0  0
    2.3283   -6.2640   -0.0325 H   0  0  0  0  0  0  0  0  0  0  0  0
    0.6965   -6.9233    2.3973 H   0  0  0  0  0  0  0  0  0  0  0  0
  1  2  1  0
  1 37  1  0
  1 38  1  0
  1 39  1  0
  2  3  1  0
  2 40  1  0
  2 41  1  0
  3 27  1  0
  3  4  1  0
  4  5  1  0
  4 10  1  0
  4 42  1  1
  5  9  1  0
  5  6  2  0
  6  7  1  0
  6 43  1  0
  7  8  2  0
  7 44  1  0
  8  9  1  0
  8 45  1  0
 10 11  1  0
 11 26  1  0
 11 12  1  0
 11 46  1  6
 12 13  2  0
 12 14  1  0
 14 15  1  0
 15 22  1  0
 15 16  1  0
 15 47  1  1
 16 36  1  0
 16 17  1  0
 16 48  1  6
 17 18  1  0
 17 20  1  0
 17 49  1  1
 18 19  1  0
 19 50  1  0
 19 51  1  0
 19 52  1  0
 20 31  1  0
 20 21  1  0
 20 53  1  1
 21 22  1  0
 21 54  1  0
 21 55  1  0
 22 23  1  1
 22 24  1  0
 23 56  1  0
 24 25  1  0
 24 26  1  0
 24 57  1  1
 25 58  1  0
 26 33  1  6
 26 27  1  0
 27 28  1  0
 27 59  1  1
 28 29  1  0
 28 60  1  0
 28 61  1  0
 29 36  1  0
 29 30  1  0
 29 62  1  1
 30 31  1  0
 30 33  1  0
 30 63  1  6
 31 32  1  0
 31 64  1  6
 32 65  1  0
 33 34  1  6
 33 36  1  0
 34 35  1  0
 34 66  1  0
 34 67  1  0
 35 68  1  0
 36 69  1  6
M  END
>  <i_m_ct_stereo_status>  (200) 
1

>  <s_m_source_file>  (200) 
/var/tmp/pbs.5076255.sched01/tmpthapbt4w/86pc0xbys0.sdf

>  <i_m_source_file_index>  (200) 
7

>  <i_lp_mmshare_version>  (200) 
48012

>  <i_f3d_flags>  (200) 
0

>  <s_epik_input>  (200) 
bzFbY0hdW2NIXVtjSF1jMVtDQEBIXShPW0NASF0yW0NAXTM0NSlOKFtDSDJdW0NIM10pW0NAQEhdNFtDSDJdW0NAQEhdNltDQEBIXTdbQ0BAXTUoW0NIMl1bT0hdKVtDQEBIXTZbQ0BASF04W0NASF0oT0MyPU8pW0NAXShbT0hdKShbQ0BIXTNbT0hdKVtDSDJdW0NASF0oW0NAQEhdN1tPSF0pW0NAQEhdOE9bQ0gzXQ==

>  <s_epik_cmdline>  (200) 
J2VwaWtfcHl0aG9uJywgJy1waHQnLCAnMi4wJywgJy1waCcsICc3LjAnLCAnLXRuJywgJzgnLCAnLW1hJywgJzIwMCcsICctaW1hZScsICc8aW5maWxlLm1hZT4nLCAnLW9tYWUnLCAnPG91dGZpbGUubWFlPic=

>  <r_epik_Ionization_Penalty>  (200) 
2.4126

>  <r_epik_Ionization_Penalty_Charging>  (200) 
0

>  <r_epik_Ionization_Penalty_Neutral>  (200) 
2.4126

>  <r_epik_State_Penalty>  (200) 
2.57135

>  <r_epik_Charging_Adjusted_Penalty>  (200) 
2.57135

>  <i_epik_Tot_Q>  (200) 
0

>  <i_epik_Tot_abs_Q>  (200) 
0

>  <s_epik_Chemistry_Notes>  (200) 
This compound has an ester and may undergo hydrolysis at high or low pH. This compound contains an acetal/aminal-like group ( X-CH(R)-Y where X, Y are N, S, or O) that may be acid/base labile, releasing an aldehyde.

>  <s_lp_Force_Field>  (200) 
OPLS3e

>  <r_lp_Energy>  (200) 
434.516

>  <b_lp_Chiralities_Consistent>  (200) 
1

>  <s_lp_Variant>  (200) 
60:0-2

>  <s_i_glide_gridfile>  (200) 
pfpi4k_grid

>  <i_i_glide_lignum>  (200) 
7

>  <i_i_glide_rotatable_bonds>  (200) 
8

>  <r_i_docking_score>  (200) 
-2.58812

>  <r_i_glide_ligand_efficiency>  (200) 
-0.0718923

>  <r_i_glide_ligand_efficiency_sa>  (200) 
-0.237383

>  <r_i_glide_ligand_efficiency_ln>  (200) 
-0.564658

>  <r_i_glide_gscore>  (200) 
-2.58812

>  <r_i_glide_lipo>  (200) 
-0.607542

>  <r_i_glide_hbond>  (200) 
-0.123003

>  <r_i_glide_metal>  (200) 
-0

>  <r_i_glide_rewards>  (200) 
-0.0360762

>  <r_i_glide_evdw>  (200) 
-24.2556

>  <r_i_glide_ecoul>  (200) 
-5.13303

>  <r_i_glide_erotb>  (200) 
0.161233

>  <r_i_glide_esite>  (200) 
0

>  <r_i_glide_emodel>  (200) 
-33.0876

>  <r_i_glide_energy>  (200) 
-29.3886

>  <r_i_glide_einternal>  (200) 
3.21083

>  <r_i_glide_intrahb_reward>  (200) 
-0

>  <i_i_glide_confnum>  (200) 
1

>  <i_i_glide_posenum>  (200) 
12

>  <r_i_glide_eff_state_penalty>  (200) 
0

>  <ligand_id>  (200) 
60

>  <original_smiles>  (200) 
CCN1C(c2ccco2)OC2C(=O)OC3C4C(OC)C5CC3(O)C(O)C23C1CC1C(C5O)C3(CO)C14

>  <smiles>  (200) 
[H]OC([H])([H])C12C3([H])C([H])(O[H])C4([H])C([H])([H])C5(O[H])C6([H])OC(=O)C7([H])OC([H])(c8oc([H])c([H])c8[H])N(C([H])([H])C([H])([H])[H])C([H])(C([H])([H])C3([H])C1([H])C6([H])C4([H])OC([H])([H])[H])C72C5([H])O[H]

$$$$
61:0:0
     RDKit          3D

 55 59  0  0  1  0  0  0  0  0999 V2000
    4.2602   -4.9280    6.7102 C   0  0  0  0  0  0  0  0  0  0  0  0
    5.1582   -3.8964    6.3234 O   0  0  0  0  0  0  0  0  0  0  0  0
    4.6856   -2.9741    5.4166 C   0  0  0  0  0  0  0  0  0  0  0  0
    4.2375   -3.2983    4.1825 C   0  0  0  0  0  0  0  0  0  0  0  0
    4.3536   -4.6317    3.4818 C   0  0  0  0  0  0  0  0  0  0  0  0
    5.0398   -4.2295    2.1730 C   0  0  1  0  0  0  0  0  0  0  0  0
    5.0529   -5.2688    0.9830 C   0  0  1  0  0  0  0  0  0  0  0  0
    4.2280   -6.5569    1.1954 C   0  0  0  0  0  0  0  0  0  0  0  0
    4.8130   -4.6973   -0.4453 C   0  0  0  0  0  0  0  0  0  0  0  0
    5.0798   -3.1870   -0.5088 C   0  0  1  0  0  0  0  0  0  0  0  0
    6.6073   -2.9190   -0.3096 C   0  0  0  0  0  0  0  0  0  0  0  0
    4.7333   -2.4236   -1.7864 C   0  0  0  0  0  0  0  0  0  0  0  0
    4.8142   -2.8851   -2.9265 O   0  0  0  0  0  0  0  0  0  0  0  0
    4.3830   -1.0611   -1.3851 C   0  0  0  0  0  0  0  0  0  0  0  0
    4.1289   -1.0662   -0.0662 C   0  0  0  0  0  0  0  0  0  0  0  0
    4.1283   -2.4755    0.4998 C   0  0  1  0  0  0  0  0  0  0  0  0
    2.6467   -2.9443    0.4081 C   0  0  0  0  0  0  0  0  0  0  0  0
    4.6780   -2.7119    1.9266 C   0  0  1  0  0  0  0  0  0  0  0  0
    3.7789   -2.3200    3.1249 C   0  0  2  0  0  0  0  0  0  0  0  0
    3.8277   -0.8653    3.5801 C   0  0  0  0  0  0  0  0  0  0  0  0
    2.9043    0.0194    3.1521 C   0  0  0  0  0  0  0  0  0  0  0  0
    2.8017    1.4650    3.6100 C   0  0  0  0  0  0  0  0  0  0  0  0
    3.8099    1.7880    4.6955 C   0  0  0  0  0  0  0  0  0  0  0  0
    4.7216    0.9130    5.1582 C   0  0  0  0  0  0  0  0  0  0  0  0
    4.8661   -0.5216    4.6508 C   0  0  1  0  0  0  0  0  0  0  0  0
    4.7990   -1.5499    5.7997 C   0  0  0  0  0  0  0  0  0  0  0  0
    4.9295   -1.1838    6.9716 O   0  0  0  0  0  0  0  0  0  0  0  0
    4.7721   -5.6100    7.3904 H   0  0  0  0  0  0  0  0  0  0  0  0
    3.8817   -5.5262    5.8874 H   0  0  0  0  0  0  0  0  0  0  0  0
    3.4129   -4.4973    7.2377 H   0  0  0  0  0  0  0  0  0  0  0  0
    4.9496   -5.3733    4.0174 H   0  0  0  0  0  0  0  0  0  0  0  0
    3.3448   -5.0209    3.3156 H   0  0  0  0  0  0  0  0  0  0  0  0
    6.0855   -4.1794    2.4776 H   0  0  0  0  0  0  0  0  0  0  0  0
    6.0843   -5.6268    0.9612 H   0  0  0  0  0  0  0  0  0  0  0  0
    3.1578   -6.3613    1.2194 H   0  0  0  0  0  0  0  0  0  0  0  0
    4.5014   -7.0721    2.1160 H   0  0  0  0  0  0  0  0  0  0  0  0
    4.4101   -7.2531    0.3774 H   0  0  0  0  0  0  0  0  0  0  0  0
    5.4398   -5.2230   -1.1567 H   0  0  0  0  0  0  0  0  0  0  0  0
    3.8032   -4.9236   -0.7753 H   0  0  0  0  0  0  0  0  0  0  0  0
    7.0173   -3.3093    0.6194 H   0  0  0  0  0  0  0  0  0  0  0  0
    6.8538   -1.8568   -0.3234 H   0  0  0  0  0  0  0  0  0  0  0  0
    7.1937   -3.3835   -1.1034 H   0  0  0  0  0  0  0  0  0  0  0  0
    4.3867   -0.2036   -2.0436 H   0  0  0  0  0  0  0  0  0  0  0  0
    3.8791   -0.1971    0.5252 H   0  0  0  0  0  0  0  0  0  0  0  0
    2.4819   -3.9142    0.8804 H   0  0  0  0  0  0  0  0  0  0  0  0
    2.3030   -3.0162   -0.6253 H   0  0  0  0  0  0  0  0  0  0  0  0
    1.9867   -2.2227    0.8905 H   0  0  0  0  0  0  0  0  0  0  0  0
    5.6003   -2.1389    2.0392 H   0  0  0  0  0  0  0  0  0  0  0  0
    2.7339   -2.5786    2.9502 H   0  0  0  0  0  0  0  0  0  0  0  0
    2.1651   -0.2858    2.4260 H   0  0  0  0  0  0  0  0  0  0  0  0
    2.9720    2.1202    2.7506 H   0  0  0  0  0  0  0  0  0  0  0  0
    1.7918    1.6557    3.9852 H   0  0  0  0  0  0  0  0  0  0  0  0
    3.7784    2.8044    5.0747 H   0  0  0  0  0  0  0  0  0  0  0  0
    5.4109    1.2249    5.9295 H   0  0  0  0  0  0  0  0  0  0  0  0
    5.8517   -0.5993    4.1937 H   0  0  0  0  0  0  0  0  0  0  0  0
  1  2  1  0
  1 28  1  0
  1 29  1  0
  1 30  1  0
  2  3  1  0
  3 26  1  0
  3  4  2  0
  4 19  1  0
  4  5  1  0
  5  6  1  0
  5 31  1  0
  5 32  1  0
  6 18  1  0
  6  7  1  0
  6 33  1  1
  7  8  1  0
  7  9  1  0
  7 34  1  6
  8 35  1  0
  8 36  1  0
  8 37  1  0
  9 10  1  0
  9 38  1  0
  9 39  1  0
 10 16  1  0
 10 11  1  1
 10 12  1  0
 11 40  1  0
 11 41  1  0
 11 42  1  0
 12 13  2  0
 12 14  1  0
 14 15  2  0
 14 43  1  0
 15 16  1  0
 15 44  1  0
 16 17  1  1
 16 18  1  0
 17 45  1  0
 17 46  1  0
 17 47  1  0
 18 19  1  0
 18 48  1  6
 19 20  1  0
 19 49  1  6
 20 25  1  0
 20 21  2  0
 21 22  1  0
 21 50  1  0
 22 23  1  0
 22 51  1  0
 22 52  1  0
 23 24  2  0
 23 53  1  0
 24 25  1  0
 24 54  1  0
 25 26  1  0
 25 55  1  6
 26 27  2  0
M  END
>  <i_m_ct_stereo_status>  (201) 
1

>  <s_m_source_file>  (201) 
/var/tmp/pbs.5076255.sched01/tmpthapbt4w/86pc0xbys0.sdf

>  <i_m_source_file_index>  (201) 
8

>  <i_lp_mmshare_version>  (201) 
48012

>  <i_f3d_flags>  (201) 
0

>  <s_epik_input>  (201) 
W0NIM11PQz0xQyg9TylbQ0BIXShbQ0hdPVtDSF1bQ0gyXVtDSF0yKUM9MltDQEBIXTNDMVtDSDJdW0NAQEhdKFtDQEBIXShbQ0gzXSlbQ0gyXTQpW0NASF0zW0NAXShbQ0gzXSkoW0NAQF00NVtDSDNdKVtDSF09W0NIXUM1PU8=

>  <s_epik_cmdline>  (201) 
J2VwaWtfcHl0aG9uJywgJy1waHQnLCAnMi4wJywgJy1waCcsICc3LjAnLCAnLXRuJywgJzgnLCAnLW1hJywgJzIwMCcsICctaW1hZScsICc8aW5maWxlLm1hZT4nLCAnLW9tYWUnLCAnPG91dGZpbGUubWFlPic=

>  <r_lp_tautomer_probability>  (201) 
1

>  <r_epik_Ionization_Penalty>  (201) 
0

>  <r_epik_Ionization_Penalty_Charging>  (201) 
0

>  <r_epik_Ionization_Penalty_Neutral>  (201) 
0

>  <r_epik_State_Penalty>  (201) 
-0

>  <r_epik_Charging_Adjusted_Penalty>  (201) 
0

>  <i_epik_Tot_Q>  (201) 
0

>  <i_epik_Tot_abs_Q>  (201) 
0

>  <s_lp_Force_Field>  (201) 
OPLS3e

>  <r_lp_Energy>  (201) 
52.0429

>  <b_lp_Chiralities_Consistent>  (201) 
1

>  <s_lp_Variant>  (201) 
61:0-1

>  <s_i_glide_gridfile>  (201) 
pfpi4k_grid

>  <i_i_glide_lignum>  (201) 
8

>  <i_i_glide_rotatable_bonds>  (201) 
1

>  <r_i_docking_score>  (201) 
-2.59021

>  <r_i_glide_ligand_efficiency>  (201) 
-0.0959336

>  <r_i_glide_ligand_efficiency_sa>  (201) 
-0.287801

>  <r_i_glide_ligand_efficiency_ln>  (201) 
-0.602958

>  <r_i_glide_gscore>  (201) 
-2.59021

>  <r_i_glide_lipo>  (201) 
-0.39458

>  <r_i_glide_hbond>  (201) 
0

>  <r_i_glide_metal>  (201) 
-0

>  <r_i_glide_rewards>  (201) 
-0.941179

>  <r_i_glide_evdw>  (201) 
-21.9161

>  <r_i_glide_ecoul>  (201) 
-0.992169

>  <r_i_glide_erotb>  (201) 
0

>  <r_i_glide_esite>  (201) 
-0.00981833

>  <r_i_glide_emodel>  (201) 
-26.4302

>  <r_i_glide_energy>  (201) 
-22.9083

>  <r_i_glide_einternal>  (201) 
0.000268738

>  <r_i_glide_intrahb_reward>  (201) 
-0

>  <i_i_glide_confnum>  (201) 
2

>  <i_i_glide_posenum>  (201) 
7

>  <r_i_glide_eff_state_penalty>  (201) 
0

>  <ligand_id>  (201) 
61

>  <original_smiles>  (201) 
COC1=C2CC3C(C)CC4(C)C(=O)C=CC4(C)C3C2C2=CCC=CC2C1=O

>  <smiles>  (201) 
[H]C1=C([H])C2(C([H])([H])[H])C3([H])C4([H])C5=C([H])C([H])([H])C([H])=C([H])C5([H])C(=O)C(OC([H])([H])[H])=C4C([H])([H])C3([H])C([H])(C([H])([H])[H])C([H])([H])C2(C([H])([H])[H])C1=O

$$$$
61:0:1
     RDKit          3D

 55 59  0  0  1  0  0  0  0  0999 V2000
    5.5103   -3.3231    6.1855 C   0  0  0  0  0  0  0  0  0  0  0  0
    4.1301   -2.9833    6.1986 O   0  0  0  0  0  0  0  0  0  0  0  0
    3.6782   -2.2963    5.0838 C   0  0  0  0  0  0  0  0  0  0  0  0
    3.5284   -2.8606    3.8823 C   0  0  0  0  0  0  0  0  0  0  0  0
    3.8905   -4.2570    3.4255 C   0  0  0  0  0  0  0  0  0  0  0  0
    4.8148   -3.9352    2.2347 C   0  0  1  0  0  0  0  0  0  0  0  0
    5.2106   -5.1140    1.2611 C   0  0  1  0  0  0  0  0  0  0  0  0
    4.5416   -6.4693    1.5466 C   0  0  0  0  0  0  0  0  0  0  0  0
    5.1763   -4.8042   -0.2659 C   0  0  0  0  0  0  0  0  0  0  0  0
    5.2525   -3.2939   -0.5543 C   0  0  1  0  0  0  0  0  0  0  0  0
    6.6670   -2.7581   -0.1490 C   0  0  0  0  0  0  0  0  0  0  0  0
    5.0606   -2.7969   -1.9898 C   0  0  0  0  0  0  0  0  0  0  0  0
    5.4125   -3.4050   -2.9906 O   0  0  0  0  0  0  0  0  0  0  0  0
    4.4568   -1.4575   -1.8937 C   0  0  0  0  0  0  0  0  0  0  0  0
    3.9586   -1.3253   -0.6647 C   0  0  0  0  0  0  0  0  0  0  0  0
    4.0411   -2.6208    0.1369 C   0  0  1  0  0  0  0  0  0  0  0  0
    2.6811   -3.3340   -0.1236 C   0  0  0  0  0  0  0  0  0  0  0  0
    4.3305   -2.5447    1.6633 C   0  0  1  0  0  0  0  0  0  0  0  0
    3.1692   -2.1220    2.5966 C   0  0  2  0  0  0  0  0  0  0  0  0
    2.9396   -0.6255    2.7959 C   0  0  0  0  0  0  0  0  0  0  0  0
    1.9968    0.0169    2.0742 C   0  0  0  0  0  0  0  0  0  0  0  0
    1.6169    1.4798    2.2344 C   0  0  0  0  0  0  0  0  0  0  0  0
    2.3457    2.1291    3.3925 C   0  0  0  0  0  0  0  0  0  0  0  0
    3.2557    1.4934    4.1586 C   0  0  0  0  0  0  0  0  0  0  0  0
    3.6822    0.0305    3.9465 C   0  0  1  0  0  0  0  0  0  0  0  0
    3.5194   -0.8154    5.2309 C   0  0  0  0  0  0  0  0  0  0  0  0
    3.3787   -0.2610    6.3129 O   0  0  0  0  0  0  0  0  0  0  0  0
    5.7565   -3.8103    7.1240 H   0  0  0  0  0  0  0  0  0  0  0  0
    6.1395   -2.4425    6.1030 H   0  0  0  0  0  0  0  0  0  0  0  0
    5.7925   -4.0176    5.3917 H   0  0  0  0  0  0  0  0  0  0  0  0
    4.3645   -4.8914    4.1896 H   0  0  0  0  0  0  0  0  0  0  0  0
    2.9747   -4.7421    3.0957 H   0  0  0  0  0  0  0  0  0  0  0  0
    5.7594   -3.6740    2.7094 H   0  0  0  0  0  0  0  0  0  0  0  0
    6.2704   -5.2934    1.4744 H   0  0  0  0  0  0  0  0  0  0  0  0
    3.4679   -6.4538    1.3552 H   0  0  0  0  0  0  0  0  0  0  0  0
    4.6978   -6.7914    2.5779 H   0  0  0  0  0  0  0  0  0  0  0  0
    4.9703   -7.2411    0.9106 H   0  0  0  0  0  0  0  0  0  0  0  0
    6.0162   -5.3068   -0.7196 H   0  0  0  0  0  0  0  0  0  0  0  0
    4.3037   -5.2544   -0.7392 H   0  0  0  0  0  0  0  0  0  0  0  0
    6.9317   -2.9330    0.8920 H   0  0  0  0  0  0  0  0  0  0  0  0
    6.7625   -1.6831   -0.3104 H   0  0  0  0  0  0  0  0  0  0  0  0
    7.4508   -3.2310   -0.7391 H   0  0  0  0  0  0  0  0  0  0  0  0
    4.4765   -0.7139   -2.6890 H   0  0  0  0  0  0  0  0  0  0  0  0
    3.4884   -0.4399   -0.2672 H   0  0  0  0  0  0  0  0  0  0  0  0
    2.5658   -4.2401    0.4731 H   0  0  0  0  0  0  0  0  0  0  0  0
    2.5572   -3.6078   -1.1737 H   0  0  0  0  0  0  0  0  0  0  0  0
    1.8363   -2.6936    0.1154 H   0  0  0  0  0  0  0  0  0  0  0  0
    5.1313   -1.8158    1.8168 H   0  0  0  0  0  0  0  0  0  0  0  0
    2.2272   -2.5632    2.2938 H   0  0  0  0  0  0  0  0  0  0  0  0
    1.4488   -0.5107    1.3149 H   0  0  0  0  0  0  0  0  0  0  0  0
    1.8495    2.0142    1.3124 H   0  0  0  0  0  0  0  0  0  0  0  0
    0.5397    1.5637    2.3869 H   0  0  0  0  0  0  0  0  0  0  0  0
    2.1076    3.1722    3.5658 H   0  0  0  0  0  0  0  0  0  0  0  0
    3.7365    2.0223    4.9622 H   0  0  0  0  0  0  0  0  0  0  0  0
    4.7418    0.0496    3.6932 H   0  0  0  0  0  0  0  0  0  0  0  0
  1  2  1  0
  1 28  1  0
  1 29  1  0
  1 30  1  0
  2  3  1  0
  3 26  1  0
  3  4  2  0
  4 19  1  0
  4  5  1  0
  5  6  1  0
  5 31  1  0
  5 32  1  0
  6 18  1  0
  6  7  1  0
  6 33  1  1
  7  8  1  0
  7  9  1  0
  7 34  1  1
  8 35  1  0
  8 36  1  0
  8 37  1  0
  9 10  1  0
  9 38  1  0
  9 39  1  0
 10 16  1  0
 10 11  1  1
 10 12  1  0
 11 40  1  0
 11 41  1  0
 11 42  1  0
 12 13  2  0
 12 14  1  0
 14 15  2  0
 14 43  1  0
 15 16  1  0
 15 44  1  0
 16 17  1  1
 16 18  1  0
 17 45  1  0
 17 46  1  0
 17 47  1  0
 18 19  1  0
 18 48  1  6
 19 20  1  0
 19 49  1  6
 20 25  1  0
 20 21  2  0
 21 22  1  0
 21 50  1  0
 22 23  1  0
 22 51  1  0
 22 52  1  0
 23 24  2  0
 23 53  1  0
 24 25  1  0
 24 54  1  0
 25 26  1  0
 25 55  1  6
 26 27  2  0
M  END
>  <i_m_ct_stereo_status>  (202) 
1

>  <s_m_source_file>  (202) 
/var/tmp/pbs.5076255.sched01/tmpthapbt4w/86pc0xbys0.sdf

>  <i_m_source_file_index>  (202) 
8

>  <i_lp_mmshare_version>  (202) 
48012

>  <i_f3d_flags>  (202) 
0

>  <s_epik_input>  (202) 
W0NIM11PQz0xQyg9TylbQ0BIXShbQ0hdPVtDSF1bQ0gyXVtDSF0yKUM9MltDQEBIXTNDMVtDSDJdW0NAQEhdKFtDQEBIXShbQ0gzXSlbQ0gyXTQpW0NASF0zW0NAXShbQ0gzXSkoW0NAQF00NVtDSDNdKVtDSF09W0NIXUM1PU8=

>  <s_epik_cmdline>  (202) 
J2VwaWtfcHl0aG9uJywgJy1waHQnLCAnMi4wJywgJy1waCcsICc3LjAnLCAnLXRuJywgJzgnLCAnLW1hJywgJzIwMCcsICctaW1hZScsICc8aW5maWxlLm1hZT4nLCAnLW9tYWUnLCAnPG91dGZpbGUubWFlPic=

>  <r_lp_tautomer_probability>  (202) 
1

>  <r_epik_Ionization_Penalty>  (202) 
0

>  <r_epik_Ionization_Penalty_Charging>  (202) 
0

>  <r_epik_Ionization_Penalty_Neutral>  (202) 
0

>  <r_epik_State_Penalty>  (202) 
-0

>  <r_epik_Charging_Adjusted_Penalty>  (202) 
0

>  <i_epik_Tot_Q>  (202) 
0

>  <i_epik_Tot_abs_Q>  (202) 
0

>  <s_lp_Force_Field>  (202) 
OPLS3e

>  <r_lp_Energy>  (202) 
52.0429

>  <b_lp_Chiralities_Consistent>  (202) 
1

>  <s_lp_Variant>  (202) 
61:0-1

>  <s_i_glide_gridfile>  (202) 
pfpi4k_grid

>  <i_i_glide_lignum>  (202) 
8

>  <i_i_glide_rotatable_bonds>  (202) 
1

>  <r_i_docking_score>  (202) 
-2.55706

>  <r_i_glide_ligand_efficiency>  (202) 
-0.094706

>  <r_i_glide_ligand_efficiency_sa>  (202) 
-0.284118

>  <r_i_glide_ligand_efficiency_ln>  (202) 
-0.595242

>  <r_i_glide_gscore>  (202) 
-2.55706

>  <r_i_glide_lipo>  (202) 
-0.277965

>  <r_i_glide_hbond>  (202) 
0

>  <r_i_glide_metal>  (202) 
-0

>  <r_i_glide_rewards>  (202) 
-1.01399

>  <r_i_glide_evdw>  (202) 
-23.06

>  <r_i_glide_ecoul>  (202) 
-0.747394

>  <r_i_glide_erotb>  (202) 
0

>  <r_i_glide_esite>  (202) 
0

>  <r_i_glide_emodel>  (202) 
-26.892

>  <r_i_glide_energy>  (202) 
-23.8074

>  <r_i_glide_einternal>  (202) 
0.706681

>  <r_i_glide_intrahb_reward>  (202) 
-0

>  <i_i_glide_confnum>  (202) 
2

>  <i_i_glide_posenum>  (202) 
13

>  <r_i_glide_eff_state_penalty>  (202) 
0

>  <ligand_id>  (202) 
61

>  <original_smiles>  (202) 
COC1=C2CC3C(C)CC4(C)C(=O)C=CC4(C)C3C2C2=CCC=CC2C1=O

>  <smiles>  (202) 
[H]C1=C([H])C2(C([H])([H])[H])C3([H])C4([H])C5=C([H])C([H])([H])C([H])=C([H])C5([H])C(=O)C(OC([H])([H])[H])=C4C([H])([H])C3([H])C([H])(C([H])([H])[H])C([H])([H])C2(C([H])([H])[H])C1=O

$$$$
61:0:2
     RDKit          3D

 55 59  0  0  1  0  0  0  0  0999 V2000
    5.6805  -10.7491    3.5901 C   0  0  0  0  0  0  0  0  0  0  0  0
    4.9156   -9.7966    4.3172 O   0  0  0  0  0  0  0  0  0  0  0  0
    4.1028   -8.9728    3.5775 C   0  0  0  0  0  0  0  0  0  0  0  0
    4.5632   -8.1184    2.6332 C   0  0  0  0  0  0  0  0  0  0  0  0
    6.0015   -7.7523    2.3503 C   0  0  0  0  0  0  0  0  0  0  0  0
    5.9528   -6.2218    2.4582 C   0  0  1  0  0  0  0  0  0  0  0  0
    7.1713   -5.3895    1.8928 C   0  0  1  0  0  0  0  0  0  0  0  0
    8.2484   -6.1956    1.1409 C   0  0  0  0  0  0  0  0  0  0  0  0
    6.8386   -4.0688    1.1313 C   0  0  0  0  0  0  0  0  0  0  0  0
    5.4209   -3.5724    1.4601 C   0  0  1  0  0  0  0  0  0  0  0  0
    5.3651   -3.0926    2.9464 C   0  0  0  0  0  0  0  0  0  0  0  0
    4.8511   -2.3988    0.6653 C   0  0  0  0  0  0  0  0  0  0  0  0
    5.5294   -1.4784    0.2044 O   0  0  0  0  0  0  0  0  0  0  0  0
    3.3932   -2.5803    0.6178 C   0  0  0  0  0  0  0  0  0  0  0  0
    3.1346   -3.8585    0.9359 C   0  0  0  0  0  0  0  0  0  0  0  0
    4.4027   -4.6823    1.0722 C   0  0  1  0  0  0  0  0  0  0  0  0
    4.6434   -5.2837   -0.3376 C   0  0  0  0  0  0  0  0  0  0  0  0
    4.4663   -5.7959    2.1437 C   0  0  1  0  0  0  0  0  0  0  0  0
    3.7277   -7.1281    1.8578 C   0  0  2  0  0  0  0  0  0  0  0  0
    2.2418   -7.1808    2.2090 C   0  0  0  0  0  0  0  0  0  0  0  0
    1.3077   -6.9518    1.2673 C   0  0  0  0  0  0  0  0  0  0  0  0
   -0.1908   -7.0873    1.4632 C   0  0  0  0  0  0  0  0  0  0  0  0
   -0.5388   -7.5802    2.8543 C   0  0  0  0  0  0  0  0  0  0  0  0
    0.3780   -7.8368    3.8049 C   0  0  0  0  0  0  0  0  0  0  0  0
    1.8868   -7.6579    3.6194 C   0  0  1  0  0  0  0  0  0  0  0  0
    2.6685   -8.9470    3.9481 C   0  0  0  0  0  0  0  0  0  0  0  0
    2.1293   -9.8528    4.5829 O   0  0  0  0  0  0  0  0  0  0  0  0
    6.3130  -11.3054    4.2836 H   0  0  0  0  0  0  0  0  0  0  0  0
    6.3361  -10.3150    2.8422 H   0  0  0  0  0  0  0  0  0  0  0  0
    5.0167  -11.4523    3.0943 H   0  0  0  0  0  0  0  0  0  0  0  0
    6.7198   -8.1727    3.0581 H   0  0  0  0  0  0  0  0  0  0  0  0
    6.2469   -8.0858    1.3368 H   0  0  0  0  0  0  0  0  0  0  0  0
    6.0213   -6.0757    3.5379 H   0  0  0  0  0  0  0  0  0  0  0  0
    7.6920   -5.0578    2.7934 H   0  0  0  0  0  0  0  0  0  0  0  0
    7.8892   -6.5907    0.1949 H   0  0  0  0  0  0  0  0  0  0  0  0
    8.6127   -7.0272    1.7414 H   0  0  0  0  0  0  0  0  0  0  0  0
    9.1038   -5.5581    0.9253 H   0  0  0  0  0  0  0  0  0  0  0  0
    7.5694   -3.3018    1.3800 H   0  0  0  0  0  0  0  0  0  0  0  0
    6.9612   -4.2034    0.0588 H   0  0  0  0  0  0  0  0  0  0  0  0
    5.6510   -3.8495    3.6765 H   0  0  0  0  0  0  0  0  0  0  0  0
    4.3739   -2.7426    3.2407 H   0  0  0  0  0  0  0  0  0  0  0  0
    6.0425   -2.2523    3.1025 H   0  0  0  0  0  0  0  0  0  0  0  0
    2.6728   -1.7956    0.4152 H   0  0  0  0  0  0  0  0  0  0  0  0
    2.1525   -4.2957    1.0264 H   0  0  0  0  0  0  0  0  0  0  0  0
    5.4730   -5.9935   -0.3565 H   0  0  0  0  0  0  0  0  0  0  0  0
    4.8348   -4.5158   -1.0917 H   0  0  0  0  0  0  0  0  0  0  0  0
    3.7541   -5.8138   -0.6679 H   0  0  0  0  0  0  0  0  0  0  0  0
    4.0399   -5.4096    3.0702 H   0  0  0  0  0  0  0  0  0  0  0  0
    3.8384   -7.4426    0.8178 H   0  0  0  0  0  0  0  0  0  0  0  0
    1.6181   -6.6547    0.2759 H   0  0  0  0  0  0  0  0  0  0  0  0
   -0.6604   -6.1231    1.2822 H   0  0  0  0  0  0  0  0  0  0  0  0
   -0.5828   -7.7906    0.7254 H   0  0  0  0  0  0  0  0  0  0  0  0
   -1.5961   -7.7190    3.0553 H   0  0  0  0  0  0  0  0  0  0  0  0
    0.0509   -8.1996    4.7690 H   0  0  0  0  0  0  0  0  0  0  0  0
    2.2080   -6.8867    4.3202 H   0  0  0  0  0  0  0  0  0  0  0  0
  1  2  1  0
  1 28  1  0
  1 29  1  0
  1 30  1  0
  2  3  1  0
  3 26  1  0
  3  4  2  0
  4 19  1  0
  4  5  1  0
  5  6  1  0
  5 31  1  0
  5 32  1  0
  6 18  1  0
  6  7  1  0
  6 33  1  1
  7  8  1  0
  7  9  1  0
  7 34  1  1
  8 35  1  0
  8 36  1  0
  8 37  1  0
  9 10  1  0
  9 38  1  0
  9 39  1  0
 10 16  1  0
 10 11  1  1
 10 12  1  0
 11 40  1  0
 11 41  1  0
 11 42  1  0
 12 13  2  0
 12 14  1  0
 14 15  2  0
 14 43  1  0
 15 16  1  0
 15 44  1  0
 16 17  1  6
 16 18  1  0
 17 45  1  0
 17 46  1  0
 17 47  1  0
 18 19  1  0
 18 48  1  1
 19 20  1  0
 19 49  1  6
 20 25  1  0
 20 21  2  0
 21 22  1  0
 21 50  1  0
 22 23  1  0
 22 51  1  0
 22 52  1  0
 23 24  2  0
 23 53  1  0
 24 25  1  0
 24 54  1  0
 25 26  1  0
 25 55  1  1
 26 27  2  0
M  END
>  <i_m_ct_stereo_status>  (203) 
1

>  <s_m_source_file>  (203) 
/var/tmp/pbs.5076255.sched01/tmpthapbt4w/86pc0xbys0.sdf

>  <i_m_source_file_index>  (203) 
8

>  <i_lp_mmshare_version>  (203) 
48012

>  <i_f3d_flags>  (203) 
0

>  <s_epik_input>  (203) 
W0NIM11PQz0xQyg9TylbQ0BIXShbQ0hdPVtDSF1bQ0gyXVtDSF0yKUM9MltDQEBIXTNDMVtDSDJdW0NAQEhdKFtDQEBIXShbQ0gzXSlbQ0gyXTQpW0NASF0zW0NAXShbQ0gzXSkoW0NAQF00NVtDSDNdKVtDSF09W0NIXUM1PU8=

>  <s_epik_cmdline>  (203) 
J2VwaWtfcHl0aG9uJywgJy1waHQnLCAnMi4wJywgJy1waCcsICc3LjAnLCAnLXRuJywgJzgnLCAnLW1hJywgJzIwMCcsICctaW1hZScsICc8aW5maWxlLm1hZT4nLCAnLW9tYWUnLCAnPG91dGZpbGUubWFlPic=

>  <r_lp_tautomer_probability>  (203) 
1

>  <r_epik_Ionization_Penalty>  (203) 
0

>  <r_epik_Ionization_Penalty_Charging>  (203) 
0

>  <r_epik_Ionization_Penalty_Neutral>  (203) 
0

>  <r_epik_State_Penalty>  (203) 
-0

>  <r_epik_Charging_Adjusted_Penalty>  (203) 
0

>  <i_epik_Tot_Q>  (203) 
0

>  <i_epik_Tot_abs_Q>  (203) 
0

>  <s_lp_Force_Field>  (203) 
OPLS3e

>  <r_lp_Energy>  (203) 
52.0429

>  <b_lp_Chiralities_Consistent>  (203) 
1

>  <s_lp_Variant>  (203) 
61:0-1

>  <s_i_glide_gridfile>  (203) 
pfpi4k_grid

>  <i_i_glide_lignum>  (203) 
8

>  <i_i_glide_rotatable_bonds>  (203) 
1

>  <r_i_docking_score>  (203) 
-2.4042

>  <r_i_glide_ligand_efficiency>  (203) 
-0.0890444

>  <r_i_glide_ligand_efficiency_sa>  (203) 
-0.267133

>  <r_i_glide_ligand_efficiency_ln>  (203) 
-0.559658

>  <r_i_glide_gscore>  (203) 
-2.4042

>  <r_i_glide_lipo>  (203) 
-0.380714

>  <r_i_glide_hbond>  (203) 
0

>  <r_i_glide_metal>  (203) 
-0

>  <r_i_glide_rewards>  (203) 
-0.945167

>  <r_i_glide_evdw>  (203) 
-22.7476

>  <r_i_glide_ecoul>  (203) 
0.433946

>  <r_i_glide_erotb>  (203) 
0

>  <r_i_glide_esite>  (203) 
-0.00603097

>  <r_i_glide_emodel>  (203) 
-25.5779

>  <r_i_glide_energy>  (203) 
-22.3136

>  <r_i_glide_einternal>  (203) 
0.00945832

>  <r_i_glide_intrahb_reward>  (203) 
-0

>  <i_i_glide_confnum>  (203) 
1

>  <i_i_glide_posenum>  (203) 
21

>  <r_i_glide_eff_state_penalty>  (203) 
0

>  <ligand_id>  (203) 
61

>  <original_smiles>  (203) 
COC1=C2CC3C(C)CC4(C)C(=O)C=CC4(C)C3C2C2=CCC=CC2C1=O

>  <smiles>  (203) 
[H]C1=C([H])C2(C([H])([H])[H])C3([H])C4([H])C5=C([H])C([H])([H])C([H])=C([H])C5([H])C(=O)C(OC([H])([H])[H])=C4C([H])([H])C3([H])C([H])(C([H])([H])[H])C([H])([H])C2(C([H])([H])[H])C1=O

$$$$
62:0:0
     RDKit          3D

 45 49  0  0  1  0  0  0  0  0999 V2000
    2.8162    0.6975    2.1845 C   0  0  0  0  0  0  0  0  0  0  0  0
    2.8299   -0.4737    1.3771 O   0  0  0  0  0  0  0  0  0  0  0  0
    3.9731   -1.1506    1.1705 C   0  0  0  0  0  0  0  0  0  0  0  0
    5.0787   -0.8164    1.6004 O   0  0  0  0  0  0  0  0  0  0  0  0
    3.7838   -2.3907    0.3078 C   0  0  1  0  0  0  0  0  0  0  0  0
    3.7041   -2.1507   -1.2019 C   0  0  0  0  0  0  0  0  0  0  0  0
    3.0543   -3.0584   -2.0842 C   0  0  0  0  0  0  0  0  0  0  0  0
    3.0227   -2.7982   -3.4706 C   0  0  0  0  0  0  0  0  0  0  0  0
    3.6014   -1.6123   -3.9321 C   0  0  0  0  0  0  0  0  0  0  0  0
    4.2168   -0.7323   -3.1322 N   0  0  0  0  0  0  0  0  0  0  0  0
    4.2612   -1.0034   -1.8105 C   0  0  0  0  0  0  0  0  0  0  0  0
    4.4256   -3.6886    0.7896 C   0  0  2  0  0  0  0  0  0  0  0  0
    4.7840   -5.0077    0.1271 C   0  0  0  0  0  0  0  0  0  0  0  0
    4.5186   -6.0760    1.1191 N   0  0  2  0  0  0  0  0  0  0  0  0
    4.6190   -7.4608    0.6992 C   0  0  0  0  0  0  0  0  0  0  0  0
    3.4850   -7.7446    1.6811 C   0  0  0  0  0  0  0  0  0  0  0  0
    3.1132   -6.2793    1.4785 C   0  0  1  0  0  0  0  0  0  0  0  0
    2.6184   -5.3200    2.5722 C   0  0  0  0  0  0  0  0  0  0  0  0
    2.1982   -5.8012    3.8286 C   0  0  0  0  0  0  0  0  0  0  0  0
    1.6774   -4.9089    4.7827 C   0  0  0  0  0  0  0  0  0  0  0  0
    1.5508   -3.5310    4.4871 C   0  0  0  0  0  0  0  0  0  0  0  0
    1.9696   -3.0448    3.2342 C   0  0  0  0  0  0  0  0  0  0  0  0
    2.5196   -3.9237    2.2907 C   0  0  0  0  0  0  0  0  0  0  0  0
    2.9312   -3.5026    0.9270 C   0  0  1  0  0  0  0  0  0  0  0  0
    1.8002    1.0811    2.2896 H   0  0  0  0  0  0  0  0  0  0  0  0
    3.4155    1.4871    1.7372 H   0  0  0  0  0  0  0  0  0  0  0  0
    3.1964    0.5057    3.1878 H   0  0  0  0  0  0  0  0  0  0  0  0
    2.5955   -3.9731   -1.7682 H   0  0  0  0  0  0  0  0  0  0  0  0
    2.5481   -3.5139   -4.1280 H   0  0  0  0  0  0  0  0  0  0  0  0
    3.5954   -1.3949   -4.9941 H   0  0  0  0  0  0  0  0  0  0  0  0
    4.7799   -0.2631   -1.2293 H   0  0  0  0  0  0  0  0  0  0  0  0
    5.0353   -3.5316    1.6872 H   0  0  0  0  0  0  0  0  0  0  0  0
    4.2083   -5.1625   -0.7844 H   0  0  0  0  0  0  0  0  0  0  0  0
    5.8356   -4.9939   -0.1606 H   0  0  0  0  0  0  0  0  0  0  0  0
    4.3435   -7.6378   -0.3421 H   0  0  0  0  0  0  0  0  0  0  0  0
    5.5634   -7.9460    0.9535 H   0  0  0  0  0  0  0  0  0  0  0  0
    2.7401   -8.4551    1.3188 H   0  0  0  0  0  0  0  0  0  0  0  0
    3.8547   -7.9768    2.6837 H   0  0  0  0  0  0  0  0  0  0  0  0
    2.4557   -6.2163    0.6048 H   0  0  0  0  0  0  0  0  0  0  0  0
    2.2561   -6.8567    4.0636 H   0  0  0  0  0  0  0  0  0  0  0  0
    1.3623   -5.2711    5.7514 H   0  0  0  0  0  0  0  0  0  0  0  0
    1.1359   -2.8513    5.2105 H   0  0  0  0  0  0  0  0  0  0  0  0
    1.8262   -2.0035    3.0077 H   0  0  0  0  0  0  0  0  0  0  0  0
    2.2286   -3.9971    0.2691 H   0  0  0  0  0  0  0  0  0  0  0  0
    5.0583   -5.9489    1.9749 H   0  0  0  0  0  0  0  0  0  0  0  0
  1  2  1  0
  1 25  1  0
  1 26  1  0
  1 27  1  0
  2  3  1  0
  3  4  2  0
  5  3  1  1
  5 24  1  0
  5  6  1  0
  5 12  1  0
  6 11  1  0
  6  7  2  0
  7  8  1  0
  7 28  1  0
  8  9  2  0
  8 29  1  0
  9 10  1  0
  9 30  1  0
 10 11  2  0
 11 31  1  0
 12 24  1  0
 12 13  1  0
 12 32  1  1
 13 14  1  0
 13 33  1  0
 13 34  1  0
 14 17  1  0
 14 15  1  0
 14 45  1  1
 15 16  1  0
 15 35  1  0
 15 36  1  0
 16 17  1  0
 16 37  1  0
 16 38  1  0
 17 18  1  0
 17 39  1  6
 18 23  2  0
 18 19  1  0
 19 20  2  0
 19 40  1  0
 20 21  1  0
 20 41  1  0
 21 22  2  0
 21 42  1  0
 22 23  1  0
 22 43  1  0
 23 24  1  0
 24 44  1  6
M  CHG  1  14   1
M  END
>  <i_m_ct_stereo_status>  (204) 
1

>  <s_m_source_file>  (204) 
/var/tmp/pbs.5076255.sched01/tmpthapbt4w/86pc0xbys0.sdf

>  <i_m_source_file_index>  (204) 
9

>  <i_lp_mmshare_version>  (204) 
48012

>  <i_f3d_flags>  (204) 
0

>  <s_epik_input>  (204) 
W2NIXTFuW2NIXVtjSF1bY0hdYzFbQ0BAXTIoQyg9TylPW0NIM10pW0NAQEhdKFtDQEhdMjMpYzRjKFtDQEhdNU4oW0NIMl0zKVtDSDJdW0NIMl01KVtjSF1bY0hdW2NIXVtjSF00

>  <s_epik_cmdline>  (204) 
J2VwaWtfcHl0aG9uJywgJy1waHQnLCAnMi4wJywgJy1waCcsICc3LjAnLCAnLXRuJywgJzgnLCAnLW1hJywgJzIwMCcsICctaW1hZScsICc8aW5maWxlLm1hZT4nLCAnLW9tYWUnLCAnPG91dGZpbGUubWFlPic=

>  <r_epik_Ionization_Penalty>  (204) 
0.0147527

>  <r_epik_Ionization_Penalty_Charging>  (204) 
0.0141887

>  <r_epik_Ionization_Penalty_Neutral>  (204) 
0.000563974

>  <r_epik_State_Penalty>  (204) 
0.0110845

>  <r_epik_Charging_Adjusted_Penalty>  (204) 
0.0252732

>  <i_epik_Tot_Q>  (204) 
1

>  <i_epik_Tot_abs_Q>  (204) 
1

>  <s_epik_Chemistry_Notes>  (204) 
This compound has an ester and may undergo hydrolysis at high or low pH.

>  <s_lp_Force_Field>  (204) 
OPLS3e

>  <r_lp_Energy>  (204) 
70.7063

>  <b_lp_Chiralities_Consistent>  (204) 
1

>  <s_lp_Variant>  (204) 
62:0-1

>  <s_i_glide_gridfile>  (204) 
pfpi4k_grid

>  <i_i_glide_lignum>  (204) 
9

>  <i_i_glide_rotatable_bonds>  (204) 
3

>  <r_i_docking_score>  (204) 
-3.23503

>  <r_i_glide_ligand_efficiency>  (204) 
-0.134793

>  <r_i_glide_ligand_efficiency_sa>  (204) 
-0.38881

>  <r_i_glide_ligand_efficiency_ln>  (204) 
-0.77429

>  <r_i_glide_gscore>  (204) 
-3.23503

>  <r_i_glide_lipo>  (204) 
-0.546225

>  <r_i_glide_hbond>  (204) 
0

>  <r_i_glide_metal>  (204) 
-0

>  <r_i_glide_rewards>  (204) 
-1.21778

>  <r_i_glide_evdw>  (204) 
-30.1329

>  <r_i_glide_ecoul>  (204) 
-2.12131

>  <r_i_glide_erotb>  (204) 
0.361803

>  <r_i_glide_esite>  (204) 
-0.00798978

>  <r_i_glide_emodel>  (204) 
-36.1047

>  <r_i_glide_energy>  (204) 
-32.2542

>  <r_i_glide_einternal>  (204) 
5.2687

>  <r_i_glide_intrahb_reward>  (204) 
-0

>  <i_i_glide_confnum>  (204) 
5

>  <i_i_glide_posenum>  (204) 
39

>  <r_i_glide_eff_state_penalty>  (204) 
0

>  <ligand_id>  (204) 
62

>  <original_smiles>  (204) 
COC(=O)C1(c2cccnc2)C2CN3CCC3c3ccccc3C21

>  <smiles>  (204) 
[H]c1nc([H])c(C2(C(=O)OC([H])([H])[H])C3([H])c4c([H])c([H])c([H])c([H])c4C4([H])C([H])([H])C([H])([H])[N+]4([H])C([H])([H])C32[H])c([H])c1[H]

$$$$
62:0:1
     RDKit          3D

 45 49  0  0  1  0  0  0  0  0999 V2000
    3.3640   -0.1640    2.0105 C   0  0  0  0  0  0  0  0  0  0  0  0
    3.2740   -1.3972    1.3050 O   0  0  0  0  0  0  0  0  0  0  0  0
    4.1329   -2.3973    1.5816 C   0  0  0  0  0  0  0  0  0  0  0  0
    5.0139   -2.3515    2.4418 O   0  0  0  0  0  0  0  0  0  0  0  0
    3.9034   -3.6284    0.7219 C   0  0  1  0  0  0  0  0  0  0  0  0
    4.0601   -3.4166   -0.7608 C   0  0  0  0  0  0  0  0  0  0  0  0
    5.3220   -3.5285   -1.3845 C   0  0  0  0  0  0  0  0  0  0  0  0
    5.4173   -3.3583   -2.7769 C   0  0  0  0  0  0  0  0  0  0  0  0
    4.2422   -3.0805   -3.5013 C   0  0  0  0  0  0  0  0  0  0  0  0
    3.0343   -2.9520   -2.9236 N   0  0  0  0  0  0  0  0  0  0  0  0
    2.9535   -3.1159   -1.5882 C   0  0  0  0  0  0  0  0  0  0  0  0
    4.3073   -4.9854    1.2964 C   0  0  2  0  0  0  0  0  0  0  0  0
    4.5737   -6.3534    0.6858 C   0  0  0  0  0  0  0  0  0  0  0  0
    4.0581   -7.3586    1.6576 N   0  0  2  0  0  0  0  0  0  0  0  0
    4.0451   -8.7691    1.2791 C   0  0  0  0  0  0  0  0  0  0  0  0
    2.7587   -8.8811    2.1043 C   0  0  0  0  0  0  0  0  0  0  0  0
    2.5957   -7.3879    1.8346 C   0  0  1  0  0  0  0  0  0  0  0  0
    2.0762   -6.3366    2.8287 C   0  0  0  0  0  0  0  0  0  0  0  0
    1.4523   -6.7221    4.0345 C   0  0  0  0  0  0  0  0  0  0  0  0
    0.9324   -5.7420    4.8990 C   0  0  0  0  0  0  0  0  0  0  0  0
    1.0253   -4.3785    4.5621 C   0  0  0  0  0  0  0  0  0  0  0  0
    1.6513   -3.9828    3.3647 C   0  0  0  0  0  0  0  0  0  0  0  0
    2.1817   -4.9567    2.4956 C   0  0  0  0  0  0  0  0  0  0  0  0
    2.8430   -4.6213    1.1930 C   0  0  1  0  0  0  0  0  0  0  0  0
    2.6088    0.5382    1.6551 H   0  0  0  0  0  0  0  0  0  0  0  0
    4.3375    0.3060    1.8713 H   0  0  0  0  0  0  0  0  0  0  0  0
    3.2061   -0.3027    3.0802 H   0  0  0  0  0  0  0  0  0  0  0  0
    6.2038   -3.7645   -0.8042 H   0  0  0  0  0  0  0  0  0  0  0  0
    6.3685   -3.4542   -3.2848 H   0  0  0  0  0  0  0  0  0  0  0  0
    4.2754   -2.9537   -4.5726 H   0  0  0  0  0  0  0  0  0  0  0  0
    1.9602   -3.0527   -1.1743 H   0  0  0  0  0  0  0  0  0  0  0  0
    4.7889   -4.9003    2.2729 H   0  0  0  0  0  0  0  0  0  0  0  0
    4.1019   -6.4413   -0.2933 H   0  0  0  0  0  0  0  0  0  0  0  0
    5.6485   -6.4852    0.5515 H   0  0  0  0  0  0  0  0  0  0  0  0
    3.8867   -8.9509    0.2129 H   0  0  0  0  0  0  0  0  0  0  0  0
    4.8804   -9.3538    1.6702 H   0  0  0  0  0  0  0  0  0  0  0  0
    1.9807   -9.5062    1.6585 H   0  0  0  0  0  0  0  0  0  0  0  0
    2.9551   -9.1307    3.1516 H   0  0  0  0  0  0  0  0  0  0  0  0
    2.0720   -7.2668    0.8843 H   0  0  0  0  0  0  0  0  0  0  0  0
    1.3524   -7.7649    4.2991 H   0  0  0  0  0  0  0  0  0  0  0  0
    0.4532   -6.0376    5.8218 H   0  0  0  0  0  0  0  0  0  0  0  0
    0.6134   -3.6327    5.2278 H   0  0  0  0  0  0  0  0  0  0  0  0
    1.7024   -2.9369    3.1112 H   0  0  0  0  0  0  0  0  0  0  0  0
    2.2453   -5.0482    0.3902 H   0  0  0  0  0  0  0  0  0  0  0  0
    4.4937   -7.2733    2.5681 H   0  0  0  0  0  0  0  0  0  0  0  0
  1  2  1  0
  1 25  1  0
  1 26  1  0
  1 27  1  0
  2  3  1  0
  3  4  2  0
  5  3  1  1
  5 24  1  0
  5  6  1  0
  5 12  1  0
  6 11  1  0
  6  7  2  0
  7  8  1  0
  7 28  1  0
  8  9  2  0
  8 29  1  0
  9 10  1  0
  9 30  1  0
 10 11  2  0
 11 31  1  0
 12 24  1  0
 12 13  1  0
 12 32  1  1
 13 14  1  0
 13 33  1  0
 13 34  1  0
 14 17  1  0
 14 15  1  0
 14 45  1  1
 15 16  1  0
 15 35  1  0
 15 36  1  0
 16 17  1  0
 16 37  1  0
 16 38  1  0
 17 18  1  0
 17 39  1  6
 18 23  2  0
 18 19  1  0
 19 20  2  0
 19 40  1  0
 20 21  1  0
 20 41  1  0
 21 22  2  0
 21 42  1  0
 22 23  1  0
 22 43  1  0
 23 24  1  0
 24 44  1  6
M  CHG  1  14   1
M  END
>  <i_m_ct_stereo_status>  (205) 
1

>  <s_m_source_file>  (205) 
/var/tmp/pbs.5076255.sched01/tmpthapbt4w/86pc0xbys0.sdf

>  <i_m_source_file_index>  (205) 
9

>  <i_lp_mmshare_version>  (205) 
48012

>  <i_f3d_flags>  (205) 
0

>  <s_epik_input>  (205) 
W2NIXTFuW2NIXVtjSF1bY0hdYzFbQ0BAXTIoQyg9TylPW0NIM10pW0NAQEhdKFtDQEhdMjMpYzRjKFtDQEhdNU4oW0NIMl0zKVtDSDJdW0NIMl01KVtjSF1bY0hdW2NIXVtjSF00

>  <s_epik_cmdline>  (205) 
J2VwaWtfcHl0aG9uJywgJy1waHQnLCAnMi4wJywgJy1waCcsICc3LjAnLCAnLXRuJywgJzgnLCAnLW1hJywgJzIwMCcsICctaW1hZScsICc8aW5maWxlLm1hZT4nLCAnLW9tYWUnLCAnPG91dGZpbGUubWFlPic=

>  <r_epik_Ionization_Penalty>  (205) 
0.0147527

>  <r_epik_Ionization_Penalty_Charging>  (205) 
0.0141887

>  <r_epik_Ionization_Penalty_Neutral>  (205) 
0.000563974

>  <r_epik_State_Penalty>  (205) 
0.0110845

>  <r_epik_Charging_Adjusted_Penalty>  (205) 
0.0252732

>  <i_epik_Tot_Q>  (205) 
1

>  <i_epik_Tot_abs_Q>  (205) 
1

>  <s_epik_Chemistry_Notes>  (205) 
This compound has an ester and may undergo hydrolysis at high or low pH.

>  <s_lp_Force_Field>  (205) 
OPLS3e

>  <r_lp_Energy>  (205) 
70.7063

>  <b_lp_Chiralities_Consistent>  (205) 
1

>  <s_lp_Variant>  (205) 
62:0-1

>  <s_i_glide_gridfile>  (205) 
pfpi4k_grid

>  <i_i_glide_lignum>  (205) 
9

>  <i_i_glide_rotatable_bonds>  (205) 
3

>  <r_i_docking_score>  (205) 
-3.07846

>  <r_i_glide_ligand_efficiency>  (205) 
-0.128269

>  <r_i_glide_ligand_efficiency_sa>  (205) 
-0.369993

>  <r_i_glide_ligand_efficiency_ln>  (205) 
-0.736818

>  <r_i_glide_gscore>  (205) 
-3.07846

>  <r_i_glide_lipo>  (205) 
-0.740373

>  <r_i_glide_hbond>  (205) 
0

>  <r_i_glide_metal>  (205) 
-0

>  <r_i_glide_rewards>  (205) 
-1.21932

>  <r_i_glide_evdw>  (205) 
-28.819

>  <r_i_glide_ecoul>  (205) 
-0.264139

>  <r_i_glide_erotb>  (205) 
0.361803

>  <r_i_glide_esite>  (205) 
0

>  <r_i_glide_emodel>  (205) 
-35.4684

>  <r_i_glide_energy>  (205) 
-29.0832

>  <r_i_glide_einternal>  (205) 
0.037824

>  <r_i_glide_intrahb_reward>  (205) 
-0

>  <i_i_glide_confnum>  (205) 
5

>  <i_i_glide_posenum>  (205) 
2

>  <r_i_glide_eff_state_penalty>  (205) 
0

>  <ligand_id>  (205) 
62

>  <original_smiles>  (205) 
COC(=O)C1(c2cccnc2)C2CN3CCC3c3ccccc3C21

>  <smiles>  (205) 
[H]c1nc([H])c(C2(C(=O)OC([H])([H])[H])C3([H])c4c([H])c([H])c([H])c([H])c4C4([H])C([H])([H])C([H])([H])[N+]4([H])C([H])([H])C32[H])c([H])c1[H]

$$$$
62:0:2
     RDKit          3D

 45 49  0  0  1  0  0  0  0  0999 V2000
    3.3286   -2.5961    6.5067 C   0  0  0  0  0  0  0  0  0  0  0  0
    2.8425   -2.1895    5.2320 O   0  0  0  0  0  0  0  0  0  0  0  0
    3.6835   -1.6321    4.3375 C   0  0  0  0  0  0  0  0  0  0  0  0
    4.8881   -1.4440    4.5246 O   0  0  0  0  0  0  0  0  0  0  0  0
    3.0027   -1.2668    3.0322 C   0  0  1  0  0  0  0  0  0  0  0  0
    1.9312   -0.2090    3.1302 C   0  0  0  0  0  0  0  0  0  0  0  0
    2.1797    1.1232    2.7284 C   0  0  0  0  0  0  0  0  0  0  0  0
    1.1390    2.0676    2.8041 C   0  0  0  0  0  0  0  0  0  0  0  0
   -0.1146    1.6485    3.2826 C   0  0  0  0  0  0  0  0  0  0  0  0
   -0.3681    0.3850    3.6860 N   0  0  0  0  0  0  0  0  0  0  0  0
    0.6363   -0.5118    3.6035 C   0  0  0  0  0  0  0  0  0  0  0  0
    3.8372   -1.3252    1.7591 C   0  0  2  0  0  0  0  0  0  0  0  0
    3.6752   -0.7330    0.3726 C   0  0  0  0  0  0  0  0  0  0  0  0
    4.1972   -1.7412   -0.5876 N   0  0  2  0  0  0  0  0  0  0  0  0
    4.0344   -1.5055   -2.0204 C   0  0  0  0  0  0  0  0  0  0  0  0
    3.8889   -3.0266   -2.1509 C   0  0  0  0  0  0  0  0  0  0  0  0
    3.4210   -2.9853   -0.6990 C   0  0  1  0  0  0  0  0  0  0  0  0
    3.7610   -4.0115    0.3950 C   0  0  0  0  0  0  0  0  0  0  0  0
    4.3564   -5.2489    0.0713 C   0  0  0  0  0  0  0  0  0  0  0  0
    4.5938   -6.2008    1.0781 C   0  0  0  0  0  0  0  0  0  0  0  0
    4.2456   -5.9200    2.4111 C   0  0  0  0  0  0  0  0  0  0  0  0
    3.6641   -4.6836    2.7505 C   0  0  0  0  0  0  0  0  0  0  0  0
    3.4211   -3.7242    1.7460 C   0  0  0  0  0  0  0  0  0  0  0  0
    2.7942   -2.3903    2.0210 C   0  0  1  0  0  0  0  0  0  0  0  0
    2.5199   -3.0058    7.1132 H   0  0  0  0  0  0  0  0  0  0  0  0
    3.7589   -1.7610    7.0601 H   0  0  0  0  0  0  0  0  0  0  0  0
    4.0908   -3.3698    6.4143 H   0  0  0  0  0  0  0  0  0  0  0  0
    3.1476    1.4175    2.3474 H   0  0  0  0  0  0  0  0  0  0  0  0
    1.2873    3.0892    2.4782 H   0  0  0  0  0  0  0  0  0  0  0  0
   -0.9325    2.3517    3.3530 H   0  0  0  0  0  0  0  0  0  0  0  0
    0.3812   -1.5114    3.9174 H   0  0  0  0  0  0  0  0  0  0  0  0
    4.8854   -1.5656    1.9561 H   0  0  0  0  0  0  0  0  0  0  0  0
    2.6302   -0.4865    0.1834 H   0  0  0  0  0  0  0  0  0  0  0  0
    4.2545    0.1883    0.2984 H   0  0  0  0  0  0  0  0  0  0  0  0
    3.1238   -0.9627   -2.2856 H   0  0  0  0  0  0  0  0  0  0  0  0
    4.9183   -1.0948   -2.5162 H   0  0  0  0  0  0  0  0  0  0  0  0
    3.1204   -3.3540   -2.8550 H   0  0  0  0  0  0  0  0  0  0  0  0
    4.8477   -3.5320   -2.2997 H   0  0  0  0  0  0  0  0  0  0  0  0
    2.3455   -2.7928   -0.6910 H   0  0  0  0  0  0  0  0  0  0  0  0
    4.6088   -5.4924   -0.9510 H   0  0  0  0  0  0  0  0  0  0  0  0
    5.0311   -7.1558    0.8230 H   0  0  0  0  0  0  0  0  0  0  0  0
    4.4245   -6.6621    3.1761 H   0  0  0  0  0  0  0  0  0  0  0  0
    3.3951   -4.4852    3.7735 H   0  0  0  0  0  0  0  0  0  0  0  0
    1.8417   -2.3437    1.4944 H   0  0  0  0  0  0  0  0  0  0  0  0
    5.1615   -1.9866   -0.3996 H   0  0  0  0  0  0  0  0  0  0  0  0
  1  2  1  0
  1 25  1  0
  1 26  1  0
  1 27  1  0
  2  3  1  0
  3  4  2  0
  5  3  1  1
  5 24  1  0
  5  6  1  0
  5 12  1  0
  6 11  1  0
  6  7  2  0
  7  8  1  0
  7 28  1  0
  8  9  2  0
  8 29  1  0
  9 10  1  0
  9 30  1  0
 10 11  2  0
 11 31  1  0
 12 24  1  0
 12 13  1  0
 12 32  1  1
 13 14  1  0
 13 33  1  0
 13 34  1  0
 14 17  1  0
 14 15  1  0
 14 45  1  6
 15 16  1  0
 15 35  1  0
 15 36  1  0
 16 17  1  0
 16 37  1  0
 16 38  1  0
 17 18  1  0
 17 39  1  6
 18 23  2  0
 18 19  1  0
 19 20  2  0
 19 40  1  0
 20 21  1  0
 20 41  1  0
 21 22  2  0
 21 42  1  0
 22 23  1  0
 22 43  1  0
 23 24  1  0
 24 44  1  6
M  CHG  1  14   1
M  END
>  <i_m_ct_stereo_status>  (206) 
1

>  <s_m_source_file>  (206) 
/var/tmp/pbs.5076255.sched01/tmpthapbt4w/86pc0xbys0.sdf

>  <i_m_source_file_index>  (206) 
9

>  <i_lp_mmshare_version>  (206) 
48012

>  <i_f3d_flags>  (206) 
0

>  <s_epik_input>  (206) 
W2NIXTFuW2NIXVtjSF1bY0hdYzFbQ0BAXTIoQyg9TylPW0NIM10pW0NAQEhdKFtDQEhdMjMpYzRjKFtDQEhdNU4oW0NIMl0zKVtDSDJdW0NIMl01KVtjSF1bY0hdW2NIXVtjSF00

>  <s_epik_cmdline>  (206) 
J2VwaWtfcHl0aG9uJywgJy1waHQnLCAnMi4wJywgJy1waCcsICc3LjAnLCAnLXRuJywgJzgnLCAnLW1hJywgJzIwMCcsICctaW1hZScsICc8aW5maWxlLm1hZT4nLCAnLW9tYWUnLCAnPG91dGZpbGUubWFlPic=

>  <r_epik_Ionization_Penalty>  (206) 
0.0147527

>  <r_epik_Ionization_Penalty_Charging>  (206) 
0.0141887

>  <r_epik_Ionization_Penalty_Neutral>  (206) 
0.000563974

>  <r_epik_State_Penalty>  (206) 
0.0110845

>  <r_epik_Charging_Adjusted_Penalty>  (206) 
0.0252732

>  <i_epik_Tot_Q>  (206) 
1

>  <i_epik_Tot_abs_Q>  (206) 
1

>  <s_epik_Chemistry_Notes>  (206) 
This compound has an ester and may undergo hydrolysis at high or low pH.

>  <s_lp_Force_Field>  (206) 
OPLS3e

>  <r_lp_Energy>  (206) 
70.7063

>  <b_lp_Chiralities_Consistent>  (206) 
1

>  <s_lp_Variant>  (206) 
62:0-1

>  <s_i_glide_gridfile>  (206) 
pfpi4k_grid

>  <i_i_glide_lignum>  (206) 
9

>  <i_i_glide_rotatable_bonds>  (206) 
3

>  <r_i_docking_score>  (206) 
-2.83916

>  <r_i_glide_ligand_efficiency>  (206) 
-0.118298

>  <r_i_glide_ligand_efficiency_sa>  (206) 
-0.341231

>  <r_i_glide_ligand_efficiency_ln>  (206) 
-0.67954

>  <r_i_glide_gscore>  (206) 
-2.83916

>  <r_i_glide_lipo>  (206) 
-0.101259

>  <r_i_glide_hbond>  (206) 
0

>  <r_i_glide_metal>  (206) 
-0

>  <r_i_glide_rewards>  (206) 
-1.21779

>  <r_i_glide_evdw>  (206) 
-23.6365

>  <r_i_glide_ecoul>  (206) 
-4.43489

>  <r_i_glide_erotb>  (206) 
0.361803

>  <r_i_glide_esite>  (206) 
-0.0348465

>  <r_i_glide_emodel>  (206) 
-33.8549

>  <r_i_glide_energy>  (206) 
-28.0714

>  <r_i_glide_einternal>  (206) 
0.205276

>  <r_i_glide_intrahb_reward>  (206) 
-0

>  <i_i_glide_confnum>  (206) 
5

>  <i_i_glide_posenum>  (206) 
22

>  <r_i_glide_eff_state_penalty>  (206) 
0

>  <ligand_id>  (206) 
62

>  <original_smiles>  (206) 
COC(=O)C1(c2cccnc2)C2CN3CCC3c3ccccc3C21

>  <smiles>  (206) 
[H]c1nc([H])c(C2(C(=O)OC([H])([H])[H])C3([H])c4c([H])c([H])c([H])c([H])c4C4([H])C([H])([H])C([H])([H])[N+]4([H])C([H])([H])C32[H])c([H])c1[H]

$$$$
62:1:0
     RDKit          3D

 44 48  0  0  1  0  0  0  0  0999 V2000
   -3.2409    3.2203    2.6630 C   0  0  0  0  0  0  0  0  0  0  0  0
   -2.1361    2.6005    3.3084 O   0  0  0  0  0  0  0  0  0  0  0  0
   -1.3680    3.3141    4.1550 C   0  0  0  0  0  0  0  0  0  0  0  0
   -1.5770    4.4933    4.4522 O   0  0  0  0  0  0  0  0  0  0  0  0
   -0.2287    2.5015    4.7566 C   0  0  1  0  0  0  0  0  0  0  0  0
    0.4960    1.5933    3.7908 C   0  0  0  0  0  0  0  0  0  0  0  0
    1.5061    2.0865    2.9347 C   0  0  0  0  0  0  0  0  0  0  0  0
    2.1743    1.1821    2.0845 C   0  0  0  0  0  0  0  0  0  0  0  0
    1.7889   -0.1688    2.0953 C   0  0  0  0  0  0  0  0  0  0  0  0
    0.8213   -0.6528    2.8995 N   0  0  0  0  0  0  0  0  0  0  0  0
    0.1887    0.2183    3.7093 C   0  0  0  0  0  0  0  0  0  0  0  0
    0.5734    3.1253    5.8965 C   0  0  2  0  0  0  0  0  0  0  0  0
    1.9531    2.8034    6.4006 C   0  0  0  0  0  0  0  0  0  0  0  0
    2.0167    2.8608    7.8619 N   0  0  0  0  0  0  0  0  0  0  0  0
    2.2401    4.1278    8.5189 C   0  0  0  0  0  0  0  0  0  0  0  0
    1.6951    3.4253    9.7699 C   0  0  0  0  0  0  0  0  0  0  0  0
    0.9502    2.4625    8.8146 C   0  0  1  0  0  0  0  0  0  0  0  0
   -0.5626    2.7144    8.5840 C   0  0  0  0  0  0  0  0  0  0  0  0
   -1.3531    3.0705    9.6981 C   0  0  0  0  0  0  0  0  0  0  0  0
   -2.7476    3.1991    9.5851 C   0  0  0  0  0  0  0  0  0  0  0  0
   -3.3797    2.9447    8.3577 C   0  0  0  0  0  0  0  0  0  0  0  0
   -2.6142    2.5760    7.2392 C   0  0  0  0  0  0  0  0  0  0  0  0
   -1.2156    2.4534    7.3492 C   0  0  0  0  0  0  0  0  0  0  0  0
   -0.3842    2.0182    6.2055 C   0  0  1  0  0  0  0  0  0  0  0  0
   -3.7022    2.5375    1.9482 H   0  0  0  0  0  0  0  0  0  0  0  0
   -2.9509    4.1225    2.1202 H   0  0  0  0  0  0  0  0  0  0  0  0
   -4.0054    3.4787    3.3918 H   0  0  0  0  0  0  0  0  0  0  0  0
    1.7784    3.1341    2.9468 H   0  0  0  0  0  0  0  0  0  0  0  0
    2.9791    1.5060    1.4380 H   0  0  0  0  0  0  0  0  0  0  0  0
    2.2772   -0.8868    1.4518 H   0  0  0  0  0  0  0  0  0  0  0  0
   -0.5781   -0.2237    4.3240 H   0  0  0  0  0  0  0  0  0  0  0  0
    0.2718    4.1416    6.1513 H   0  0  0  0  0  0  0  0  0  0  0  0
    2.2262    1.7959    6.1026 H   0  0  0  0  0  0  0  0  0  0  0  0
    2.6788    3.4919    5.9636 H   0  0  0  0  0  0  0  0  0  0  0  0
    3.3022    4.3621    8.5489 H   0  0  0  0  0  0  0  0  0  0  0  0
    1.6190    4.9189    8.0989 H   0  0  0  0  0  0  0  0  0  0  0  0
    2.4801    2.9273   10.3443 H   0  0  0  0  0  0  0  0  0  0  0  0
    1.0810    4.0755   10.3927 H   0  0  0  0  0  0  0  0  0  0  0  0
    1.1053    1.4177    9.0809 H   0  0  0  0  0  0  0  0  0  0  0  0
   -0.9038    3.2212   10.6700 H   0  0  0  0  0  0  0  0  0  0  0  0
   -3.3323    3.4682   10.4561 H   0  0  0  0  0  0  0  0  0  0  0  0
   -4.4575    3.0196    8.2875 H   0  0  0  0  0  0  0  0  0  0  0  0
   -3.0982    2.3705    6.2979 H   0  0  0  0  0  0  0  0  0  0  0  0
    0.0166    1.0340    6.4385 H   0  0  0  0  0  0  0  0  0  0  0  0
  1  2  1  0
  1 25  1  0
  1 26  1  0
  1 27  1  0
  2  3  1  0
  3  4  2  0
  5  3  1  6
  5 24  1  0
  5  6  1  0
  5 12  1  0
  6 11  1  0
  6  7  2  0
  7  8  1  0
  7 28  1  0
  8  9  2  0
  8 29  1  0
  9 10  1  0
  9 30  1  0
 10 11  2  0
 11 31  1  0
 12 24  1  0
 12 13  1  0
 12 32  1  1
 13 14  1  0
 13 33  1  0
 13 34  1  0
 14 17  1  0
 14 15  1  0
 15 16  1  0
 15 35  1  0
 15 36  1  0
 16 17  1  0
 16 37  1  0
 16 38  1  0
 17 18  1  0
 17 39  1  1
 18 23  2  0
 18 19  1  0
 19 20  2  0
 19 40  1  0
 20 21  1  0
 20 41  1  0
 21 22  2  0
 21 42  1  0
 22 23  1  0
 22 43  1  0
 23 24  1  0
 24 44  1  6
M  END
>  <i_m_ct_stereo_status>  (207) 
1

>  <s_m_source_file>  (207) 
/var/tmp/pbs.5076255.sched01/tmpthapbt4w/86pc0xbys0.sdf

>  <i_m_source_file_index>  (207) 
10

>  <i_lp_mmshare_version>  (207) 
48012

>  <i_f3d_flags>  (207) 
0

>  <s_epik_input>  (207) 
W2NIXTFuW2NIXVtjSF1bY0hdYzFbQ0BAXTIoQyg9TylPW0NIM10pW0NAQEhdKFtDQEhdMjMpYzRjKFtDQEhdNU4oW0NIMl0zKVtDSDJdW0NIMl01KVtjSF1bY0hdW2NIXVtjSF00

>  <s_epik_cmdline>  (207) 
J2VwaWtfcHl0aG9uJywgJy1waHQnLCAnMi4wJywgJy1waCcsICc3LjAnLCAnLXRuJywgJzgnLCAnLW1hJywgJzIwMCcsICctaW1hZScsICc8aW5maWxlLm1hZT4nLCAnLW9tYWUnLCAnPG91dGZpbGUubWFlPic=

>  <r_epik_Ionization_Penalty>  (207) 
2.22099

>  <r_epik_Ionization_Penalty_Charging>  (207) 
0

>  <r_epik_Ionization_Penalty_Neutral>  (207) 
2.22099

>  <r_epik_State_Penalty>  (207) 
2.3629

>  <r_epik_Charging_Adjusted_Penalty>  (207) 
2.3629

>  <i_epik_Tot_Q>  (207) 
0

>  <i_epik_Tot_abs_Q>  (207) 
0

>  <s_epik_Chemistry_Notes>  (207) 
This compound has an ester and may undergo hydrolysis at high or low pH.

>  <s_lp_Force_Field>  (207) 
OPLS3e

>  <r_lp_Energy>  (207) 
79.9392

>  <b_lp_Chiralities_Consistent>  (207) 
1

>  <s_lp_Variant>  (207) 
62:0-2

>  <s_i_glide_gridfile>  (207) 
pfpi4k_grid

>  <i_i_glide_lignum>  (207) 
10

>  <i_i_glide_rotatable_bonds>  (207) 
3

>  <r_i_docking_score>  (207) 
-2.52075

>  <r_i_glide_ligand_efficiency>  (207) 
-0.105031

>  <r_i_glide_ligand_efficiency_sa>  (207) 
-0.302962

>  <r_i_glide_ligand_efficiency_ln>  (207) 
-0.60333

>  <r_i_glide_gscore>  (207) 
-2.52075

>  <r_i_glide_lipo>  (207) 
-0.167816

>  <r_i_glide_hbond>  (207) 
-0.0857814

>  <r_i_glide_metal>  (207) 
-0

>  <r_i_glide_rewards>  (207) 
-1.22465

>  <r_i_glide_evdw>  (207) 
-22.8746

>  <r_i_glide_ecoul>  (207) 
-1.45378

>  <r_i_glide_erotb>  (207) 
0.363812

>  <r_i_glide_esite>  (207) 
-0.0445156

>  <r_i_glide_emodel>  (207) 
-28.426

>  <r_i_glide_energy>  (207) 
-24.3284

>  <r_i_glide_einternal>  (207) 
0.485189

>  <r_i_glide_intrahb_reward>  (207) 
-0

>  <i_i_glide_confnum>  (207) 
5

>  <i_i_glide_posenum>  (207) 
27

>  <r_i_glide_eff_state_penalty>  (207) 
0

>  <ligand_id>  (207) 
62

>  <original_smiles>  (207) 
COC(=O)C1(c2cccnc2)C2CN3CCC3c3ccccc3C21

>  <smiles>  (207) 
[H]c1nc([H])c(C2(C(=O)OC([H])([H])[H])C3([H])c4c([H])c([H])c([H])c([H])c4C4([H])N(C([H])([H])C4([H])[H])C([H])([H])C32[H])c([H])c1[H]

$$$$
62:1:1
     RDKit          3D

 44 48  0  0  1  0  0  0  0  0999 V2000
    2.5584   -2.7455    4.6045 C   0  0  0  0  0  0  0  0  0  0  0  0
    3.2976   -3.4302    3.5964 O   0  0  0  0  0  0  0  0  0  0  0  0
    2.6409   -4.2592    2.7537 C   0  0  0  0  0  0  0  0  0  0  0  0
    1.4384   -4.4925    2.8588 O   0  0  0  0  0  0  0  0  0  0  0  0
    3.5070   -4.8187    1.6209 C   0  0  1  0  0  0  0  0  0  0  0  0
    3.9400   -3.7990    0.5429 C   0  0  0  0  0  0  0  0  0  0  0  0
    3.8036   -2.3955    0.7284 C   0  0  0  0  0  0  0  0  0  0  0  0
    4.2483   -1.5019   -0.2671 C   0  0  0  0  0  0  0  0  0  0  0  0
    4.8193   -2.0323   -1.4341 C   0  0  0  0  0  0  0  0  0  0  0  0
    4.9387   -3.3503   -1.6534 N   0  0  0  0  0  0  0  0  0  0  0  0
    4.4919   -4.1987   -0.7063 C   0  0  0  0  0  0  0  0  0  0  0  0
    4.4525   -5.9587    2.0000 C   0  0  2  0  0  0  0  0  0  0  0  0
    5.7305   -6.4450    1.3507 C   0  0  0  0  0  0  0  0  0  0  0  0
    5.8161   -7.9088    1.3272 N   0  0  0  0  0  0  0  0  0  0  0  0
    6.3897   -8.6082    2.4523 C   0  0  0  0  0  0  0  0  0  0  0  0
    5.6818   -9.8462    1.8826 C   0  0  0  0  0  0  0  0  0  0  0  0
    4.6938   -8.8696    1.1922 C   0  0  1  0  0  0  0  0  0  0  0  0
    3.2966   -8.6825    1.8433 C   0  0  0  0  0  0  0  0  0  0  0  0
    2.6455   -9.8266    2.3622 C   0  0  0  0  0  0  0  0  0  0  0  0
    1.3331   -9.7531    2.8662 C   0  0  0  0  0  0  0  0  0  0  0  0
    0.6237   -8.5437    2.8018 C   0  0  0  0  0  0  0  0  0  0  0  0
    1.2255   -7.4147    2.2274 C   0  0  0  0  0  0  0  0  0  0  0  0
    2.5667   -7.4611    1.7857 C   0  0  0  0  0  0  0  0  0  0  0  0
    3.2428   -6.2823    1.1813 C   0  0  1  0  0  0  0  0  0  0  0  0
    3.1993   -2.0274    5.1221 H   0  0  0  0  0  0  0  0  0  0  0  0
    2.1746   -3.4616    5.3337 H   0  0  0  0  0  0  0  0  0  0  0  0
    1.7045   -2.1956    4.1948 H   0  0  0  0  0  0  0  0  0  0  0  0
    3.3624   -1.9550    1.6094 H   0  0  0  0  0  0  0  0  0  0  0  0
    4.1374   -0.4340   -0.1377 H   0  0  0  0  0  0  0  0  0  0  0  0
    5.1767   -1.3831   -2.2262 H   0  0  0  0  0  0  0  0  0  0  0  0
    4.5935   -5.2286   -1.0012 H   0  0  0  0  0  0  0  0  0  0  0  0
    4.4229   -6.2108    3.0624 H   0  0  0  0  0  0  0  0  0  0  0  0
    5.8093   -6.1452    0.3114 H   0  0  0  0  0  0  0  0  0  0  0  0
    6.6039   -6.0314    1.8687 H   0  0  0  0  0  0  0  0  0  0  0  0
    7.4739   -8.6089    2.3890 H   0  0  0  0  0  0  0  0  0  0  0  0
    5.9968   -8.2221    3.3870 H   0  0  0  0  0  0  0  0  0  0  0  0
    6.2984  -10.4062    1.1761 H   0  0  0  0  0  0  0  0  0  0  0  0
    5.2669  -10.4922    2.6568 H   0  0  0  0  0  0  0  0  0  0  0  0
    4.5760   -9.1091    0.1382 H   0  0  0  0  0  0  0  0  0  0  0  0
    3.1358  -10.7880    2.3467 H   0  0  0  0  0  0  0  0  0  0  0  0
    0.8510  -10.6352    3.2623 H   0  0  0  0  0  0  0  0  0  0  0  0
   -0.3903   -8.4840    3.1619 H   0  0  0  0  0  0  0  0  0  0  0  0
    0.6286   -6.5281    2.1156 H   0  0  0  0  0  0  0  0  0  0  0  0
    3.3471   -6.4900    0.1214 H   0  0  0  0  0  0  0  0  0  0  0  0
  1  2  1  0
  1 25  1  0
  1 26  1  0
  1 27  1  0
  2  3  1  0
  3  4  2  0
  5  3  1  1
  5 24  1  0
  5  6  1  0
  5 12  1  0
  6 11  1  0
  6  7  2  0
  7  8  1  0
  7 28  1  0
  8  9  2  0
  8 29  1  0
  9 10  1  0
  9 30  1  0
 10 11  2  0
 11 31  1  0
 12 24  1  0
 12 13  1  0
 12 32  1  1
 13 14  1  0
 13 33  1  0
 13 34  1  0
 14 17  1  0
 14 15  1  0
 15 16  1  0
 15 35  1  0
 15 36  1  0
 16 17  1  0
 16 37  1  0
 16 38  1  0
 17 18  1  0
 17 39  1  6
 18 23  2  0
 18 19  1  0
 19 20  2  0
 19 40  1  0
 20 21  1  0
 20 41  1  0
 21 22  2  0
 21 42  1  0
 22 23  1  0
 22 43  1  0
 23 24  1  0
 24 44  1  6
M  END
>  <i_m_ct_stereo_status>  (208) 
1

>  <s_m_source_file>  (208) 
/var/tmp/pbs.5076255.sched01/tmpthapbt4w/86pc0xbys0.sdf

>  <i_m_source_file_index>  (208) 
10

>  <i_lp_mmshare_version>  (208) 
48012

>  <i_f3d_flags>  (208) 
0

>  <s_epik_input>  (208) 
W2NIXTFuW2NIXVtjSF1bY0hdYzFbQ0BAXTIoQyg9TylPW0NIM10pW0NAQEhdKFtDQEhdMjMpYzRjKFtDQEhdNU4oW0NIMl0zKVtDSDJdW0NIMl01KVtjSF1bY0hdW2NIXVtjSF00

>  <s_epik_cmdline>  (208) 
J2VwaWtfcHl0aG9uJywgJy1waHQnLCAnMi4wJywgJy1waCcsICc3LjAnLCAnLXRuJywgJzgnLCAnLW1hJywgJzIwMCcsICctaW1hZScsICc8aW5maWxlLm1hZT4nLCAnLW9tYWUnLCAnPG91dGZpbGUubWFlPic=

>  <r_epik_Ionization_Penalty>  (208) 
2.22099

>  <r_epik_Ionization_Penalty_Charging>  (208) 
0

>  <r_epik_Ionization_Penalty_Neutral>  (208) 
2.22099

>  <r_epik_State_Penalty>  (208) 
2.3629

>  <r_epik_Charging_Adjusted_Penalty>  (208) 
2.3629

>  <i_epik_Tot_Q>  (208) 
0

>  <i_epik_Tot_abs_Q>  (208) 
0

>  <s_epik_Chemistry_Notes>  (208) 
This compound has an ester and may undergo hydrolysis at high or low pH.

>  <s_lp_Force_Field>  (208) 
OPLS3e

>  <r_lp_Energy>  (208) 
79.9392

>  <b_lp_Chiralities_Consistent>  (208) 
1

>  <s_lp_Variant>  (208) 
62:0-2

>  <s_i_glide_gridfile>  (208) 
pfpi4k_grid

>  <i_i_glide_lignum>  (208) 
10

>  <i_i_glide_rotatable_bonds>  (208) 
3

>  <r_i_docking_score>  (208) 
-2.42391

>  <r_i_glide_ligand_efficiency>  (208) 
-0.100996

>  <r_i_glide_ligand_efficiency_sa>  (208) 
-0.291323

>  <r_i_glide_ligand_efficiency_ln>  (208) 
-0.580152

>  <r_i_glide_gscore>  (208) 
-2.42391

>  <r_i_glide_lipo>  (208) 
-0.278638

>  <r_i_glide_hbond>  (208) 
0

>  <r_i_glide_metal>  (208) 
-0

>  <r_i_glide_rewards>  (208) 
-1.22465

>  <r_i_glide_evdw>  (208) 
-26.8132

>  <r_i_glide_ecoul>  (208) 
0.396169

>  <r_i_glide_erotb>  (208) 
0.363812

>  <r_i_glide_esite>  (208) 
-0.00319756

>  <r_i_glide_emodel>  (208) 
-27.0708

>  <r_i_glide_energy>  (208) 
-26.417

>  <r_i_glide_einternal>  (208) 
5.21213

>  <r_i_glide_intrahb_reward>  (208) 
-0

>  <i_i_glide_confnum>  (208) 
2

>  <i_i_glide_posenum>  (208) 
2

>  <r_i_glide_eff_state_penalty>  (208) 
0

>  <ligand_id>  (208) 
62

>  <original_smiles>  (208) 
COC(=O)C1(c2cccnc2)C2CN3CCC3c3ccccc3C21

>  <smiles>  (208) 
[H]c1nc([H])c(C2(C(=O)OC([H])([H])[H])C3([H])c4c([H])c([H])c([H])c([H])c4C4([H])N(C([H])([H])C4([H])[H])C([H])([H])C32[H])c([H])c1[H]

$$$$
62:1:2
     RDKit          3D

 44 48  0  0  1  0  0  0  0  0999 V2000
   -0.2745   -2.2414    6.4783 C   0  0  0  0  0  0  0  0  0  0  0  0
   -0.6068   -0.8581    6.5401 O   0  0  0  0  0  0  0  0  0  0  0  0
    0.2212    0.0092    7.1523 C   0  0  0  0  0  0  0  0  0  0  0  0
    1.1895   -0.3143    7.8412 O   0  0  0  0  0  0  0  0  0  0  0  0
   -0.1676    1.4585    6.9386 C   0  0  1  0  0  0  0  0  0  0  0  0
   -1.2130    1.9919    7.8929 C   0  0  0  0  0  0  0  0  0  0  0  0
   -0.9445    2.1213    9.2751 C   0  0  0  0  0  0  0  0  0  0  0  0
   -1.9433    2.6517   10.1170 C   0  0  0  0  0  0  0  0  0  0  0  0
   -3.1634    3.0514    9.5466 C   0  0  0  0  0  0  0  0  0  0  0  0
   -3.4319    2.9406    8.2300 N   0  0  0  0  0  0  0  0  0  0  0  0
   -2.4859    2.4131    7.4388 C   0  0  0  0  0  0  0  0  0  0  0  0
    0.9309    2.4062    6.4629 C   0  0  2  0  0  0  0  0  0  0  0  0
    1.0285    3.9064    6.5568 C   0  0  0  0  0  0  0  0  0  0  0  0
    1.5660    4.5001    5.3291 N   0  0  0  0  0  0  0  0  0  0  0  0
    2.9991    4.5841    5.1437 C   0  0  0  0  0  0  0  0  0  0  0  0
    2.6685    4.7646    3.6553 C   0  0  0  0  0  0  0  0  0  0  0  0
    1.3395    4.0226    3.9399 C   0  0  1  0  0  0  0  0  0  0  0  0
    1.2627    2.5251    3.5415 C   0  0  0  0  0  0  0  0  0  0  0  0
    1.8246    2.1455    2.3063 C   0  0  0  0  0  0  0  0  0  0  0  0
    1.6994    0.8317    1.8215 C   0  0  0  0  0  0  0  0  0  0  0  0
    0.9549   -0.1147    2.5373 C   0  0  0  0  0  0  0  0  0  0  0  0
    0.3380    0.2553    3.7390 C   0  0  0  0  0  0  0  0  0  0  0  0
    0.5039    1.5591    4.2531 C   0  0  0  0  0  0  0  0  0  0  0  0
   -0.1439    2.0022    5.5048 C   0  0  1  0  0  0  0  0  0  0  0  0
   -1.0100   -2.7772    5.8739 H   0  0  0  0  0  0  0  0  0  0  0  0
   -0.2553   -2.7024    7.4673 H   0  0  0  0  0  0  0  0  0  0  0  0
    0.6979   -2.3937    6.0069 H   0  0  0  0  0  0  0  0  0  0  0  0
    0.0046    1.8199    9.6969 H   0  0  0  0  0  0  0  0  0  0  0  0
   -1.7939    2.7561   11.1864 H   0  0  0  0  0  0  0  0  0  0  0  0
   -3.9610    3.4421   10.1592 H   0  0  0  0  0  0  0  0  0  0  0  0
   -2.7699    2.3388    6.4022 H   0  0  0  0  0  0  0  0  0  0  0  0
    1.9099    1.9276    6.3639 H   0  0  0  0  0  0  0  0  0  0  0  0
    0.0373    4.3222    6.7142 H   0  0  0  0  0  0  0  0  0  0  0  0
    1.6422    4.1916    7.4127 H   0  0  0  0  0  0  0  0  0  0  0  0
    3.4013    5.4660    5.6382 H   0  0  0  0  0  0  0  0  0  0  0  0
    3.4977    3.6535    5.4120 H   0  0  0  0  0  0  0  0  0  0  0  0
    2.5210    5.8091    3.3771 H   0  0  0  0  0  0  0  0  0  0  0  0
    3.3781    4.2668    2.9952 H   0  0  0  0  0  0  0  0  0  0  0  0
    0.4860    4.5569    3.5247 H   0  0  0  0  0  0  0  0  0  0  0  0
    2.3189    2.8806    1.6928 H   0  0  0  0  0  0  0  0  0  0  0  0
    2.1275    0.5542    0.8703 H   0  0  0  0  0  0  0  0  0  0  0  0
    0.8202   -1.1115    2.1406 H   0  0  0  0  0  0  0  0  0  0  0  0
   -0.2871   -0.4709    4.2219 H   0  0  0  0  0  0  0  0  0  0  0  0
   -0.8879    2.7469    5.2311 H   0  0  0  0  0  0  0  0  0  0  0  0
  1  2  1  0
  1 25  1  0
  1 26  1  0
  1 27  1  0
  2  3  1  0
  3  4  2  0
  5  3  1  6
  5 24  1  0
  5  6  1  0
  5 12  1  0
  6 11  1  0
  6  7  2  0
  7  8  1  0
  7 28  1  0
  8  9  2  0
  8 29  1  0
  9 10  1  0
  9 30  1  0
 10 11  2  0
 11 31  1  0
 12 24  1  0
 12 13  1  0
 12 32  1  6
 13 14  1  0
 13 33  1  0
 13 34  1  0
 14 17  1  0
 14 15  1  0
 15 16  1  0
 15 35  1  0
 15 36  1  0
 16 17  1  0
 16 37  1  0
 16 38  1  0
 17 18  1  0
 17 39  1  6
 18 23  2  0
 18 19  1  0
 19 20  2  0
 19 40  1  0
 20 21  1  0
 20 41  1  0
 21 22  2  0
 21 42  1  0
 22 23  1  0
 22 43  1  0
 23 24  1  0
 24 44  1  6
M  END
>  <i_m_ct_stereo_status>  (209) 
1

>  <s_m_source_file>  (209) 
/var/tmp/pbs.5076255.sched01/tmpthapbt4w/86pc0xbys0.sdf

>  <i_m_source_file_index>  (209) 
10

>  <i_lp_mmshare_version>  (209) 
48012

>  <i_f3d_flags>  (209) 
0

>  <s_epik_input>  (209) 
W2NIXTFuW2NIXVtjSF1bY0hdYzFbQ0BAXTIoQyg9TylPW0NIM10pW0NAQEhdKFtDQEhdMjMpYzRjKFtDQEhdNU4oW0NIMl0zKVtDSDJdW0NIMl01KVtjSF1bY0hdW2NIXVtjSF00

>  <s_epik_cmdline>  (209) 
J2VwaWtfcHl0aG9uJywgJy1waHQnLCAnMi4wJywgJy1waCcsICc3LjAnLCAnLXRuJywgJzgnLCAnLW1hJywgJzIwMCcsICctaW1hZScsICc8aW5maWxlLm1hZT4nLCAnLW9tYWUnLCAnPG91dGZpbGUubWFlPic=

>  <r_epik_Ionization_Penalty>  (209) 
2.22099

>  <r_epik_Ionization_Penalty_Charging>  (209) 
0

>  <r_epik_Ionization_Penalty_Neutral>  (209) 
2.22099

>  <r_epik_State_Penalty>  (209) 
2.3629

>  <r_epik_Charging_Adjusted_Penalty>  (209) 
2.3629

>  <i_epik_Tot_Q>  (209) 
0

>  <i_epik_Tot_abs_Q>  (209) 
0

>  <s_epik_Chemistry_Notes>  (209) 
This compound has an ester and may undergo hydrolysis at high or low pH.

>  <s_lp_Force_Field>  (209) 
OPLS3e

>  <r_lp_Energy>  (209) 
79.9392

>  <b_lp_Chiralities_Consistent>  (209) 
1

>  <s_lp_Variant>  (209) 
62:0-2

>  <s_i_glide_gridfile>  (209) 
pfpi4k_grid

>  <i_i_glide_lignum>  (209) 
10

>  <i_i_glide_rotatable_bonds>  (209) 
3

>  <r_i_docking_score>  (209) 
-2.39381

>  <r_i_glide_ligand_efficiency>  (209) 
-0.099742

>  <r_i_glide_ligand_efficiency_sa>  (209) 
-0.287706

>  <r_i_glide_ligand_efficiency_ln>  (209) 
-0.572948

>  <r_i_glide_gscore>  (209) 
-2.39381

>  <r_i_glide_lipo>  (209) 
-0.0619741

>  <r_i_glide_hbond>  (209) 
-0.0119899

>  <r_i_glide_metal>  (209) 
-0

>  <r_i_glide_rewards>  (209) 
-1.22465

>  <r_i_glide_evdw>  (209) 
-23.0959

>  <r_i_glide_ecoul>  (209) 
-1.84536

>  <r_i_glide_erotb>  (209) 
0.363812

>  <r_i_glide_esite>  (209) 
-0.0274109

>  <r_i_glide_emodel>  (209) 
-27.8839

>  <r_i_glide_energy>  (209) 
-24.9412

>  <r_i_glide_einternal>  (209) 
1.40262

>  <r_i_glide_intrahb_reward>  (209) 
-0

>  <i_i_glide_confnum>  (209) 
5

>  <i_i_glide_posenum>  (209) 
20

>  <r_i_glide_eff_state_penalty>  (209) 
0

>  <ligand_id>  (209) 
62

>  <original_smiles>  (209) 
COC(=O)C1(c2cccnc2)C2CN3CCC3c3ccccc3C21

>  <smiles>  (209) 
[H]c1nc([H])c(C2(C(=O)OC([H])([H])[H])C3([H])c4c([H])c([H])c([H])c([H])c4C4([H])N(C([H])([H])C4([H])[H])C([H])([H])C32[H])c([H])c1[H]

$$$$
63:0:0
     RDKit          3D

 46 51  0  0  1  0  0  0  0  0999 V2000
    2.9880   -1.2656   -3.0935 C   0  0  0  0  0  0  0  0  0  0  0  0
    3.0893   -1.9345   -1.7771 N   0  0  1  0  0  0  0  0  0  0  0  0
    3.4253   -3.3939   -1.8842 C   0  0  0  0  0  0  0  0  0  0  0  0
    4.7887   -3.5956   -1.1940 C   0  0  1  0  0  0  0  0  0  0  0  0
    5.3545   -2.1809   -1.1107 C   0  0  2  0  0  0  0  0  0  0  0  0
    6.1826   -2.2627    0.1541 C   0  0  2  0  0  0  0  0  0  0  0  0
    6.5417   -3.7492    0.2580 C   0  0  0  0  0  0  0  0  0  0  0  0
    5.0630   -4.2012    0.2580 C   0  0  1  0  0  0  0  0  0  0  0  0
    4.6190   -3.4395    1.5931 C   0  0  1  0  0  0  0  0  0  0  0  0
    5.2865   -3.9937    2.7163 O   0  0  0  0  0  0  0  0  0  0  0  0
    5.1164   -2.0601    1.2342 C   0  0  2  0  0  0  0  0  0  0  0  0
    3.8079   -1.4438    0.6409 C   0  0  2  0  0  0  0  0  0  0  0  0
    3.5038   -0.2161    1.5137 C   0  0  0  0  0  0  0  0  0  0  0  0
    3.3410   -0.6589    3.0150 C   0  0  0  0  0  0  0  0  0  0  0  0
    3.0510   -2.1899    3.3063 C   0  0  1  0  0  0  0  0  0  0  0  0
    1.7567   -2.2605    3.8763 O   0  0  0  0  0  0  0  0  0  0  0  0
    3.1546   -3.1866    2.0785 C   0  0  2  0  0  0  0  0  0  0  0  0
    2.3968   -4.5144    2.3037 C   0  0  0  0  0  0  0  0  0  0  0  0
    2.6070   -2.3910    0.9485 C   0  0  0  0  0  0  0  0  0  0  0  0
    4.1101   -1.3051   -0.8874 C   0  0  2  0  0  0  0  0  0  0  0  0
    3.9390   -1.2865   -3.6297 H   0  0  0  0  0  0  0  0  0  0  0  0
    2.6883   -0.2269   -2.9615 H   0  0  0  0  0  0  0  0  0  0  0  0
    2.2344   -1.7548   -3.7121 H   0  0  0  0  0  0  0  0  0  0  0  0
    2.6554   -4.0741   -1.5227 H   0  0  0  0  0  0  0  0  0  0  0  0
    3.5450   -3.6549   -2.9384 H   0  0  0  0  0  0  0  0  0  0  0  0
    5.3815   -4.1878   -1.8955 H   0  0  0  0  0  0  0  0  0  0  0  0
    5.9192   -1.9170   -2.0064 H   0  0  0  0  0  0  0  0  0  0  0  0
    7.0165   -1.5595    0.2015 H   0  0  0  0  0  0  0  0  0  0  0  0
    7.1272   -4.1055   -0.5924 H   0  0  0  0  0  0  0  0  0  0  0  0
    7.1245   -3.9921    1.1474 H   0  0  0  0  0  0  0  0  0  0  0  0
    4.9321   -5.2837    0.3052 H   0  0  0  0  0  0  0  0  0  0  0  0
    6.1886   -4.1383    2.4809 H   0  0  0  0  0  0  0  0  0  0  0  0
    5.5439   -1.5423    2.0931 H   0  0  0  0  0  0  0  0  0  0  0  0
    4.2948    0.5301    1.4302 H   0  0  0  0  0  0  0  0  0  0  0  0
    2.5913    0.2719    1.1675 H   0  0  0  0  0  0  0  0  0  0  0  0
    4.2578   -0.3974    3.5448 H   0  0  0  0  0  0  0  0  0  0  0  0
    2.5843   -0.0291    3.4869 H   0  0  0  0  0  0  0  0  0  0  0  0
    3.7282   -2.5170    4.0979 H   0  0  0  0  0  0  0  0  0  0  0  0
    1.6414   -3.1325    4.2227 H   0  0  0  0  0  0  0  0  0  0  0  0
    1.3267   -4.3522    2.4264 H   0  0  0  0  0  0  0  0  0  0  0  0
    2.7512   -5.0274    3.1978 H   0  0  0  0  0  0  0  0  0  0  0  0
    2.5311   -5.1904    1.4591 H   0  0  0  0  0  0  0  0  0  0  0  0
    1.6943   -1.8565    1.2202 H   0  0  0  0  0  0  0  0  0  0  0  0
    2.2812   -3.0990    0.2128 H   0  0  0  0  0  0  0  0  0  0  0  0
    4.3078   -0.2608   -1.1375 H   0  0  0  0  0  0  0  0  0  0  0  0
    2.1736   -1.8097   -1.3404 H   0  0  0  0  0  0  0  0  0  0  0  0
  1  2  1  0
  1 21  1  0
  1 22  1  0
  1 23  1  0
  2 20  1  0
  2  3  1  0
  2 46  1  1
  3  4  1  0
  3 24  1  0
  3 25  1  0
  4  8  1  0
  4  5  1  0
  4 26  1  6
  5 20  1  0
  5  6  1  0
  5 27  1  6
  6 11  1  0
  6  7  1  0
  6 28  1  6
  7  8  1  0
  7 29  1  0
  7 30  1  0
  8  9  1  0
  8 31  1  6
  9 17  1  0
  9 10  1  1
  9 11  1  0
 10 32  1  0
 11 12  1  0
 11 33  1  1
 12 19  1  0
 12 13  1  1
 12 20  1  0
 13 14  1  0
 13 34  1  0
 13 35  1  0
 14 15  1  0
 14 36  1  0
 14 37  1  0
 15 16  1  0
 15 17  1  0
 15 38  1  1
 16 39  1  0
 17 18  1  1
 17 19  1  0
 18 40  1  0
 18 41  1  0
 18 42  1  0
 19 43  1  0
 19 44  1  0
 20 45  1  6
M  CHG  1   2   1
M  END
>  <i_m_ct_stereo_status>  (210) 
1

>  <s_m_source_file>  (210) 
/var/tmp/pbs.5076255.sched01/tmpthapbt4w/86pc0xbys0.sdf

>  <i_m_source_file_index>  (210) 
11

>  <i_lp_mmshare_version>  (210) 
48012

>  <i_f3d_flags>  (210) 
0

>  <s_epik_input>  (210) 
W0NAQF0xMjNbQ0BASF00W0NAQEhdNVtDQEhdNltDQEhdKFtDSDJdTihbQ0gzXSlbQ0BASF0zNilbQ0BASF0oW0NIMl01KVtDQF00KFtPSF0pW0NAXShbQ0gzXSkoW0NIMl0yKVtDQEhdKFtPSF0pW0NIMl1bQ0gyXTE=

>  <s_epik_cmdline>  (210) 
J2VwaWtfcHl0aG9uJywgJy1waHQnLCAnMi4wJywgJy1waCcsICc3LjAnLCAnLXRuJywgJzgnLCAnLW1hJywgJzIwMCcsICctaW1hZScsICc8aW5maWxlLm1hZT4nLCAnLW9tYWUnLCAnPG91dGZpbGUubWFlPic=

>  <r_lp_tautomer_probability>  (210) 
1

>  <r_epik_Ionization_Penalty>  (210) 
0.000261185

>  <r_epik_Ionization_Penalty_Charging>  (210) 
0.000260231

>  <r_epik_Ionization_Penalty_Neutral>  (210) 
9.54076e-07

>  <r_epik_State_Penalty>  (210) 
-0

>  <r_epik_Charging_Adjusted_Penalty>  (210) 
0.000260231

>  <i_epik_Tot_Q>  (210) 
1

>  <i_epik_Tot_abs_Q>  (210) 
1

>  <s_lp_Force_Field>  (210) 
OPLS3e

>  <r_lp_Energy>  (210) 
103.952

>  <b_lp_Chiralities_Consistent>  (210) 
1

>  <s_lp_Variant>  (210) 
63:0-1

>  <s_i_glide_gridfile>  (210) 
pfpi4k_grid

>  <i_i_glide_lignum>  (210) 
11

>  <i_i_glide_rotatable_bonds>  (210) 
2

>  <r_i_docking_score>  (210) 
-3.60492

>  <r_i_glide_ligand_efficiency>  (210) 
-0.180246

>  <r_i_glide_ligand_efficiency_sa>  (210) 
-0.489262

>  <r_i_glide_ligand_efficiency_ln>  (210) 
-0.902191

>  <r_i_glide_gscore>  (210) 
-3.60492

>  <r_i_glide_lipo>  (210) 
-0.280465

>  <r_i_glide_hbond>  (210) 
-0.2

>  <r_i_glide_metal>  (210) 
-0

>  <r_i_glide_rewards>  (210) 
-1.52459

>  <r_i_glide_evdw>  (210) 
-16.0616

>  <r_i_glide_ecoul>  (210) 
-4.72805

>  <r_i_glide_erotb>  (210) 
0

>  <r_i_glide_esite>  (210) 
-0.0875759

>  <r_i_glide_emodel>  (210) 
-26.3631

>  <r_i_glide_energy>  (210) 
-20.7896

>  <r_i_glide_einternal>  (210) 
0.359038

>  <r_i_glide_intrahb_reward>  (210) 
-0

>  <i_i_glide_confnum>  (210) 
1

>  <i_i_glide_posenum>  (210) 
39

>  <r_i_glide_eff_state_penalty>  (210) 
0

>  <ligand_id>  (210) 
63

>  <original_smiles>  (210) 
CN1CC2C3C4CC2C2(O)C4C4(CCC(O)C2(C)C4)C31

>  <smiles>  (210) 
[H]OC1([H])C([H])([H])C([H])([H])C23C([H])([H])C1(C([H])([H])[H])C1(O[H])C4([H])C([H])([H])C([H])(C12[H])C1([H])C4([H])C([H])([H])[N+]([H])(C([H])([H])[H])C13[H]

$$$$
63:0:1
     RDKit          3D

 46 51  0  0  1  0  0  0  0  0999 V2000
    3.1891   -2.2781   -3.8230 C   0  0  0  0  0  0  0  0  0  0  0  0
    3.7128   -2.9833   -2.6318 N   0  0  1  0  0  0  0  0  0  0  0  0
    5.0256   -3.6638   -2.8768 C   0  0  0  0  0  0  0  0  0  0  0  0
    6.0499   -3.0090   -1.9324 C   0  0  1  0  0  0  0  0  0  0  0  0
    5.3685   -1.7078   -1.5180 C   0  0  2  0  0  0  0  0  0  0  0  0
    5.9240   -1.5072   -0.1215 C   0  0  2  0  0  0  0  0  0  0  0  0
    7.2622   -2.2528   -0.1495 C   0  0  0  0  0  0  0  0  0  0  0  0
    6.6086   -3.5892   -0.5544 C   0  0  1  0  0  0  0  0  0  0  0  0
    5.6753   -3.7790    0.7246 C   0  0  1  0  0  0  0  0  0  0  0  0
    6.4853   -4.0082    1.8528 O   0  0  0  0  0  0  0  0  0  0  0  0
    5.0157   -2.4239    0.7062 C   0  0  2  0  0  0  0  0  0  0  0  0
    3.7147   -2.7906   -0.0747 C   0  0  2  0  0  0  0  0  0  0  0  0
    2.5760   -2.4292    0.8840 C   0  0  0  0  0  0  0  0  0  0  0  0
    2.7076   -3.2430    2.2249 C   0  0  0  0  0  0  0  0  0  0  0  0
    3.6326   -4.5268    2.2146 C   0  0  1  0  0  0  0  0  0  0  0  0
    2.7860   -5.6349    2.4579 O   0  0  0  0  0  0  0  0  0  0  0  0
    4.4874   -4.7784    0.9045 C   0  0  2  0  0  0  0  0  0  0  0  0
    4.9554   -6.2404    0.7577 C   0  0  0  0  0  0  0  0  0  0  0  0
    3.5888   -4.3429   -0.1934 C   0  0  0  0  0  0  0  0  0  0  0  0
    3.8773   -2.0799   -1.4556 C   0  0  2  0  0  0  0  0  0  0  0  0
    3.8668   -1.4789   -4.1351 H   0  0  0  0  0  0  0  0  0  0  0  0
    2.2162   -1.8381   -3.6142 H   0  0  0  0  0  0  0  0  0  0  0  0
    3.0686   -2.9649   -4.6589 H   0  0  0  0  0  0  0  0  0  0  0  0
    5.0130   -4.7494   -2.8101 H   0  0  0  0  0  0  0  0  0  0  0  0
    5.3435   -3.4688   -3.9021 H   0  0  0  0  0  0  0  0  0  0  0  0
    6.9220   -2.7968   -2.5550 H   0  0  0  0  0  0  0  0  0  0  0  0
    5.5788   -0.8929   -2.2122 H   0  0  0  0  0  0  0  0  0  0  0  0
    5.9511   -0.4678    0.2141 H   0  0  0  0  0  0  0  0  0  0  0  0
    7.9759   -1.8709   -0.8831 H   0  0  0  0  0  0  0  0  0  0  0  0
    7.7842   -2.2430    0.8082 H   0  0  0  0  0  0  0  0  0  0  0  0
    7.3531   -4.3686   -0.6615 H   0  0  0  0  0  0  0  0  0  0  0  0
    7.1789   -3.3690    1.8461 H   0  0  0  0  0  0  0  0  0  0  0  0
    4.8787   -2.0172    1.7097 H   0  0  0  0  0  0  0  0  0  0  0  0
    2.5482   -1.3595    1.0921 H   0  0  0  0  0  0  0  0  0  0  0  0
    1.6341   -2.6602    0.3966 H   0  0  0  0  0  0  0  0  0  0  0  0
    3.0992   -2.5674    2.9874 H   0  0  0  0  0  0  0  0  0  0  0  0
    1.7095   -3.4941    2.5899 H   0  0  0  0  0  0  0  0  0  0  0  0
    4.2967   -4.4733    3.0808 H   0  0  0  0  0  0  0  0  0  0  0  0
    3.3353   -6.3774    2.6656 H   0  0  0  0  0  0  0  0  0  0  0  0
    4.1192   -6.9285    0.6267 H   0  0  0  0  0  0  0  0  0  0  0  0
    5.5299   -6.5697    1.6247 H   0  0  0  0  0  0  0  0  0  0  0  0
    5.5932   -6.3376   -0.1169 H   0  0  0  0  0  0  0  0  0  0  0  0
    2.5679   -4.7158   -0.0868 H   0  0  0  0  0  0  0  0  0  0  0  0
    3.9641   -4.8344   -1.0661 H   0  0  0  0  0  0  0  0  0  0  0  0
    3.2387   -1.1945   -1.4966 H   0  0  0  0  0  0  0  0  0  0  0  0
    3.0374   -3.6954   -2.3904 H   0  0  0  0  0  0  0  0  0  0  0  0
  1  2  1  0
  1 21  1  0
  1 22  1  0
  1 23  1  0
  2 20  1  0
  2  3  1  0
  2 46  1  1
  3  4  1  0
  3 24  1  0
  3 25  1  0
  4  8  1  0
  4  5  1  0
  4 26  1  6
  5 20  1  0
  5  6  1  0
  5 27  1  6
  6 11  1  0
  6  7  1  0
  6 28  1  1
  7  8  1  0
  7 29  1  0
  7 30  1  0
  8  9  1  0
  8 31  1  6
  9 17  1  0
  9 10  1  1
  9 11  1  0
 10 32  1  0
 11 12  1  0
 11 33  1  1
 12 19  1  0
 12 13  1  1
 12 20  1  0
 13 14  1  0
 13 34  1  0
 13 35  1  0
 14 15  1  0
 14 36  1  0
 14 37  1  0
 15 16  1  0
 15 17  1  0
 15 38  1  1
 16 39  1  0
 17 18  1  6
 17 19  1  0
 18 40  1  0
 18 41  1  0
 18 42  1  0
 19 43  1  0
 19 44  1  0
 20 45  1  6
M  CHG  1   2   1
M  END
>  <i_m_ct_stereo_status>  (211) 
1

>  <s_m_source_file>  (211) 
/var/tmp/pbs.5076255.sched01/tmpthapbt4w/86pc0xbys0.sdf

>  <i_m_source_file_index>  (211) 
11

>  <i_lp_mmshare_version>  (211) 
48012

>  <i_f3d_flags>  (211) 
0

>  <s_epik_input>  (211) 
W0NAQF0xMjNbQ0BASF00W0NAQEhdNVtDQEhdNltDQEhdKFtDSDJdTihbQ0gzXSlbQ0BASF0zNilbQ0BASF0oW0NIMl01KVtDQF00KFtPSF0pW0NAXShbQ0gzXSkoW0NIMl0yKVtDQEhdKFtPSF0pW0NIMl1bQ0gyXTE=

>  <s_epik_cmdline>  (211) 
J2VwaWtfcHl0aG9uJywgJy1waHQnLCAnMi4wJywgJy1waCcsICc3LjAnLCAnLXRuJywgJzgnLCAnLW1hJywgJzIwMCcsICctaW1hZScsICc8aW5maWxlLm1hZT4nLCAnLW9tYWUnLCAnPG91dGZpbGUubWFlPic=

>  <r_lp_tautomer_probability>  (211) 
1

>  <r_epik_Ionization_Penalty>  (211) 
0.000261185

>  <r_epik_Ionization_Penalty_Charging>  (211) 
0.000260231

>  <r_epik_Ionization_Penalty_Neutral>  (211) 
9.54076e-07

>  <r_epik_State_Penalty>  (211) 
-0

>  <r_epik_Charging_Adjusted_Penalty>  (211) 
0.000260231

>  <i_epik_Tot_Q>  (211) 
1

>  <i_epik_Tot_abs_Q>  (211) 
1

>  <s_lp_Force_Field>  (211) 
OPLS3e

>  <r_lp_Energy>  (211) 
103.952

>  <b_lp_Chiralities_Consistent>  (211) 
1

>  <s_lp_Variant>  (211) 
63:0-1

>  <s_i_glide_gridfile>  (211) 
pfpi4k_grid

>  <i_i_glide_lignum>  (211) 
11

>  <i_i_glide_rotatable_bonds>  (211) 
2

>  <r_i_docking_score>  (211) 
-3.51648

>  <r_i_glide_ligand_efficiency>  (211) 
-0.175824

>  <r_i_glide_ligand_efficiency_sa>  (211) 
-0.477259

>  <r_i_glide_ligand_efficiency_ln>  (211) 
-0.880058

>  <r_i_glide_gscore>  (211) 
-3.51648

>  <r_i_glide_lipo>  (211) 
-0.700718

>  <r_i_glide_hbond>  (211) 
0

>  <r_i_glide_metal>  (211) 
-0

>  <r_i_glide_rewards>  (211) 
-1.52459

>  <r_i_glide_evdw>  (211) 
-16.2275

>  <r_i_glide_ecoul>  (211) 
-3.04302

>  <r_i_glide_erotb>  (211) 
0

>  <r_i_glide_esite>  (211) 
-0.0233414

>  <r_i_glide_emodel>  (211) 
-24.6995

>  <r_i_glide_energy>  (211) 
-19.2705

>  <r_i_glide_einternal>  (211) 
0.369792

>  <r_i_glide_intrahb_reward>  (211) 
-0

>  <i_i_glide_confnum>  (211) 
2

>  <i_i_glide_posenum>  (211) 
12

>  <r_i_glide_eff_state_penalty>  (211) 
0

>  <ligand_id>  (211) 
63

>  <original_smiles>  (211) 
CN1CC2C3C4CC2C2(O)C4C4(CCC(O)C2(C)C4)C31

>  <smiles>  (211) 
[H]OC1([H])C([H])([H])C([H])([H])C23C([H])([H])C1(C([H])([H])[H])C1(O[H])C4([H])C([H])([H])C([H])(C12[H])C1([H])C4([H])C([H])([H])[N+]([H])(C([H])([H])[H])C13[H]

$$$$
63:0:2
     RDKit          3D

 46 51  0  0  1  0  0  0  0  0999 V2000
    2.9128   -2.6408   -3.8477 C   0  0  0  0  0  0  0  0  0  0  0  0
    3.5167   -3.1953   -2.6159 N   0  0  1  0  0  0  0  0  0  0  0  0
    4.8270   -3.8824   -2.8559 C   0  0  0  0  0  0  0  0  0  0  0  0
    5.8862   -3.1231   -2.0489 C   0  0  1  0  0  0  0  0  0  0  0  0
    5.2078   -1.7910   -1.7448 C   0  0  2  0  0  0  0  0  0  0  0  0
    5.8359   -1.4362   -0.4150 C   0  0  2  0  0  0  0  0  0  0  0  0
    7.1791   -2.1748   -0.4316 C   0  0  0  0  0  0  0  0  0  0  0  0
    6.5211   -3.5491   -0.6509 C   0  0  1  0  0  0  0  0  0  0  0  0
    5.6623   -3.5933    0.6889 C   0  0  1  0  0  0  0  0  0  0  0  0
    6.5447   -3.6625    1.7773 O   0  0  0  0  0  0  0  0  0  0  0  0
    4.9831   -2.2587    0.5566 C   0  0  2  0  0  0  0  0  0  0  0  0
    3.6471   -2.7210   -0.0998 C   0  0  2  0  0  0  0  0  0  0  0  0
    2.5604   -2.2623    0.8787 C   0  0  0  0  0  0  0  0  0  0  0  0
    2.7799   -2.9069    2.2919 C   0  0  0  0  0  0  0  0  0  0  0  0
    3.7165   -4.1790    2.3730 C   0  0  1  0  0  0  0  0  0  0  0  0
    2.8941   -5.2549    2.7844 O   0  0  0  0  0  0  0  0  0  0  0  0
    4.5016   -4.5775    1.0529 C   0  0  2  0  0  0  0  0  0  0  0  0
    4.9804   -6.0464    1.0498 C   0  0  0  0  0  0  0  0  0  0  0  0
    3.5338   -4.2779   -0.0337 C   0  0  0  0  0  0  0  0  0  0  0  0
    3.7266   -2.1647   -1.5579 C   0  0  2  0  0  0  0  0  0  0  0  0
    3.5537   -1.8729   -4.2879 H   0  0  0  0  0  0  0  0  0  0  0  0
    1.9410   -2.1993   -3.6357 H   0  0  0  0  0  0  0  0  0  0  0  0
    2.7612   -3.4253   -4.5876 H   0  0  0  0  0  0  0  0  0  0  0  0
    4.8558   -4.9489   -2.6466 H   0  0  0  0  0  0  0  0  0  0  0  0
    5.0810   -3.8101   -3.9151 H   0  0  0  0  0  0  0  0  0  0  0  0
    6.7228   -2.9809   -2.7351 H   0  0  0  0  0  0  0  0  0  0  0  0
    5.3769   -1.0597   -2.5369 H   0  0  0  0  0  0  0  0  0  0  0  0
    5.8655   -0.3671   -0.1952 H   0  0  0  0  0  0  0  0  0  0  0  0
    7.8545   -1.8868   -1.2390 H   0  0  0  0  0  0  0  0  0  0  0  0
    7.7481   -2.0589    0.4911 H   0  0  0  0  0  0  0  0  0  0  0  0
    7.2693   -4.3304   -0.7133 H   0  0  0  0  0  0  0  0  0  0  0  0
    6.9377   -4.5215    1.7824 H   0  0  0  0  0  0  0  0  0  0  0  0
    4.9029   -1.7454    1.5159 H   0  0  0  0  0  0  0  0  0  0  0  0
    2.5251   -1.1736    0.9565 H   0  0  0  0  0  0  0  0  0  0  0  0
    1.6007   -2.5809    0.4876 H   0  0  0  0  0  0  0  0  0  0  0  0
    3.2017   -2.1431    2.9475 H   0  0  0  0  0  0  0  0  0  0  0  0
    1.8045   -3.1194    2.7363 H   0  0  0  0  0  0  0  0  0  0  0  0
    4.4251   -4.0212    3.1887 H   0  0  0  0  0  0  0  0  0  0  0  0
    3.4574   -5.9793    3.0172 H   0  0  0  0  0  0  0  0  0  0  0  0
    4.1434   -6.7471    1.0495 H   0  0  0  0  0  0  0  0  0  0  0  0
    5.5979   -6.2696    1.9206 H   0  0  0  0  0  0  0  0  0  0  0  0
    5.5727   -6.2598    0.1604 H   0  0  0  0  0  0  0  0  0  0  0  0
    2.5236   -4.6377    0.1761 H   0  0  0  0  0  0  0  0  0  0  0  0
    3.8588   -4.8669   -0.8670 H   0  0  0  0  0  0  0  0  0  0  0  0
    3.0751   -1.2936   -1.6624 H   0  0  0  0  0  0  0  0  0  0  0  0
    2.8759   -3.8971   -2.2700 H   0  0  0  0  0  0  0  0  0  0  0  0
  1  2  1  0
  1 21  1  0
  1 22  1  0
  1 23  1  0
  2 20  1  0
  2  3  1  0
  2 46  1  1
  3  4  1  0
  3 24  1  0
  3 25  1  0
  4  8  1  0
  4  5  1  0
  4 26  1  6
  5 20  1  0
  5  6  1  0
  5 27  1  6
  6 11  1  0
  6  7  1  0
  6 28  1  1
  7  8  1  0
  7 29  1  0
  7 30  1  0
  8  9  1  0
  8 31  1  6
  9 17  1  0
  9 10  1  1
  9 11  1  0
 10 32  1  0
 11 12  1  0
 11 33  1  1
 12 19  1  0
 12 13  1  1
 12 20  1  0
 13 14  1  0
 13 34  1  0
 13 35  1  0
 14 15  1  0
 14 36  1  0
 14 37  1  0
 15 16  1  0
 15 17  1  0
 15 38  1  1
 16 39  1  0
 17 18  1  1
 17 19  1  0
 18 40  1  0
 18 41  1  0
 18 42  1  0
 19 43  1  0
 19 44  1  0
 20 45  1  1
M  CHG  1   2   1
M  END
>  <i_m_ct_stereo_status>  (212) 
1

>  <s_m_source_file>  (212) 
/var/tmp/pbs.5076255.sched01/tmpthapbt4w/86pc0xbys0.sdf

>  <i_m_source_file_index>  (212) 
11

>  <i_lp_mmshare_version>  (212) 
48012

>  <i_f3d_flags>  (212) 
0

>  <s_epik_input>  (212) 
W0NAQF0xMjNbQ0BASF00W0NAQEhdNVtDQEhdNltDQEhdKFtDSDJdTihbQ0gzXSlbQ0BASF0zNilbQ0BASF0oW0NIMl01KVtDQF00KFtPSF0pW0NAXShbQ0gzXSkoW0NIMl0yKVtDQEhdKFtPSF0pW0NIMl1bQ0gyXTE=

>  <s_epik_cmdline>  (212) 
J2VwaWtfcHl0aG9uJywgJy1waHQnLCAnMi4wJywgJy1waCcsICc3LjAnLCAnLXRuJywgJzgnLCAnLW1hJywgJzIwMCcsICctaW1hZScsICc8aW5maWxlLm1hZT4nLCAnLW9tYWUnLCAnPG91dGZpbGUubWFlPic=

>  <r_lp_tautomer_probability>  (212) 
1

>  <r_epik_Ionization_Penalty>  (212) 
0.000261185

>  <r_epik_Ionization_Penalty_Charging>  (212) 
0.000260231

>  <r_epik_Ionization_Penalty_Neutral>  (212) 
9.54076e-07

>  <r_epik_State_Penalty>  (212) 
-0

>  <r_epik_Charging_Adjusted_Penalty>  (212) 
0.000260231

>  <i_epik_Tot_Q>  (212) 
1

>  <i_epik_Tot_abs_Q>  (212) 
1

>  <s_lp_Force_Field>  (212) 
OPLS3e

>  <r_lp_Energy>  (212) 
103.952

>  <b_lp_Chiralities_Consistent>  (212) 
1

>  <s_lp_Variant>  (212) 
63:0-1

>  <s_i_glide_gridfile>  (212) 
pfpi4k_grid

>  <i_i_glide_lignum>  (212) 
11

>  <i_i_glide_rotatable_bonds>  (212) 
2

>  <r_i_docking_score>  (212) 
-3.48171

>  <r_i_glide_ligand_efficiency>  (212) 
-0.174086

>  <r_i_glide_ligand_efficiency_sa>  (212) 
-0.472541

>  <r_i_glide_ligand_efficiency_ln>  (212) 
-0.871357

>  <r_i_glide_gscore>  (212) 
-3.48171

>  <r_i_glide_lipo>  (212) 
-0.617925

>  <r_i_glide_hbond>  (212) 
0

>  <r_i_glide_metal>  (212) 
-0

>  <r_i_glide_rewards>  (212) 
-1.52459

>  <r_i_glide_evdw>  (212) 
-14.9063

>  <r_i_glide_ecoul>  (212) 
-3.7133

>  <r_i_glide_erotb>  (212) 
0

>  <r_i_glide_esite>  (212) 
-0.036885

>  <r_i_glide_emodel>  (212) 
-24.0334

>  <r_i_glide_energy>  (212) 
-18.6197

>  <r_i_glide_einternal>  (212) 
0.332409

>  <r_i_glide_intrahb_reward>  (212) 
-0

>  <i_i_glide_confnum>  (212) 
2

>  <i_i_glide_posenum>  (212) 
15

>  <r_i_glide_eff_state_penalty>  (212) 
0

>  <ligand_id>  (212) 
63

>  <original_smiles>  (212) 
CN1CC2C3C4CC2C2(O)C4C4(CCC(O)C2(C)C4)C31

>  <smiles>  (212) 
[H]OC1([H])C([H])([H])C([H])([H])C23C([H])([H])C1(C([H])([H])[H])C1(O[H])C4([H])C([H])([H])C([H])(C12[H])C1([H])C4([H])C([H])([H])[N+]([H])(C([H])([H])[H])C13[H]

$$$$
64:0:0
     RDKit          3D

 48 52  0  0  1  0  0  0  0  0999 V2000
    4.9834   -6.0356    2.1823 C   0  0  0  0  0  0  0  0  0  0  0  0
    4.0706   -6.4621    1.0054 C   0  0  2  0  0  0  0  0  0  0  0  0
    3.6347   -5.3369    0.1349 N   0  0  0  0  0  0  0  0  0  0  0  0
    4.1571   -3.9706    0.4161 C   0  0  2  0  0  0  0  0  0  0  0  0
    3.1679   -2.8760   -0.0614 C   0  0  1  0  0  0  0  0  0  0  0  0
    3.7176   -1.4974    0.3729 C   0  0  0  0  0  0  0  0  0  0  0  0
    5.0801   -1.2558   -0.3048 C   0  0  1  0  0  0  0  0  0  0  0  0
    6.0781   -2.3511    0.1330 C   0  0  0  0  0  0  0  0  0  0  0  0
    5.5331   -3.7328   -0.2864 C   0  0  2  0  0  0  0  0  0  0  0  0
    5.3689   -3.7760   -1.8246 C   0  0  0  0  0  0  0  0  0  0  0  0
    4.3642   -2.6877   -2.2666 C   0  0  2  0  0  0  0  0  0  0  0  0
    4.2049   -2.7537   -3.6694 O   0  0  0  0  0  0  0  0  0  0  0  0
    4.8960   -1.3034   -1.8386 C   0  0  0  0  0  0  0  0  0  0  0  0
    2.9936   -2.9355   -1.5998 C   0  0  0  0  0  0  0  0  0  0  0  0
    2.8546   -7.2591    1.5136 C   0  0  0  0  0  0  0  0  0  0  0  0
    2.9861   -8.6450    1.7724 C   0  0  0  0  0  0  0  0  0  0  0  0
    1.8911   -9.3256    2.2617 C   0  0  0  0  0  0  0  0  0  0  0  0
    0.7377   -8.6276    2.4580 N   0  0  0  0  0  0  0  0  0  0  0  0
   -0.5150   -9.0024    2.9048 C   0  0  0  0  0  0  0  0  0  0  0  0
   -1.2799   -7.8805    2.8788 C   0  0  0  0  0  0  0  0  0  0  0  0
   -0.5666   -6.7736    2.4261 N   0  0  0  0  0  0  0  0  0  0  0  0
    0.6487   -7.2510    2.1716 C   0  0  0  0  0  0  0  0  0  0  0  0
    1.7183   -6.5792    1.6936 N   0  0  0  0  0  0  0  0  0  0  0  0
    5.3195   -6.9151    2.7317 H   0  0  0  0  0  0  0  0  0  0  0  0
    4.4377   -5.3638    2.8595 H   0  0  0  0  0  0  0  0  0  0  0  0
    5.8797   -5.5085    1.8361 H   0  0  0  0  0  0  0  0  0  0  0  0
    4.6387   -7.1325    0.3496 H   0  0  0  0  0  0  0  0  0  0  0  0
    3.8132   -5.5744   -0.8319 H   0  0  0  0  0  0  0  0  0  0  0  0
    4.2431   -3.8491    1.5038 H   0  0  0  0  0  0  0  0  0  0  0  0
    2.2036   -3.0360    0.4197 H   0  0  0  0  0  0  0  0  0  0  0  0
    3.0066   -0.7092    0.1173 H   0  0  0  0  0  0  0  0  0  0  0  0
    3.8293   -1.4674    1.4579 H   0  0  0  0  0  0  0  0  0  0  0  0
    5.4595   -0.2800   -0.0033 H   0  0  0  0  0  0  0  0  0  0  0  0
    7.0608   -2.1817   -0.3090 H   0  0  0  0  0  0  0  0  0  0  0  0
    6.2270   -2.3254    1.2129 H   0  0  0  0  0  0  0  0  0  0  0  0
    6.2538   -4.5009    0.0009 H   0  0  0  0  0  0  0  0  0  0  0  0
    6.3403   -3.6270   -2.3085 H   0  0  0  0  0  0  0  0  0  0  0  0
    5.0098   -4.7595   -2.1408 H   0  0  0  0  0  0  0  0  0  0  0  0
    3.7526   -3.5625   -3.8580 H   0  0  0  0  0  0  0  0  0  0  0  0
    4.2096   -0.5166   -2.1529 H   0  0  0  0  0  0  0  0  0  0  0  0
    5.8495   -1.1116   -2.3215 H   0  0  0  0  0  0  0  0  0  0  0  0
    2.5870   -3.9042   -1.8982 H   0  0  0  0  0  0  0  0  0  0  0  0
    2.2567   -2.1979   -1.9329 H   0  0  0  0  0  0  0  0  0  0  0  0
    3.9249   -9.1817    1.6101 H   0  0  0  0  0  0  0  0  0  0  0  0
    1.8999  -10.3798    2.4886 H   0  0  0  0  0  0  0  0  0  0  0  0
   -0.7334  -10.0205    3.1827 H   0  0  0  0  0  0  0  0  0  0  0  0
   -2.3075   -7.7722    3.1482 H   0  0  0  0  0  0  0  0  0  0  0  0
    2.6299   -5.3277    0.2165 H   0  0  0  0  0  0  0  0  0  0  0  0
  1  2  1  0
  1 24  1  0
  1 25  1  0
  1 26  1  0
  2  3  1  0
  2 15  1  0
  2 27  1  6
  3  4  1  0
  3 28  1  0
  3 48  1  0
  4  9  1  0
  4  5  1  0
  4 29  1  1
  5 14  1  0
  5  6  1  0
  5 30  1  1
  6  7  1  0
  6 31  1  0
  6 32  1  0
  7 13  1  0
  7  8  1  0
  7 33  1  6
  8  9  1  0
  8 34  1  0
  8 35  1  0
  9 10  1  0
  9 36  1  1
 10 11  1  0
 10 37  1  0
 10 38  1  0
 11 12  1  6
 11 13  1  0
 11 14  1  0
 12 39  1  0
 13 40  1  0
 13 41  1  0
 14 42  1  0
 14 43  1  0
 15 23  2  0
 15 16  1  0
 16 17  2  0
 16 44  1  0
 17 18  1  0
 17 45  1  0
 18 22  1  0
 18 19  1  0
 19 20  2  0
 19 46  1  0
 20 21  1  0
 20 47  1  0
 21 22  2  0
 22 23  1  0
M  CHG  1   3   1
M  END
>  <i_m_ct_stereo_status>  (213) 
1

>  <s_m_source_file>  (213) 
/var/tmp/pbs.5076255.sched01/tmpthapbt4w/86pc0xbys0.sdf

>  <i_m_source_file_index>  (213) 
12

>  <i_lp_mmshare_version>  (213) 
48012

>  <i_f3d_flags>  (213) 
0

>  <s_epik_input>  (213) 
W2NIXTFbY0hdbmMobjEyKW5jKFtjSF1bY0hdMilbQ0BIXShbQ0gzXSlbTkhdW0NASF0oW0NASF0oW0NIMl0zKVtDSDJdW0NAQEhdKFtDSDJdNClbQ0gyXTUpW0NASF00W0NIMl1bQ0BAXTM1W09IXQ==

>  <s_epik_cmdline>  (213) 
J2VwaWtfcHl0aG9uJywgJy1waHQnLCAnMi4wJywgJy1waCcsICc3LjAnLCAnLXRuJywgJzgnLCAnLW1hJywgJzIwMCcsICctaW1hZScsICc8aW5maWxlLm1hZT4nLCAnLW9tYWUnLCAnPG91dGZpbGUubWFlPic=

>  <r_epik_Ionization_Penalty>  (213) 
0.0262691

>  <r_epik_Ionization_Penalty_Charging>  (213) 
0.0262686

>  <r_epik_Ionization_Penalty_Neutral>  (213) 
4.93915e-07

>  <r_epik_State_Penalty>  (213) 
0.0214177

>  <r_epik_Charging_Adjusted_Penalty>  (213) 
0.0476863

>  <i_epik_Tot_Q>  (213) 
1

>  <i_epik_Tot_abs_Q>  (213) 
1

>  <s_lp_Force_Field>  (213) 
OPLS3e

>  <r_lp_Energy>  (213) 
3.31029

>  <b_lp_Chiralities_Consistent>  (213) 
1

>  <s_lp_Variant>  (213) 
64:0-1

>  <s_i_glide_gridfile>  (213) 
pfpi4k_grid

>  <i_i_glide_lignum>  (213) 
12

>  <i_i_glide_rotatable_bonds>  (213) 
4

>  <r_i_docking_score>  (213) 
-4.59264

>  <r_i_glide_ligand_efficiency>  (213) 
-0.19968

>  <r_i_glide_ligand_efficiency_sa>  (213) 
-0.567863

>  <r_i_glide_ligand_efficiency_ln>  (213) 
-1.11054

>  <r_i_glide_gscore>  (213) 
-4.59264

>  <r_i_glide_lipo>  (213) 
-0.386064

>  <r_i_glide_hbond>  (213) 
-0.16

>  <r_i_glide_metal>  (213) 
-0

>  <r_i_glide_rewards>  (213) 
-1.27215

>  <r_i_glide_evdw>  (213) 
-31.685

>  <r_i_glide_ecoul>  (213) 
-11.0609

>  <r_i_glide_erotb>  (213) 
0.567252

>  <r_i_glide_esite>  (213) 
-0.0982937

>  <r_i_glide_emodel>  (213) 
-53.0282

>  <r_i_glide_energy>  (213) 
-42.7459

>  <r_i_glide_einternal>  (213) 
6.53183

>  <r_i_glide_intrahb_reward>  (213) 
-0

>  <i_i_glide_confnum>  (213) 
5

>  <i_i_glide_posenum>  (213) 
8

>  <r_i_glide_eff_state_penalty>  (213) 
0

>  <ligand_id>  (213) 
64

>  <original_smiles>  (213) 
CC(NC1C2CC3CC1CC(O)(C3)C2)c1ccn2ccnc2n1

>  <smiles>  (213) 
[H]OC12C([H])([H])C3([H])C([H])([H])C([H])(C1([H])[H])C([H])([N+]([H])([H])C([H])(c1nc4nc([H])c([H])n4c([H])c1[H])C([H])([H])[H])C([H])(C3([H])[H])C2([H])[H]

$$$$
64:0:1
     RDKit          3D

 48 52  0  0  1  0  0  0  0  0999 V2000
    4.8615   -5.8021    2.2875 C   0  0  0  0  0  0  0  0  0  0  0  0
    4.0706   -6.3700    1.0885 C   0  0  2  0  0  0  0  0  0  0  0  0
    3.6055   -5.3304    0.1332 N   0  0  0  0  0  0  0  0  0  0  0  0
    4.1071   -3.9329    0.2866 C   0  0  2  0  0  0  0  0  0  0  0  0
    3.0360   -2.8997   -0.1504 C   0  0  1  0  0  0  0  0  0  0  0  0
    3.5934   -1.4926    0.1631 C   0  0  0  0  0  0  0  0  0  0  0  0
    4.8627   -1.2548   -0.6681 C   0  0  1  0  0  0  0  0  0  0  0  0
    5.9401   -2.2882   -0.2829 C   0  0  0  0  0  0  0  0  0  0  0  0
    5.3959   -3.7021   -0.5623 C   0  0  2  0  0  0  0  0  0  0  0  0
    5.0905   -3.8341   -2.0762 C   0  0  0  0  0  0  0  0  0  0  0  0
    4.0010   -2.8084   -2.4681 C   0  0  2  0  0  0  0  0  0  0  0  0
    3.7011   -2.9412   -3.8398 O   0  0  0  0  0  0  0  0  0  0  0  0
    4.5198   -1.3859   -2.1671 C   0  0  0  0  0  0  0  0  0  0  0  0
    2.7068   -3.0526   -1.6647 C   0  0  0  0  0  0  0  0  0  0  0  0
    2.8880   -7.2312    1.5712 C   0  0  0  0  0  0  0  0  0  0  0  0
    3.0758   -8.6133    1.8123 C   0  0  0  0  0  0  0  0  0  0  0  0
    2.0081   -9.3487    2.2736 C   0  0  0  0  0  0  0  0  0  0  0  0
    0.8185   -8.7105    2.4680 N   0  0  0  0  0  0  0  0  0  0  0  0
   -0.4170   -9.1484    2.8897 C   0  0  0  0  0  0  0  0  0  0  0  0
   -1.2337   -8.0630    2.8735 C   0  0  0  0  0  0  0  0  0  0  0  0
   -0.5653   -6.9176    2.4499 N   0  0  0  0  0  0  0  0  0  0  0  0
    0.6734   -7.3336    2.1991 C   0  0  0  0  0  0  0  0  0  0  0  0
    1.7185   -6.6055    1.7413 N   0  0  0  0  0  0  0  0  0  0  0  0
    5.2162   -6.6032    2.9302 H   0  0  0  0  0  0  0  0  0  0  0  0
    4.2385   -5.1259    2.8819 H   0  0  0  0  0  0  0  0  0  0  0  0
    5.7389   -5.2349    1.9613 H   0  0  0  0  0  0  0  0  0  0  0  0
    4.7423   -7.0302    0.5259 H   0  0  0  0  0  0  0  0  0  0  0  0
    3.7711   -5.6581   -0.8062 H   0  0  0  0  0  0  0  0  0  0  0  0
    4.3111   -3.7328    1.3507 H   0  0  0  0  0  0  0  0  0  0  0  0
    2.1423   -3.0661    0.4489 H   0  0  0  0  0  0  0  0  0  0  0  0
    2.8504   -0.7265   -0.0457 H   0  0  0  0  0  0  0  0  0  0  0  0
    3.8181   -1.4030    1.2253 H   0  0  0  0  0  0  0  0  0  0  0  0
    5.2347   -0.2580   -0.4612 H   0  0  0  0  0  0  0  0  0  0  0  0
    6.8594   -2.1224   -0.8443 H   0  0  0  0  0  0  0  0  0  0  0  0
    6.2029   -2.1928    0.7695 H   0  0  0  0  0  0  0  0  0  0  0  0
    6.1528   -4.4382   -0.2921 H   0  0  0  0  0  0  0  0  0  0  0  0
    5.9993   -3.6810   -2.6706 H   0  0  0  0  0  0  0  0  0  0  0  0
    4.7577   -4.8466   -2.3067 H   0  0  0  0  0  0  0  0  0  0  0  0
    2.8782   -2.4990   -3.9935 H   0  0  0  0  0  0  0  0  0  0  0  0
    3.7769   -0.6362   -2.4464 H   0  0  0  0  0  0  0  0  0  0  0  0
    5.4122   -1.1884   -2.7443 H   0  0  0  0  0  0  0  0  0  0  0  0
    2.3044   -4.0538   -1.8492 H   0  0  0  0  0  0  0  0  0  0  0  0
    1.9269   -2.3634   -2.0092 H   0  0  0  0  0  0  0  0  0  0  0  0
    4.0349   -9.1107    1.6594 H   0  0  0  0  0  0  0  0  0  0  0  0
    2.0567  -10.4077    2.4840 H   0  0  0  0  0  0  0  0  0  0  0  0
   -0.5935  -10.1838    3.1454 H   0  0  0  0  0  0  0  0  0  0  0  0
   -2.2753   -8.0084    3.1312 H   0  0  0  0  0  0  0  0  0  0  0  0
    2.6070   -5.3387    0.2421 H   0  0  0  0  0  0  0  0  0  0  0  0
  1  2  1  0
  1 24  1  0
  1 25  1  0
  1 26  1  0
  2  3  1  0
  2 15  1  0
  2 27  1  6
  3  4  1  0
  3 28  1  0
  3 48  1  0
  4  9  1  0
  4  5  1  0
  4 29  1  1
  5 14  1  0
  5  6  1  0
  5 30  1  1
  6  7  1  0
  6 31  1  0
  6 32  1  0
  7 13  1  0
  7  8  1  0
  7 33  1  6
  8  9  1  0
  8 34  1  0
  8 35  1  0
  9 10  1  0
  9 36  1  1
 10 11  1  0
 10 37  1  0
 10 38  1  0
 11 12  1  6
 11 13  1  0
 11 14  1  0
 12 39  1  0
 13 40  1  0
 13 41  1  0
 14 42  1  0
 14 43  1  0
 15 23  2  0
 15 16  1  0
 16 17  2  0
 16 44  1  0
 17 18  1  0
 17 45  1  0
 18 22  1  0
 18 19  1  0
 19 20  2  0
 19 46  1  0
 20 21  1  0
 20 47  1  0
 21 22  2  0
 22 23  1  0
M  CHG  1   3   1
M  END
>  <i_m_ct_stereo_status>  (214) 
1

>  <s_m_source_file>  (214) 
/var/tmp/pbs.5076255.sched01/tmpthapbt4w/86pc0xbys0.sdf

>  <i_m_source_file_index>  (214) 
12

>  <i_lp_mmshare_version>  (214) 
48012

>  <i_f3d_flags>  (214) 
0

>  <s_epik_input>  (214) 
W2NIXTFbY0hdbmMobjEyKW5jKFtjSF1bY0hdMilbQ0BIXShbQ0gzXSlbTkhdW0NASF0oW0NASF0oW0NIMl0zKVtDSDJdW0NAQEhdKFtDSDJdNClbQ0gyXTUpW0NASF00W0NIMl1bQ0BAXTM1W09IXQ==

>  <s_epik_cmdline>  (214) 
J2VwaWtfcHl0aG9uJywgJy1waHQnLCAnMi4wJywgJy1waCcsICc3LjAnLCAnLXRuJywgJzgnLCAnLW1hJywgJzIwMCcsICctaW1hZScsICc8aW5maWxlLm1hZT4nLCAnLW9tYWUnLCAnPG91dGZpbGUubWFlPic=

>  <r_epik_Ionization_Penalty>  (214) 
0.0262691

>  <r_epik_Ionization_Penalty_Charging>  (214) 
0.0262686

>  <r_epik_Ionization_Penalty_Neutral>  (214) 
4.93915e-07

>  <r_epik_State_Penalty>  (214) 
0.0214177

>  <r_epik_Charging_Adjusted_Penalty>  (214) 
0.0476863

>  <i_epik_Tot_Q>  (214) 
1

>  <i_epik_Tot_abs_Q>  (214) 
1

>  <s_lp_Force_Field>  (214) 
OPLS3e

>  <r_lp_Energy>  (214) 
3.31029

>  <b_lp_Chiralities_Consistent>  (214) 
1

>  <s_lp_Variant>  (214) 
64:0-1

>  <s_i_glide_gridfile>  (214) 
pfpi4k_grid

>  <i_i_glide_lignum>  (214) 
12

>  <i_i_glide_rotatable_bonds>  (214) 
4

>  <r_i_docking_score>  (214) 
-4.34175

>  <r_i_glide_ligand_efficiency>  (214) 
-0.188772

>  <r_i_glide_ligand_efficiency_sa>  (214) 
-0.536842

>  <r_i_glide_ligand_efficiency_ln>  (214) 
-1.04988

>  <r_i_glide_gscore>  (214) 
-4.34175

>  <r_i_glide_lipo>  (214) 
-0.295608

>  <r_i_glide_hbond>  (214) 
-0.181471

>  <r_i_glide_metal>  (214) 
-0

>  <r_i_glide_rewards>  (214) 
-1.27215

>  <r_i_glide_evdw>  (214) 
-31.2329

>  <r_i_glide_ecoul>  (214) 
-10.0581

>  <r_i_glide_erotb>  (214) 
0.567252

>  <r_i_glide_esite>  (214) 
-0.0894181

>  <r_i_glide_emodel>  (214) 
-50.4469

>  <r_i_glide_energy>  (214) 
-41.2909

>  <r_i_glide_einternal>  (214) 
6.28183

>  <r_i_glide_intrahb_reward>  (214) 
-0

>  <i_i_glide_confnum>  (214) 
5

>  <i_i_glide_posenum>  (214) 
2

>  <r_i_glide_eff_state_penalty>  (214) 
0

>  <ligand_id>  (214) 
64

>  <original_smiles>  (214) 
CC(NC1C2CC3CC1CC(O)(C3)C2)c1ccn2ccnc2n1

>  <smiles>  (214) 
[H]OC12C([H])([H])C3([H])C([H])([H])C([H])(C1([H])[H])C([H])([N+]([H])([H])C([H])(c1nc4nc([H])c([H])n4c([H])c1[H])C([H])([H])[H])C([H])(C3([H])[H])C2([H])[H]

$$$$
64:0:2
     RDKit          3D

 48 52  0  0  1  0  0  0  0  0999 V2000
    5.1978   -5.4152    2.0657 C   0  0  0  0  0  0  0  0  0  0  0  0
    4.5979   -6.1168    0.8275 C   0  0  2  0  0  0  0  0  0  0  0  0
    4.0291   -5.2052   -0.1745 N   0  0  0  0  0  0  0  0  0  0  0  0
    4.4828   -3.7728   -0.2137 C   0  0  2  0  0  0  0  0  0  0  0  0
    3.2921   -2.8217   -0.4715 C   0  0  1  0  0  0  0  0  0  0  0  0
    3.8164   -1.3804   -0.3544 C   0  0  0  0  0  0  0  0  0  0  0  0
    4.8850   -1.1529   -1.4354 C   0  0  1  0  0  0  0  0  0  0  0  0
    6.0735   -2.1122   -1.2183 C   0  0  0  0  0  0  0  0  0  0  0  0
    5.5593   -3.5543   -1.3122 C   0  0  2  0  0  0  0  0  0  0  0  0
    4.9800   -3.7744   -2.7316 C   0  0  0  0  0  0  0  0  0  0  0  0
    3.7766   -2.8205   -2.9374 C   0  0  2  0  0  0  0  0  0  0  0  0
    3.2278   -3.0536   -4.2136 O   0  0  0  0  0  0  0  0  0  0  0  0
    4.2646   -1.3689   -2.8306 C   0  0  0  0  0  0  0  0  0  0  0  0
    2.6824   -3.0665   -1.8700 C   0  0  0  0  0  0  0  0  0  0  0  0
    3.5401   -7.1427    1.2641 C   0  0  0  0  0  0  0  0  0  0  0  0
    3.8566   -8.5363    1.3066 C   0  0  0  0  0  0  0  0  0  0  0  0
    2.9073   -9.4151    1.7277 C   0  0  0  0  0  0  0  0  0  0  0  0
    1.6806   -8.9293    2.0958 N   0  0  0  0  0  0  0  0  0  0  0  0
    0.5311   -9.5274    2.5525 C   0  0  0  0  0  0  0  0  0  0  0  0
   -0.3867   -8.5435    2.7374 C   0  0  0  0  0  0  0  0  0  0  0  0
    0.1580   -7.2878    2.4061 N   0  0  0  0  0  0  0  0  0  0  0  0
    1.4102   -7.5373    2.0148 C   0  0  0  0  0  0  0  0  0  0  0  0
    2.3385   -6.6682    1.5794 N   0  0  0  0  0  0  0  0  0  0  0  0
    5.5310   -6.1274    2.8095 H   0  0  0  0  0  0  0  0  0  0  0  0
    4.4457   -4.7818    2.5393 H   0  0  0  0  0  0  0  0  0  0  0  0
    6.0186   -4.7490    1.7575 H   0  0  0  0  0  0  0  0  0  0  0  0
    5.4097   -6.6611    0.3404 H   0  0  0  0  0  0  0  0  0  0  0  0
    4.1410   -5.6167   -1.0961 H   0  0  0  0  0  0  0  0  0  0  0  0
    4.9028   -3.4369    0.7412 H   0  0  0  0  0  0  0  0  0  0  0  0
    2.5392   -2.9886    0.2964 H   0  0  0  0  0  0  0  0  0  0  0  0
    2.9945   -0.6666   -0.4481 H   0  0  0  0  0  0  0  0  0  0  0  0
    4.2501   -1.2118    0.6305 H   0  0  0  0  0  0  0  0  0  0  0  0
    5.2473   -0.1431   -1.3672 H   0  0  0  0  0  0  0  0  0  0  0  0
    6.8509   -1.9438   -1.9658 H   0  0  0  0  0  0  0  0  0  0  0  0
    6.5382   -1.9361   -0.2466 H   0  0  0  0  0  0  0  0  0  0  0  0
    6.3864   -4.2350   -1.1233 H   0  0  0  0  0  0  0  0  0  0  0  0
    5.7447   -3.6171   -3.5001 H   0  0  0  0  0  0  0  0  0  0  0  0
    4.6584   -4.8046   -2.8559 H   0  0  0  0  0  0  0  0  0  0  0  0
    2.6510   -3.7943   -4.1270 H   0  0  0  0  0  0  0  0  0  0  0  0
    3.4426   -0.6684   -2.9843 H   0  0  0  0  0  0  0  0  0  0  0  0
    5.0062   -1.1706   -3.6017 H   0  0  0  0  0  0  0  0  0  0  0  0
    2.2905   -4.0835   -1.9306 H   0  0  0  0  0  0  0  0  0  0  0  0
    1.8187   -2.4198   -2.0352 H   0  0  0  0  0  0  0  0  0  0  0  0
    4.8448   -8.9144    1.0308 H   0  0  0  0  0  0  0  0  0  0  0  0
    3.0548  -10.4930    1.7922 H   0  0  0  0  0  0  0  0  0  0  0  0
    0.4666  -10.6077    2.6635 H   0  0  0  0  0  0  0  0  0  0  0  0
   -1.4043   -8.6207    3.0625 H   0  0  0  0  0  0  0  0  0  0  0  0
    3.0289   -5.2227   -0.0281 H   0  0  0  0  0  0  0  0  0  0  0  0
  1  2  1  0
  1 24  1  0
  1 25  1  0
  1 26  1  0
  2  3  1  0
  2 15  1  0
  2 27  1  6
  3  4  1  0
  3 28  1  0
  3 48  1  0
  4  9  1  0
  4  5  1  0
  4 29  1  1
  5 14  1  0
  5  6  1  0
  5 30  1  1
  6  7  1  0
  6 31  1  0
  6 32  1  0
  7 13  1  0
  7  8  1  0
  7 33  1  6
  8  9  1  0
  8 34  1  0
  8 35  1  0
  9 10  1  0
  9 36  1  1
 10 11  1  0
 10 37  1  0
 10 38  1  0
 11 12  1  6
 11 13  1  0
 11 14  1  0
 12 39  1  0
 13 40  1  0
 13 41  1  0
 14 42  1  0
 14 43  1  0
 15 23  2  0
 15 16  1  0
 16 17  2  0
 16 44  1  0
 17 18  1  0
 17 45  1  0
 18 22  1  0
 18 19  1  0
 19 20  2  0
 19 46  1  0
 20 21  1  0
 20 47  1  0
 21 22  2  0
 22 23  1  0
M  CHG  1   3   1
M  END
>  <i_m_ct_stereo_status>  (215) 
1

>  <s_m_source_file>  (215) 
/var/tmp/pbs.5076255.sched01/tmpthapbt4w/86pc0xbys0.sdf

>  <i_m_source_file_index>  (215) 
12

>  <i_lp_mmshare_version>  (215) 
48012

>  <i_f3d_flags>  (215) 
0

>  <s_epik_input>  (215) 
W2NIXTFbY0hdbmMobjEyKW5jKFtjSF1bY0hdMilbQ0BIXShbQ0gzXSlbTkhdW0NASF0oW0NASF0oW0NIMl0zKVtDSDJdW0NAQEhdKFtDSDJdNClbQ0gyXTUpW0NASF00W0NIMl1bQ0BAXTM1W09IXQ==

>  <s_epik_cmdline>  (215) 
J2VwaWtfcHl0aG9uJywgJy1waHQnLCAnMi4wJywgJy1waCcsICc3LjAnLCAnLXRuJywgJzgnLCAnLW1hJywgJzIwMCcsICctaW1hZScsICc8aW5maWxlLm1hZT4nLCAnLW9tYWUnLCAnPG91dGZpbGUubWFlPic=

>  <r_epik_Ionization_Penalty>  (215) 
0.0262691

>  <r_epik_Ionization_Penalty_Charging>  (215) 
0.0262686

>  <r_epik_Ionization_Penalty_Neutral>  (215) 
4.93915e-07

>  <r_epik_State_Penalty>  (215) 
0.0214177

>  <r_epik_Charging_Adjusted_Penalty>  (215) 
0.0476863

>  <i_epik_Tot_Q>  (215) 
1

>  <i_epik_Tot_abs_Q>  (215) 
1

>  <s_lp_Force_Field>  (215) 
OPLS3e

>  <r_lp_Energy>  (215) 
3.31029

>  <b_lp_Chiralities_Consistent>  (215) 
1

>  <s_lp_Variant>  (215) 
64:0-1

>  <s_i_glide_gridfile>  (215) 
pfpi4k_grid

>  <i_i_glide_lignum>  (215) 
12

>  <i_i_glide_rotatable_bonds>  (215) 
4

>  <r_i_docking_score>  (215) 
-4.15827

>  <r_i_glide_ligand_efficiency>  (215) 
-0.180794

>  <r_i_glide_ligand_efficiency_sa>  (215) 
-0.514155

>  <r_i_glide_ligand_efficiency_ln>  (215) 
-1.00551

>  <r_i_glide_gscore>  (215) 
-4.15827

>  <r_i_glide_lipo>  (215) 
-0.384553

>  <r_i_glide_hbond>  (215) 
-0.12439

>  <r_i_glide_metal>  (215) 
-0

>  <r_i_glide_rewards>  (215) 
-1.28289

>  <r_i_glide_evdw>  (215) 
-30.5121

>  <r_i_glide_ecoul>  (215) 
-8.97968

>  <r_i_glide_erotb>  (215) 
0.567252

>  <r_i_glide_esite>  (215) 
-0.0611304

>  <r_i_glide_emodel>  (215) 
-48.8631

>  <r_i_glide_energy>  (215) 
-39.4918

>  <r_i_glide_einternal>  (215) 
5.31328

>  <r_i_glide_intrahb_reward>  (215) 
-0

>  <i_i_glide_confnum>  (215) 
5

>  <i_i_glide_posenum>  (215) 
12

>  <r_i_glide_eff_state_penalty>  (215) 
0

>  <ligand_id>  (215) 
64

>  <original_smiles>  (215) 
CC(NC1C2CC3CC1CC(O)(C3)C2)c1ccn2ccnc2n1

>  <smiles>  (215) 
[H]OC12C([H])([H])C3([H])C([H])([H])C([H])(C1([H])[H])C([H])([N+]([H])([H])C([H])(c1nc4nc([H])c([H])n4c([H])c1[H])C([H])([H])[H])C([H])(C3([H])[H])C2([H])[H]

$$$$
64:1:0
     RDKit          3D

 47 51  0  0  1  0  0  0  0  0999 V2000
    5.0783   -5.8888    2.2839 C   0  0  0  0  0  0  0  0  0  0  0  0
    4.2789   -6.3861    1.0577 C   0  0  2  0  0  0  0  0  0  0  0  0
    3.8995   -5.3072    0.1379 N   0  0  0  0  0  0  0  0  0  0  0  0
    4.3348   -3.9446    0.4368 C   0  0  2  0  0  0  0  0  0  0  0  0
    3.2454   -2.9326    0.0132 C   0  0  1  0  0  0  0  0  0  0  0  0
    3.7294   -1.5364    0.4571 C   0  0  0  0  0  0  0  0  0  0  0  0
    5.0446   -1.1981   -0.2763 C   0  0  1  0  0  0  0  0  0  0  0  0
    6.1289   -2.2331    0.0925 C   0  0  0  0  0  0  0  0  0  0  0  0
    5.6488   -3.6332   -0.3342 C   0  0  2  0  0  0  0  0  0  0  0  0
    5.4203   -3.6564   -1.8706 C   0  0  0  0  0  0  0  0  0  0  0  0
    4.3356   -2.6235   -2.2389 C   0  0  2  0  0  0  0  0  0  0  0  0
    4.1206   -2.6547   -3.6366 O   0  0  0  0  0  0  0  0  0  0  0  0
    4.8116   -1.2223   -1.8048 C   0  0  0  0  0  0  0  0  0  0  0  0
    3.0070   -2.9507   -1.5181 C   0  0  0  0  0  0  0  0  0  0  0  0
    3.0549   -7.1815    1.5216 C   0  0  0  0  0  0  0  0  0  0  0  0
    3.1476   -8.5873    1.7394 C   0  0  0  0  0  0  0  0  0  0  0  0
    2.0426   -9.2526    2.2001 C   0  0  0  0  0  0  0  0  0  0  0  0
    0.8918   -8.5348    2.4219 N   0  0  0  0  0  0  0  0  0  0  0  0
   -0.3589   -8.8783    2.8800 C   0  0  0  0  0  0  0  0  0  0  0  0
   -1.0996   -7.7388    2.8770 C   0  0  0  0  0  0  0  0  0  0  0  0
   -0.3565   -6.6455    2.4232 N   0  0  0  0  0  0  0  0  0  0  0  0
    0.8562   -7.1385    2.1630 C   0  0  0  0  0  0  0  0  0  0  0  0
    1.9375   -6.4883    1.7287 N   0  0  0  0  0  0  0  0  0  0  0  0
    5.4200   -6.6992    2.9034 H   0  0  0  0  0  0  0  0  0  0  0  0
    4.4535   -5.1801    2.8560 H   0  0  0  0  0  0  0  0  0  0  0  0
    5.9694   -5.3271    1.9811 H   0  0  0  0  0  0  0  0  0  0  0  0
    4.9146   -7.0672    0.4887 H   0  0  0  0  0  0  0  0  0  0  0  0
    4.1007   -5.5704   -0.8212 H   0  0  0  0  0  0  0  0  0  0  0  0
    4.4512   -3.8261    1.5132 H   0  0  0  0  0  0  0  0  0  0  0  0
    2.3182   -3.1741    0.5300 H   0  0  0  0  0  0  0  0  0  0  0  0
    2.9726   -0.7756    0.2677 H   0  0  0  0  0  0  0  0  0  0  0  0
    3.8978   -1.5325    1.5347 H   0  0  0  0  0  0  0  0  0  0  0  0
    5.3780   -0.2093    0.0353 H   0  0  0  0  0  0  0  0  0  0  0  0
    7.0783   -1.9904   -0.3856 H   0  0  0  0  0  0  0  0  0  0  0  0
    6.3169   -2.2173    1.1667 H   0  0  0  0  0  0  0  0  0  0  0  0
    6.4111   -4.3672   -0.0837 H   0  0  0  0  0  0  0  0  0  0  0  0
    6.3628   -3.4563   -2.4005 H   0  0  0  0  0  0  0  0  0  0  0  0
    5.1014   -4.6520   -2.1880 H   0  0  0  0  0  0  0  0  0  0  0  0
    3.2780   -2.2630   -3.7903 H   0  0  0  0  0  0  0  0  0  0  0  0
    4.0798   -0.4655   -2.0851 H   0  0  0  0  0  0  0  0  0  0  0  0
    5.7412   -0.9835   -2.3164 H   0  0  0  0  0  0  0  0  0  0  0  0
    2.6201   -3.9252   -1.8155 H   0  0  0  0  0  0  0  0  0  0  0  0
    2.2188   -2.2419   -1.7886 H   0  0  0  0  0  0  0  0  0  0  0  0
    4.0790   -9.1324    1.5532 H   0  0  0  0  0  0  0  0  0  0  0  0
    2.0243  -10.3210    2.4009 H   0  0  0  0  0  0  0  0  0  0  0  0
   -0.5857   -9.9017    3.1593 H   0  0  0  0  0  0  0  0  0  0  0  0
   -2.1219   -7.6126    3.1663 H   0  0  0  0  0  0  0  0  0  0  0  0
  1  2  1  0
  1 24  1  0
  1 25  1  0
  1 26  1  0
  2  3  1  0
  2 15  1  0
  2 27  1  6
  3  4  1  0
  3 28  1  0
  4  9  1  0
  4  5  1  0
  4 29  1  1
  5 14  1  0
  5  6  1  0
  5 30  1  1
  6  7  1  0
  6 31  1  0
  6 32  1  0
  7 13  1  0
  7  8  1  0
  7 33  1  1
  8  9  1  0
  8 34  1  0
  8 35  1  0
  9 10  1  0
  9 36  1  6
 10 11  1  0
 10 37  1  0
 10 38  1  0
 11 12  1  6
 11 13  1  0
 11 14  1  0
 12 39  1  0
 13 40  1  0
 13 41  1  0
 14 42  1  0
 14 43  1  0
 15 23  2  0
 15 16  1  0
 16 17  2  0
 16 44  1  0
 17 18  1  0
 17 45  1  0
 18 22  1  0
 18 19  1  0
 19 20  2  0
 19 46  1  0
 20 21  1  0
 20 47  1  0
 21 22  2  0
 22 23  1  0
M  END
>  <i_m_ct_stereo_status>  (216) 
1

>  <s_m_source_file>  (216) 
/var/tmp/pbs.5076255.sched01/tmpthapbt4w/86pc0xbys0.sdf

>  <i_m_source_file_index>  (216) 
13

>  <i_lp_mmshare_version>  (216) 
48012

>  <i_f3d_flags>  (216) 
0

>  <s_epik_input>  (216) 
W2NIXTFbY0hdbmMobjEyKW5jKFtjSF1bY0hdMilbQ0BIXShbQ0gzXSlbTkhdW0NASF0oW0NASF0oW0NIMl0zKVtDSDJdW0NAQEhdKFtDSDJdNClbQ0gyXTUpW0NASF00W0NIMl1bQ0BAXTM1W09IXQ==

>  <s_epik_cmdline>  (216) 
J2VwaWtfcHl0aG9uJywgJy1waHQnLCAnMi4wJywgJy1waCcsICc3LjAnLCAnLXRuJywgJzgnLCAnLW1hJywgJzIwMCcsICctaW1hZScsICc8aW5maWxlLm1hZT4nLCAnLW9tYWUnLCAnPG91dGZpbGUubWFlPic=

>  <r_epik_Ionization_Penalty>  (216) 
1.86044

>  <r_epik_Ionization_Penalty_Charging>  (216) 
0.000787262

>  <r_epik_Ionization_Penalty_Neutral>  (216) 
1.85965

>  <r_epik_State_Penalty>  (216) 
1.97779

>  <r_epik_Charging_Adjusted_Penalty>  (216) 
1.97858

>  <i_epik_Tot_Q>  (216) 
0

>  <i_epik_Tot_abs_Q>  (216) 
0

>  <s_lp_Force_Field>  (216) 
OPLS3e

>  <r_lp_Energy>  (216) 
10.6466

>  <b_lp_Chiralities_Consistent>  (216) 
1

>  <s_lp_Variant>  (216) 
64:0-2

>  <s_i_glide_gridfile>  (216) 
pfpi4k_grid

>  <i_i_glide_lignum>  (216) 
13

>  <i_i_glide_rotatable_bonds>  (216) 
4

>  <r_i_docking_score>  (216) 
-4.28316

>  <r_i_glide_ligand_efficiency>  (216) 
-0.186224

>  <r_i_glide_ligand_efficiency_sa>  (216) 
-0.529598

>  <r_i_glide_ligand_efficiency_ln>  (216) 
-1.03571

>  <r_i_glide_gscore>  (216) 
-4.28316

>  <r_i_glide_lipo>  (216) 
-0.431855

>  <r_i_glide_hbond>  (216) 
-0.315947

>  <r_i_glide_metal>  (216) 
-0

>  <r_i_glide_rewards>  (216) 
-1.27903

>  <r_i_glide_evdw>  (216) 
-32.1319

>  <r_i_glide_ecoul>  (216) 
-7.65091

>  <r_i_glide_erotb>  (216) 
0.570473

>  <r_i_glide_esite>  (216) 
-0.0725745

>  <r_i_glide_emodel>  (216) 
-47.4003

>  <r_i_glide_energy>  (216) 
-39.7828

>  <r_i_glide_einternal>  (216) 
6.85453

>  <r_i_glide_intrahb_reward>  (216) 
-0

>  <i_i_glide_confnum>  (216) 
3

>  <i_i_glide_posenum>  (216) 
31

>  <r_i_glide_eff_state_penalty>  (216) 
0

>  <ligand_id>  (216) 
64

>  <original_smiles>  (216) 
CC(NC1C2CC3CC1CC(O)(C3)C2)c1ccn2ccnc2n1

>  <smiles>  (216) 
[H]OC12C([H])([H])C3([H])C([H])([H])C([H])(C1([H])[H])C([H])(N([H])C([H])(c1nc4nc([H])c([H])n4c([H])c1[H])C([H])([H])[H])C([H])(C3([H])[H])C2([H])[H]

$$$$
64:1:1
     RDKit          3D

 47 51  0  0  1  0  0  0  0  0999 V2000
    4.0297   -5.2049    3.2269 C   0  0  0  0  0  0  0  0  0  0  0  0
    3.7284   -5.9444    1.9047 C   0  0  2  0  0  0  0  0  0  0  0  0
    3.3749   -5.0232    0.8226 N   0  0  0  0  0  0  0  0  0  0  0  0
    4.0583   -3.7278    0.7526 C   0  0  2  0  0  0  0  0  0  0  0  0
    3.1363   -2.6921    0.0939 C   0  0  1  0  0  0  0  0  0  0  0  0
    3.8435   -1.3274    0.2177 C   0  0  0  0  0  0  0  0  0  0  0  0
    5.1757   -1.3709   -0.5553 C   0  0  1  0  0  0  0  0  0  0  0  0
    6.0961   -2.4436    0.0686 C   0  0  0  0  0  0  0  0  0  0  0  0
    5.3986   -3.8179   -0.0150 C   0  0  2  0  0  0  0  0  0  0  0  0
    5.1341   -4.1608   -1.4936 C   0  0  0  0  0  0  0  0  0  0  0  0
    4.2082   -3.0968   -2.1269 C   0  0  2  0  0  0  0  0  0  0  0  0
    3.9734   -3.4630   -3.4715 O   0  0  0  0  0  0  0  0  0  0  0  0
    4.8983   -1.7233   -2.0357 C   0  0  0  0  0  0  0  0  0  0  0  0
    2.8609   -3.0371   -1.3838 C   0  0  0  0  0  0  0  0  0  0  0  0
    2.5985   -6.9587    2.1249 C   0  0  0  0  0  0  0  0  0  0  0  0
    2.8950   -8.3400    2.3143 C   0  0  0  0  0  0  0  0  0  0  0  0
    1.8575   -9.2064    2.5661 C   0  0  0  0  0  0  0  0  0  0  0  0
    0.5935   -8.7044    2.6248 N   0  0  0  0  0  0  0  0  0  0  0  0
   -0.6382   -9.2738    2.8808 C   0  0  0  0  0  0  0  0  0  0  0  0
   -1.5596   -8.2688    2.7967 C   0  0  0  0  0  0  0  0  0  0  0  0
   -0.9491   -7.0560    2.4893 N   0  0  0  0  0  0  0  0  0  0  0  0
    0.3524   -7.3226    2.4041 C   0  0  0  0  0  0  0  0  0  0  0  0
    1.3599   -6.4763    2.1610 N   0  0  0  0  0  0  0  0  0  0  0  0
    4.1750   -5.8945    4.0628 H   0  0  0  0  0  0  0  0  0  0  0  0
    3.1924   -4.5564    3.4786 H   0  0  0  0  0  0  0  0  0  0  0  0
    4.9106   -4.5633    3.1279 H   0  0  0  0  0  0  0  0  0  0  0  0
    4.6211   -6.4918    1.6010 H   0  0  0  0  0  0  0  0  0  0  0  0
    3.5363   -5.5069   -0.0515 H   0  0  0  0  0  0  0  0  0  0  0  0
    4.2262   -3.3061    1.7448 H   0  0  0  0  0  0  0  0  0  0  0  0
    2.2027   -2.6556    0.6504 H   0  0  0  0  0  0  0  0  0  0  0  0
    3.1952   -0.5398   -0.1555 H   0  0  0  0  0  0  0  0  0  0  0  0
    4.0340   -1.0861    1.2652 H   0  0  0  0  0  0  0  0  0  0  0  0
    5.6576   -0.3955   -0.4896 H   0  0  0  0  0  0  0  0  0  0  0  0
    7.0587   -2.4669   -0.4463 H   0  0  0  0  0  0  0  0  0  0  0  0
    6.3148   -2.1919    1.1074 H   0  0  0  0  0  0  0  0  0  0  0  0
    6.0411   -4.5743    0.4346 H   0  0  0  0  0  0  0  0  0  0  0  0
    6.0733   -4.2203   -2.0524 H   0  0  0  0  0  0  0  0  0  0  0  0
    4.6773   -5.1494   -1.5527 H   0  0  0  0  0  0  0  0  0  0  0  0
    3.5431   -4.3099   -3.4405 H   0  0  0  0  0  0  0  0  0  0  0  0
    4.2912   -0.9483   -2.5049 H   0  0  0  0  0  0  0  0  0  0  0  0
    5.8346   -1.7820   -2.5774 H   0  0  0  0  0  0  0  0  0  0  0  0
    2.3304   -3.9899   -1.4500 H   0  0  0  0  0  0  0  0  0  0  0  0
    2.2071   -2.2825   -1.8309 H   0  0  0  0  0  0  0  0  0  0  0  0
    3.9128   -8.7171    2.2760 H   0  0  0  0  0  0  0  0  0  0  0  0
    1.9803  -10.2753    2.7330 H   0  0  0  0  0  0  0  0  0  0  0  0
   -0.7337  -10.3269    3.0940 H   0  0  0  0  0  0  0  0  0  0  0  0
   -2.6211   -8.3192    2.9323 H   0  0  0  0  0  0  0  0  0  0  0  0
  1  2  1  0
  1 24  1  0
  1 25  1  0
  1 26  1  0
  2  3  1  0
  2 15  1  0
  2 27  1  6
  3  4  1  0
  3 28  1  0
  4  9  1  0
  4  5  1  0
  4 29  1  1
  5 14  1  0
  5  6  1  0
  5 30  1  1
  6  7  1  0
  6 31  1  0
  6 32  1  0
  7 13  1  0
  7  8  1  0
  7 33  1  6
  8  9  1  0
  8 34  1  0
  8 35  1  0
  9 10  1  0
  9 36  1  1
 10 11  1  0
 10 37  1  0
 10 38  1  0
 11 12  1  6
 11 13  1  0
 11 14  1  0
 12 39  1  0
 13 40  1  0
 13 41  1  0
 14 42  1  0
 14 43  1  0
 15 23  2  0
 15 16  1  0
 16 17  2  0
 16 44  1  0
 17 18  1  0
 17 45  1  0
 18 22  1  0
 18 19  1  0
 19 20  2  0
 19 46  1  0
 20 21  1  0
 20 47  1  0
 21 22  2  0
 22 23  1  0
M  END
>  <i_m_ct_stereo_status>  (217) 
1

>  <s_m_source_file>  (217) 
/var/tmp/pbs.5076255.sched01/tmpthapbt4w/86pc0xbys0.sdf

>  <i_m_source_file_index>  (217) 
13

>  <i_lp_mmshare_version>  (217) 
48012

>  <i_f3d_flags>  (217) 
0

>  <s_epik_input>  (217) 
W2NIXTFbY0hdbmMobjEyKW5jKFtjSF1bY0hdMilbQ0BIXShbQ0gzXSlbTkhdW0NASF0oW0NASF0oW0NIMl0zKVtDSDJdW0NAQEhdKFtDSDJdNClbQ0gyXTUpW0NASF00W0NIMl1bQ0BAXTM1W09IXQ==

>  <s_epik_cmdline>  (217) 
J2VwaWtfcHl0aG9uJywgJy1waHQnLCAnMi4wJywgJy1waCcsICc3LjAnLCAnLXRuJywgJzgnLCAnLW1hJywgJzIwMCcsICctaW1hZScsICc8aW5maWxlLm1hZT4nLCAnLW9tYWUnLCAnPG91dGZpbGUubWFlPic=

>  <r_epik_Ionization_Penalty>  (217) 
1.86044

>  <r_epik_Ionization_Penalty_Charging>  (217) 
0.000787262

>  <r_epik_Ionization_Penalty_Neutral>  (217) 
1.85965

>  <r_epik_State_Penalty>  (217) 
1.97779

>  <r_epik_Charging_Adjusted_Penalty>  (217) 
1.97858

>  <i_epik_Tot_Q>  (217) 
0

>  <i_epik_Tot_abs_Q>  (217) 
0

>  <s_lp_Force_Field>  (217) 
OPLS3e

>  <r_lp_Energy>  (217) 
10.6466

>  <b_lp_Chiralities_Consistent>  (217) 
1

>  <s_lp_Variant>  (217) 
64:0-2

>  <s_i_glide_gridfile>  (217) 
pfpi4k_grid

>  <i_i_glide_lignum>  (217) 
13

>  <i_i_glide_rotatable_bonds>  (217) 
4

>  <r_i_docking_score>  (217) 
-4.17226

>  <r_i_glide_ligand_efficiency>  (217) 
-0.181403

>  <r_i_glide_ligand_efficiency_sa>  (217) 
-0.515885

>  <r_i_glide_ligand_efficiency_ln>  (217) 
-1.00889

>  <r_i_glide_gscore>  (217) 
-4.17226

>  <r_i_glide_lipo>  (217) 
-0.152379

>  <r_i_glide_hbond>  (217) 
-0.475586

>  <r_i_glide_metal>  (217) 
-0

>  <r_i_glide_rewards>  (217) 
-1.27903

>  <r_i_glide_evdw>  (217) 
-30.1267

>  <r_i_glide_ecoul>  (217) 
-8.33072

>  <r_i_glide_erotb>  (217) 
0.570473

>  <r_i_glide_esite>  (217) 
-0.0797996

>  <r_i_glide_emodel>  (217) 
-47.7015

>  <r_i_glide_energy>  (217) 
-38.4574

>  <r_i_glide_einternal>  (217) 
4.02151

>  <r_i_glide_intrahb_reward>  (217) 
-0

>  <i_i_glide_confnum>  (217) 
3

>  <i_i_glide_posenum>  (217) 
39

>  <r_i_glide_eff_state_penalty>  (217) 
0

>  <ligand_id>  (217) 
64

>  <original_smiles>  (217) 
CC(NC1C2CC3CC1CC(O)(C3)C2)c1ccn2ccnc2n1

>  <smiles>  (217) 
[H]OC12C([H])([H])C3([H])C([H])([H])C([H])(C1([H])[H])C([H])(N([H])C([H])(c1nc4nc([H])c([H])n4c([H])c1[H])C([H])([H])[H])C([H])(C3([H])[H])C2([H])[H]

$$$$
64:1:2
     RDKit          3D

 47 51  0  0  1  0  0  0  0  0999 V2000
    5.0353   -5.6829    2.8297 C   0  0  0  0  0  0  0  0  0  0  0  0
    4.1730   -5.8214    1.5665 C   0  0  2  0  0  0  0  0  0  0  0  0
    3.7593   -4.4661    1.2123 N   0  0  0  0  0  0  0  0  0  0  0  0
    3.7478   -4.2187   -0.2260 C   0  0  2  0  0  0  0  0  0  0  0  0
    5.1832   -4.0632   -0.7888 C   0  0  1  0  0  0  0  0  0  0  0  0
    5.1229   -3.8192   -2.3137 C   0  0  0  0  0  0  0  0  0  0  0  0
    4.3454   -2.5289   -2.6147 C   0  0  1  0  0  0  0  0  0  0  0  0
    2.9161   -2.6909   -2.0797 C   0  0  0  0  0  0  0  0  0  0  0  0
    2.9572   -2.9297   -0.5446 C   0  0  2  0  0  0  0  0  0  0  0  0
    3.6276   -1.7086    0.1340 C   0  0  0  0  0  0  0  0  0  0  0  0
    5.0657   -1.5764   -0.4030 C   0  0  2  0  0  0  0  0  0  0  0  0
    5.7203   -0.4942    0.2153 O   0  0  0  0  0  0  0  0  0  0  0  0
    5.0137   -1.3303   -1.9212 C   0  0  0  0  0  0  0  0  0  0  0  0
    5.8743   -2.8580   -0.1137 C   0  0  0  0  0  0  0  0  0  0  0  0
    2.9886   -6.7566    1.7860 C   0  0  0  0  0  0  0  0  0  0  0  0
    3.1926   -8.1587    1.7603 C   0  0  0  0  0  0  0  0  0  0  0  0
    2.1125   -8.9872    1.9981 C   0  0  0  0  0  0  0  0  0  0  0  0
    0.9039   -8.4065    2.2351 N   0  0  0  0  0  0  0  0  0  0  0  0
   -0.3501   -8.9273    2.4954 C   0  0  0  0  0  0  0  0  0  0  0  0
   -1.1875   -7.8663    2.6341 C   0  0  0  0  0  0  0  0  0  0  0  0
   -0.5090   -6.6627    2.4470 N   0  0  0  0  0  0  0  0  0  0  0  0
    0.7589   -6.9992    2.2316 C   0  0  0  0  0  0  0  0  0  0  0  0
    1.8089   -6.1841    2.0096 N   0  0  0  0  0  0  0  0  0  0  0  0
    5.4378   -6.6521    3.1275 H   0  0  0  0  0  0  0  0  0  0  0  0
    4.4648   -5.2766    3.6676 H   0  0  0  0  0  0  0  0  0  0  0  0
    5.8843   -5.0192    2.6476 H   0  0  0  0  0  0  0  0  0  0  0  0
    4.7873   -6.2742    0.7872 H   0  0  0  0  0  0  0  0  0  0  0  0
    2.8064   -4.4002    1.5477 H   0  0  0  0  0  0  0  0  0  0  0  0
    3.2264   -5.0499   -0.6990 H   0  0  0  0  0  0  0  0  0  0  0  0
    5.7774   -4.9614   -0.6257 H   0  0  0  0  0  0  0  0  0  0  0  0
    6.1329   -3.7647   -2.7225 H   0  0  0  0  0  0  0  0  0  0  0  0
    4.6287   -4.6525   -2.8126 H   0  0  0  0  0  0  0  0  0  0  0  0
    4.3282   -2.3614   -3.6915 H   0  0  0  0  0  0  0  0  0  0  0  0
    2.3459   -1.7913   -2.3114 H   0  0  0  0  0  0  0  0  0  0  0  0
    2.4048   -3.5056   -2.5949 H   0  0  0  0  0  0  0  0  0  0  0  0
    1.9293   -3.0329   -0.1937 H   0  0  0  0  0  0  0  0  0  0  0  0
    3.0423   -0.8085   -0.0645 H   0  0  0  0  0  0  0  0  0  0  0  0
    3.6303   -1.8271    1.2167 H   0  0  0  0  0  0  0  0  0  0  0  0
    5.2670    0.3033   -0.0145 H   0  0  0  0  0  0  0  0  0  0  0  0
    6.0228   -1.2114   -2.3032 H   0  0  0  0  0  0  0  0  0  0  0  0
    4.4673   -0.4130   -2.1459 H   0  0  0  0  0  0  0  0  0  0  0  0
    5.9465   -3.0159    0.9626 H   0  0  0  0  0  0  0  0  0  0  0  0
    6.9017   -2.7706   -0.4705 H   0  0  0  0  0  0  0  0  0  0  0  0
    4.1763   -8.5904    1.5757 H   0  0  0  0  0  0  0  0  0  0  0  0
    2.1775  -10.0722    1.9925 H   0  0  0  0  0  0  0  0  0  0  0  0
   -0.5037   -9.9912    2.5421 H   0  0  0  0  0  0  0  0  0  0  0  0
   -2.2482   -7.8574    2.8450 H   0  0  0  0  0  0  0  0  0  0  0  0
  1  2  1  0
  1 24  1  0
  1 25  1  0
  1 26  1  0
  2  3  1  0
  2 15  1  0
  2 27  1  6
  3  4  1  0
  3 28  1  0
  4  9  1  0
  4  5  1  0
  4 29  1  6
  5 14  1  0
  5  6  1  0
  5 30  1  6
  6  7  1  0
  6 31  1  0
  6 32  1  0
  7 13  1  0
  7  8  1  0
  7 33  1  6
  8  9  1  0
  8 34  1  0
  8 35  1  0
  9 10  1  0
  9 36  1  1
 10 11  1  0
 10 37  1  0
 10 38  1  0
 11 12  1  1
 11 13  1  0
 11 14  1  0
 12 39  1  0
 13 40  1  0
 13 41  1  0
 14 42  1  0
 14 43  1  0
 15 23  2  0
 15 16  1  0
 16 17  2  0
 16 44  1  0
 17 18  1  0
 17 45  1  0
 18 22  1  0
 18 19  1  0
 19 20  2  0
 19 46  1  0
 20 21  1  0
 20 47  1  0
 21 22  2  0
 22 23  1  0
M  END
>  <i_m_ct_stereo_status>  (218) 
1

>  <s_m_source_file>  (218) 
/var/tmp/pbs.5076255.sched01/tmpthapbt4w/86pc0xbys0.sdf

>  <i_m_source_file_index>  (218) 
13

>  <i_lp_mmshare_version>  (218) 
48012

>  <i_f3d_flags>  (218) 
0

>  <s_epik_input>  (218) 
W2NIXTFbY0hdbmMobjEyKW5jKFtjSF1bY0hdMilbQ0BIXShbQ0gzXSlbTkhdW0NASF0oW0NASF0oW0NIMl0zKVtDSDJdW0NAQEhdKFtDSDJdNClbQ0gyXTUpW0NASF00W0NIMl1bQ0BAXTM1W09IXQ==

>  <s_epik_cmdline>  (218) 
J2VwaWtfcHl0aG9uJywgJy1waHQnLCAnMi4wJywgJy1waCcsICc3LjAnLCAnLXRuJywgJzgnLCAnLW1hJywgJzIwMCcsICctaW1hZScsICc8aW5maWxlLm1hZT4nLCAnLW9tYWUnLCAnPG91dGZpbGUubWFlPic=

>  <r_epik_Ionization_Penalty>  (218) 
1.86044

>  <r_epik_Ionization_Penalty_Charging>  (218) 
0.000787262

>  <r_epik_Ionization_Penalty_Neutral>  (218) 
1.85965

>  <r_epik_State_Penalty>  (218) 
1.97779

>  <r_epik_Charging_Adjusted_Penalty>  (218) 
1.97858

>  <i_epik_Tot_Q>  (218) 
0

>  <i_epik_Tot_abs_Q>  (218) 
0

>  <s_lp_Force_Field>  (218) 
OPLS3e

>  <r_lp_Energy>  (218) 
10.6466

>  <b_lp_Chiralities_Consistent>  (218) 
1

>  <s_lp_Variant>  (218) 
64:0-2

>  <s_i_glide_gridfile>  (218) 
pfpi4k_grid

>  <i_i_glide_lignum>  (218) 
13

>  <i_i_glide_rotatable_bonds>  (218) 
4

>  <r_i_docking_score>  (218) 
-3.97548

>  <r_i_glide_ligand_efficiency>  (218) 
-0.172847

>  <r_i_glide_ligand_efficiency_sa>  (218) 
-0.491554

>  <r_i_glide_ligand_efficiency_ln>  (218) 
-0.961307

>  <r_i_glide_gscore>  (218) 
-3.97548

>  <r_i_glide_lipo>  (218) 
-0.297785

>  <r_i_glide_hbond>  (218) 
-0.417823

>  <r_i_glide_metal>  (218) 
-0

>  <r_i_glide_rewards>  (218) 
-1.27903

>  <r_i_glide_evdw>  (218) 
-28.4093

>  <r_i_glide_ecoul>  (218) 
-6.94143

>  <r_i_glide_erotb>  (218) 
0.570473

>  <r_i_glide_esite>  (218) 
-0.0896387

>  <r_i_glide_emodel>  (218) 
-44.2318

>  <r_i_glide_energy>  (218) 
-35.3507

>  <r_i_glide_einternal>  (218) 
3.47515

>  <r_i_glide_intrahb_reward>  (218) 
-0

>  <i_i_glide_confnum>  (218) 
4

>  <i_i_glide_posenum>  (218) 
24

>  <r_i_glide_eff_state_penalty>  (218) 
0

>  <ligand_id>  (218) 
64

>  <original_smiles>  (218) 
CC(NC1C2CC3CC1CC(O)(C3)C2)c1ccn2ccnc2n1

>  <smiles>  (218) 
[H]OC12C([H])([H])C3([H])C([H])([H])C([H])(C1([H])[H])C([H])(N([H])C([H])(c1nc4nc([H])c([H])n4c([H])c1[H])C([H])([H])[H])C([H])(C3([H])[H])C2([H])[H]

$$$$
65:0:0
     RDKit          3D

 79 85  0  0  1  0  0  0  0  0999 V2000
    0.6565   -7.6434    6.8997 C   0  0  0  0  0  0  0  0  0  0  0  0
    1.8026   -8.5437    6.3855 C   0  0  0  0  0  0  0  0  0  0  0  0
    2.5424   -9.0695    7.6437 C   0  0  0  0  0  0  0  0  0  0  0  0
    1.1880   -9.7303    5.6029 C   0  0  0  0  0  0  0  0  0  0  0  0
    2.2493  -10.6789    5.0076 C   0  0  0  0  0  0  0  0  0  0  0  0
    3.2304   -9.9398    4.0831 C   0  0  1  0  0  0  0  0  0  0  0  0
    2.5065   -9.6505    2.9043 O   0  0  0  0  0  0  0  0  0  0  0  0
    3.8329   -8.6850    4.7818 C   0  0  1  0  0  0  0  0  0  0  0  0
    4.7772   -7.9610    3.9758 O   0  0  0  0  0  0  0  0  0  0  0  0
    4.2203   -7.1330    2.9878 C   0  0  2  0  0  0  0  0  0  0  0  0
    5.1234   -6.2002    2.4584 O   0  0  0  0  0  0  0  0  0  0  0  0
    4.5386   -4.9145    2.7701 C   0  0  2  0  0  0  0  0  0  0  0  0
    4.1871   -5.0988    4.2658 C   0  0  0  0  0  0  0  0  0  0  0  0
    3.2905   -6.1393    3.6217 C   0  0  2  0  0  0  0  0  0  0  0  0
    2.1779   -6.8243    4.4061 C   0  0  0  0  0  0  0  0  0  0  0  0
    2.7979   -7.7523    5.4729 C   0  0  1  0  0  0  0  0  0  0  0  0
    3.0332   -5.0893    2.5372 C   0  0  1  0  0  0  0  0  0  0  0  0
    2.1004   -3.8882    2.6373 C   0  0  0  0  0  0  0  0  0  0  0  0
    2.3957   -2.8989    1.4915 C   0  0  0  0  0  0  0  0  0  0  0  0
    3.5505   -1.8617    1.6123 C   0  0  2  0  0  0  0  0  0  0  0  0
    2.8379   -0.5939    2.1820 C   0  0  0  0  0  0  0  0  0  0  0  0
    4.2133   -1.4360    0.2424 C   0  0  1  0  0  0  0  0  0  0  0  0
    5.4627   -0.6557    0.7115 C   0  0  0  0  0  0  0  0  0  0  0  0
    5.8303   -1.1836    2.0856 C   0  0  0  0  0  0  0  0  0  0  0  0
    4.7803   -2.2441    2.5080 C   0  0  1  0  0  0  0  0  0  0  0  0
    4.5623   -1.9958    4.0323 C   0  0  0  0  0  0  0  0  0  0  0  0
    5.3482   -3.6975    2.2360 C   0  0  2  0  0  0  0  0  0  0  0  0
    5.9692   -3.9115    0.8179 C   0  0  0  0  0  0  0  0  0  0  0  0
    5.0808   -3.8750   -0.4452 C   0  0  1  0  0  0  0  0  0  0  0  0
    4.1577   -4.9352   -0.3966 O   0  0  0  0  0  0  0  0  0  0  0  0
    4.5052   -2.4884   -0.9099 C   0  0  0  0  0  0  0  0  0  0  0  0
    3.2545   -2.6399   -1.8260 C   0  0  0  0  0  0  0  0  0  0  0  0
    5.5416   -1.9126   -1.9178 C   0  0  0  0  0  0  0  0  0  0  0  0
    0.0405   -8.1755    7.6276 H   0  0  0  0  0  0  0  0  0  0  0  0
   -0.0054   -7.3326    6.0897 H   0  0  0  0  0  0  0  0  0  0  0  0
    1.0376   -6.7446    7.3889 H   0  0  0  0  0  0  0  0  0  0  0  0
    3.3927   -9.7027    7.3927 H   0  0  0  0  0  0  0  0  0  0  0  0
    1.8815   -9.6752    8.2685 H   0  0  0  0  0  0  0  0  0  0  0  0
    2.9262   -8.2523    8.2585 H   0  0  0  0  0  0  0  0  0  0  0  0
    0.5199  -10.2972    6.2536 H   0  0  0  0  0  0  0  0  0  0  0  0
    0.5591   -9.3472    4.7967 H   0  0  0  0  0  0  0  0  0  0  0  0
    2.7974  -11.1648    5.8129 H   0  0  0  0  0  0  0  0  0  0  0  0
    1.7519  -11.4869    4.4695 H   0  0  0  0  0  0  0  0  0  0  0  0
    4.0457  -10.6101    3.8117 H   0  0  0  0  0  0  0  0  0  0  0  0
    2.4252  -10.4496    2.4023 H   0  0  0  0  0  0  0  0  0  0  0  0
    4.4579   -9.0856    5.5814 H   0  0  0  0  0  0  0  0  0  0  0  0
    3.7722   -7.7058    2.1754 H   0  0  0  0  0  0  0  0  0  0  0  0
    5.0052   -5.4984    4.8702 H   0  0  0  0  0  0  0  0  0  0  0  0
    3.6342   -4.3375    4.8035 H   0  0  0  0  0  0  0  0  0  0  0  0
    1.5727   -6.0602    4.8952 H   0  0  0  0  0  0  0  0  0  0  0  0
    1.5201   -7.3774    3.7363 H   0  0  0  0  0  0  0  0  0  0  0  0
    3.3598   -7.0953    6.1387 H   0  0  0  0  0  0  0  0  0  0  0  0
    2.8495   -5.6102    1.5948 H   0  0  0  0  0  0  0  0  0  0  0  0
    1.0910   -4.2666    2.4926 H   0  0  0  0  0  0  0  0  0  0  0  0
    2.0502   -3.4087    3.6091 H   0  0  0  0  0  0  0  0  0  0  0  0
    2.5241   -3.5223    0.6240 H   0  0  0  0  0  0  0  0  0  0  0  0
    1.4769   -2.3542    1.2679 H   0  0  0  0  0  0  0  0  0  0  0  0
    3.5233    0.2225    2.4055 H   0  0  0  0  0  0  0  0  0  0  0  0
    2.2935   -0.8209    3.0992 H   0  0  0  0  0  0  0  0  0  0  0  0
    2.1040   -0.2003    1.4749 H   0  0  0  0  0  0  0  0  0  0  0  0
    3.5682   -0.6922   -0.2286 H   0  0  0  0  0  0  0  0  0  0  0  0
    6.3443   -0.6963    0.0805 H   0  0  0  0  0  0  0  0  0  0  0  0
    5.2192    0.4024    0.7894 H   0  0  0  0  0  0  0  0  0  0  0  0
    6.8430   -1.5717    2.0828 H   0  0  0  0  0  0  0  0  0  0  0  0
    5.8581   -0.3240    2.7562 H   0  0  0  0  0  0  0  0  0  0  0  0
    5.3304   -2.4856    4.6279 H   0  0  0  0  0  0  0  0  0  0  0  0
    3.5944   -2.3072    4.3975 H   0  0  0  0  0  0  0  0  0  0  0  0
    4.5915   -0.9399    4.3019 H   0  0  0  0  0  0  0  0  0  0  0  0
    6.2158   -3.7216    2.8781 H   0  0  0  0  0  0  0  0  0  0  0  0
    6.7962   -3.2187    0.6602 H   0  0  0  0  0  0  0  0  0  0  0  0
    6.4633   -4.8828    0.8215 H   0  0  0  0  0  0  0  0  0  0  0  0
    5.7392   -4.2112   -1.2495 H   0  0  0  0  0  0  0  0  0  0  0  0
    3.8499   -5.1254   -1.2770 H   0  0  0  0  0  0  0  0  0  0  0  0
    3.4135   -3.3776   -2.6130 H   0  0  0  0  0  0  0  0  0  0  0  0
    3.0295   -1.6940   -2.3225 H   0  0  0  0  0  0  0  0  0  0  0  0
    2.3374   -2.9159   -1.3152 H   0  0  0  0  0  0  0  0  0  0  0  0
    5.5310   -2.4641   -2.8568 H   0  0  0  0  0  0  0  0  0  0  0  0
    6.5672   -1.9909   -1.5550 H   0  0  0  0  0  0  0  0  0  0  0  0
    5.3345   -0.8669   -2.1552 H   0  0  0  0  0  0  0  0  0  0  0  0
  1  2  1  0
  1 34  1  0
  1 35  1  0
  1 36  1  0
  2 16  1  0
  2  3  1  0
  2  4  1  0
  3 37  1  0
  3 38  1  0
  3 39  1  0
  4  5  1  0
  4 40  1  0
  4 41  1  0
  5  6  1  0
  5 42  1  0
  5 43  1  0
  6  7  1  0
  6  8  1  0
  6 44  1  6
  7 45  1  0
  8 16  1  0
  8  9  1  0
  8 46  1  1
  9 10  1  0
 10 14  1  0
 10 11  1  0
 10 47  1  6
 12 11  1  6
 12 17  1  0
 12 27  1  0
 12 13  1  0
 13 14  1  0
 13 48  1  0
 13 49  1  0
 14 15  1  1
 14 17  1  0
 15 16  1  0
 15 50  1  0
 15 51  1  0
 16 52  1  1
 17 18  1  0
 17 53  1  6
 18 19  1  0
 18 54  1  0
 18 55  1  0
 19 20  1  0
 19 56  1  0
 19 57  1  0
 20 25  1  0
 20 21  1  1
 20 22  1  0
 21 58  1  0
 21 59  1  0
 21 60  1  0
 22 31  1  0
 22 23  1  0
 22 61  1  6
 23 24  1  0
 23 62  1  0
 23 63  1  0
 24 25  1  0
 24 64  1  0
 24 65  1  0
 25 26  1  1
 25 27  1  0
 26 66  1  0
 26 67  1  0
 26 68  1  0
 27 28  1  0
 27 69  1  1
 28 29  1  0
 28 70  1  0
 28 71  1  0
 29 30  1  0
 29 31  1  0
 29 72  1  6
 30 73  1  0
 31 32  1  0
 31 33  1  0
 32 74  1  0
 32 75  1  0
 32 76  1  0
 33 77  1  0
 33 78  1  0
 33 79  1  0
M  END
>  <i_m_ct_stereo_status>  (219) 
1

>  <s_m_source_file>  (219) 
/var/tmp/pbs.5076255.sched01/tmpthapbt4w/86pc0xbys0.sdf

>  <i_m_source_file_index>  (219) 
14

>  <i_lp_mmshare_version>  (219) 
48012

>  <i_f3d_flags>  (219) 
0

>  <s_epik_input>  (219) 
W09IXVtDQEBIXTFbQ0gyXVtDSDJdQyhbQ0gzXSkoW0NIM10pW0NASF0oW0NIMl0yKVtDQEBIXTFPW0NASF0oTzMpW0NAQF0yKFtDSDJdNClbQ0BIXShbQ0BdMzQ1KVtDSDJdW0NIMl1bQ0BdNihbQ0gzXSlbQ0BIXTdbQ0gyXVtDSDJdW0NAXTYoW0NIM10pW0NAQEhdNVtDSDJdW0NAQEhdKFtPSF0pQzcoW0NIM10pW0NIM10=

>  <s_epik_cmdline>  (219) 
J2VwaWtfcHl0aG9uJywgJy1waHQnLCAnMi4wJywgJy1waCcsICc3LjAnLCAnLXRuJywgJzgnLCAnLW1hJywgJzIwMCcsICctaW1hZScsICc8aW5maWxlLm1hZT4nLCAnLW9tYWUnLCAnPG91dGZpbGUubWFlPic=

>  <r_lp_tautomer_probability>  (219) 
1

>  <r_epik_Ionization_Penalty>  (219) 
2.57375e-06

>  <r_epik_Ionization_Penalty_Charging>  (219) 
0

>  <r_epik_Ionization_Penalty_Neutral>  (219) 
2.57375e-06

>  <r_epik_State_Penalty>  (219) 
-0

>  <r_epik_Charging_Adjusted_Penalty>  (219) 
0

>  <i_epik_Tot_Q>  (219) 
0

>  <i_epik_Tot_abs_Q>  (219) 
0

>  <s_epik_Chemistry_Notes>  (219) 
This compound contains an acetal/aminal-like group ( X-CH(R)-Y where X, Y are N, S, or O) that may be acid/base labile, releasing an aldehyde.

>  <s_lp_Force_Field>  (219) 
OPLS3e

>  <r_lp_Energy>  (219) 
119.863

>  <b_lp_Chiralities_Consistent>  (219) 
1

>  <s_lp_Variant>  (219) 
65:0-1

>  <s_i_glide_gridfile>  (219) 
pfpi4k_grid

>  <i_i_glide_lignum>  (219) 
14

>  <i_i_glide_rotatable_bonds>  (219) 
2

>  <r_i_docking_score>  (219) 
-2.79685

>  <r_i_glide_ligand_efficiency>  (219) 
-0.0847531

>  <r_i_glide_ligand_efficiency_sa>  (219) 
-0.271848

>  <r_i_glide_ligand_efficiency_ln>  (219) 
-0.622005

>  <r_i_glide_gscore>  (219) 
-2.79685

>  <r_i_glide_lipo>  (219) 
-0.511214

>  <r_i_glide_hbond>  (219) 
0

>  <r_i_glide_metal>  (219) 
-0

>  <r_i_glide_rewards>  (219) 
-0.281774

>  <r_i_glide_evdw>  (219) 
-27.941

>  <r_i_glide_ecoul>  (219) 
-4.04543

>  <r_i_glide_erotb>  (219) 
0

>  <r_i_glide_esite>  (219) 
0

>  <r_i_glide_emodel>  (219) 
-37.2952

>  <r_i_glide_energy>  (219) 
-31.9864

>  <r_i_glide_einternal>  (219) 
0.921031

>  <r_i_glide_intrahb_reward>  (219) 
-0

>  <i_i_glide_confnum>  (219) 
2

>  <i_i_glide_posenum>  (219) 
3

>  <r_i_glide_eff_state_penalty>  (219) 
0

>  <ligand_id>  (219) 
65

>  <original_smiles>  (219) 
CC1(C)CCC(O)C2OC3OC45CC3(CC21)C4CCC1(C)C2CCC1(C)C5CC(O)C2(C)C

>  <smiles>  (219) 
[H]OC1([H])C([H])([H])C([H])([H])C(C([H])([H])[H])(C([H])([H])[H])C2([H])C([H])([H])C34C([H])(OC12[H])OC1(C3([H])[H])C4([H])C([H])([H])C([H])([H])C2(C([H])([H])[H])C3([H])C([H])([H])C([H])([H])C2(C([H])([H])[H])C1([H])C([H])([H])C([H])(O[H])C3(C([H])([H])[H])C([H])([H])[H]

$$$$
65:0:1
     RDKit          3D

 79 85  0  0  1  0  0  0  0  0999 V2000
    2.9950   -2.8411   -2.1158 C   0  0  0  0  0  0  0  0  0  0  0  0
    4.3003   -2.6141   -1.3246 C   0  0  0  0  0  0  0  0  0  0  0  0
    5.4536   -2.6996   -2.3545 C   0  0  0  0  0  0  0  0  0  0  0  0
    4.2518   -1.1993   -0.7011 C   0  0  0  0  0  0  0  0  0  0  0  0
    5.4905   -0.8690    0.1525 C   0  0  0  0  0  0  0  0  0  0  0  0
    5.7150   -1.8870    1.2772 C   0  0  1  0  0  0  0  0  0  0  0  0
    4.7179   -1.6103    2.2398 O   0  0  0  0  0  0  0  0  0  0  0  0
    5.6971   -3.3460    0.7315 C   0  0  1  0  0  0  0  0  0  0  0  0
    5.9205   -4.3467    1.7360 O   0  0  0  0  0  0  0  0  0  0  0  0
    4.8152   -4.6446    2.5463 C   0  0  2  0  0  0  0  0  0  0  0  0
    4.9548   -5.8322    3.2776 O   0  0  0  0  0  0  0  0  0  0  0  0
    3.8698   -6.6725    2.8127 C   0  0  2  0  0  0  0  0  0  0  0  0
    3.9931   -6.5104    1.2793 C   0  0  0  0  0  0  0  0  0  0  0  0
    3.6604   -5.0910    1.6936 C   0  0  2  0  0  0  0  0  0  0  0  0
    3.2753   -4.0322    0.6659 C   0  0  0  0  0  0  0  0  0  0  0  0
    4.5023   -3.6893   -0.2047 C   0  0  1  0  0  0  0  0  0  0  0  0
    2.6690   -5.7211    2.6776 C   0  0  1  0  0  0  0  0  0  0  0  0
    1.2785   -6.2607    2.3503 C   0  0  0  0  0  0  0  0  0  0  0  0
    0.7559   -7.1068    3.5259 C   0  0  0  0  0  0  0  0  0  0  0  0
    1.1930   -8.6040    3.6713 C   0  0  2  0  0  0  0  0  0  0  0  0
    0.0618   -9.3819    2.9295 C   0  0  0  0  0  0  0  0  0  0  0  0
    1.2318   -9.1539    5.1517 C   0  0  1  0  0  0  0  0  0  0  0  0
    1.9613  -10.5106    4.9895 C   0  0  0  0  0  0  0  0  0  0  0  0
    2.8334  -10.4185    3.7451 C   0  0  0  0  0  0  0  0  0  0  0  0
    2.6047   -9.0229    3.1025 C   0  0  1  0  0  0  0  0  0  0  0  0
    2.6171   -9.3023    1.5720 C   0  0  0  0  0  0  0  0  0  0  0  0
    3.7962   -8.0620    3.5143 C   0  0  2  0  0  0  0  0  0  0  0  0
    4.0978   -8.0093    5.0460 C   0  0  0  0  0  0  0  0  0  0  0  0
    3.0699   -7.4327    6.0512 C   0  0  1  0  0  0  0  0  0  0  0  0
    2.8638   -6.0516    5.8447 O   0  0  0  0  0  0  0  0  0  0  0  0
    1.7761   -8.2699    6.3539 C   0  0  0  0  0  0  0  0  0  0  0  0
    0.6253   -7.3950    6.9345 C   0  0  0  0  0  0  0  0  0  0  0  0
    2.1146   -9.1630    7.5838 C   0  0  0  0  0  0  0  0  0  0  0  0
    2.9133   -2.1539   -2.9590 H   0  0  0  0  0  0  0  0  0  0  0  0
    2.1200   -2.6735   -1.4905 H   0  0  0  0  0  0  0  0  0  0  0  0
    2.9305   -3.8559   -2.5139 H   0  0  0  0  0  0  0  0  0  0  0  0
    6.4368   -2.5727   -1.9023 H   0  0  0  0  0  0  0  0  0  0  0  0
    5.3522   -1.9268   -3.1174 H   0  0  0  0  0  0  0  0  0  0  0  0
    5.4647   -3.6647   -2.8640 H   0  0  0  0  0  0  0  0  0  0  0  0
    4.1517   -0.4553   -1.4924 H   0  0  0  0  0  0  0  0  0  0  0  0
    3.3509   -1.1010   -0.0897 H   0  0  0  0  0  0  0  0  0  0  0  0
    6.3680   -0.8433   -0.4838 H   0  0  0  0  0  0  0  0  0  0  0  0
    5.3941    0.1383    0.5602 H   0  0  0  0  0  0  0  0  0  0  0  0
    6.6845   -1.6955    1.7362 H   0  0  0  0  0  0  0  0  0  0  0  0
    3.8733   -1.6856    1.8269 H   0  0  0  0  0  0  0  0  0  0  0  0
    6.5926   -3.4248    0.1135 H   0  0  0  0  0  0  0  0  0  0  0  0
    4.5781   -3.8291    3.2310 H   0  0  0  0  0  0  0  0  0  0  0  0
    5.0042   -6.6584    0.8917 H   0  0  0  0  0  0  0  0  0  0  0  0
    3.2510   -6.9401    0.6147 H   0  0  0  0  0  0  0  0  0  0  0  0
    2.4835   -4.4322    0.0324 H   0  0  0  0  0  0  0  0  0  0  0  0
    2.8709   -3.1470    1.1559 H   0  0  0  0  0  0  0  0  0  0  0  0
    4.7545   -4.6165   -0.7219 H   0  0  0  0  0  0  0  0  0  0  0  0
    2.5982   -5.0702    3.5507 H   0  0  0  0  0  0  0  0  0  0  0  0
    0.6188   -5.4030    2.2665 H   0  0  0  0  0  0  0  0  0  0  0  0
    1.1864   -6.7606    1.3928 H   0  0  0  0  0  0  0  0  0  0  0  0
    1.0226   -6.5400    4.4001 H   0  0  0  0  0  0  0  0  0  0  0  0
   -0.3346   -7.0486    3.5285 H   0  0  0  0  0  0  0  0  0  0  0  0
    0.2464  -10.4531    2.8625 H   0  0  0  0  0  0  0  0  0  0  0  0
   -0.0757   -9.0154    1.9131 H   0  0  0  0  0  0  0  0  0  0  0  0
   -0.8994   -9.2670    3.4323 H   0  0  0  0  0  0  0  0  0  0  0  0
    0.2113   -9.4067    5.4432 H   0  0  0  0  0  0  0  0  0  0  0  0
    2.5575  -10.8578    5.8273 H   0  0  0  0  0  0  0  0  0  0  0  0
    1.2176  -11.2952    4.8467 H   0  0  0  0  0  0  0  0  0  0  0  0
    3.8827  -10.6207    3.9569 H   0  0  0  0  0  0  0  0  0  0  0  0
    2.5279  -11.2413    3.0963 H   0  0  0  0  0  0  0  0  0  0  0  0
    3.6319   -9.3582    1.1784 H   0  0  0  0  0  0  0  0  0  0  0  0
    2.0536   -8.5903    0.9872 H   0  0  0  0  0  0  0  0  0  0  0  0
    2.1476  -10.2480    1.3101 H   0  0  0  0  0  0  0  0  0  0  0  0
    4.6767   -8.5813    3.1351 H   0  0  0  0  0  0  0  0  0  0  0  0
    4.3690   -9.0051    5.3976 H   0  0  0  0  0  0  0  0  0  0  0  0
    5.0235   -7.4499    5.1756 H   0  0  0  0  0  0  0  0  0  0  0  0
    3.6218   -7.3997    6.9920 H   0  0  0  0  0  0  0  0  0  0  0  0
    3.7059   -5.6332    5.7873 H   0  0  0  0  0  0  0  0  0  0  0  0
    0.9860   -6.7525    7.7392 H   0  0  0  0  0  0  0  0  0  0  0  0
   -0.1569   -8.0247    7.3610 H   0  0  0  0  0  0  0  0  0  0  0  0
    0.1286   -6.7487    6.2193 H   0  0  0  0  0  0  0  0  0  0  0  0
    2.2012   -8.5789    8.5011 H   0  0  0  0  0  0  0  0  0  0  0  0
    3.0681   -9.6822    7.4845 H   0  0  0  0  0  0  0  0  0  0  0  0
    1.3386   -9.9089    7.7585 H   0  0  0  0  0  0  0  0  0  0  0  0
  1  2  1  0
  1 34  1  0
  1 35  1  0
  1 36  1  0
  2 16  1  0
  2  3  1  0
  2  4  1  0
  3 37  1  0
  3 38  1  0
  3 39  1  0
  4  5  1  0
  4 40  1  0
  4 41  1  0
  5  6  1  0
  5 42  1  0
  5 43  1  0
  6  7  1  0
  6  8  1  0
  6 44  1  1
  7 45  1  0
  8 16  1  0
  8  9  1  0
  8 46  1  6
  9 10  1  0
 10 14  1  0
 10 11  1  0
 10 47  1  1
 12 11  1  1
 12 17  1  0
 12 27  1  0
 12 13  1  0
 13 14  1  0
 13 48  1  0
 13 49  1  0
 14 15  1  6
 14 17  1  0
 15 16  1  0
 15 50  1  0
 15 51  1  0
 16 52  1  6
 17 18  1  0
 17 53  1  1
 18 19  1  0
 18 54  1  0
 18 55  1  0
 19 20  1  0
 19 56  1  0
 19 57  1  0
 20 25  1  0
 20 21  1  6
 20 22  1  0
 21 58  1  0
 21 59  1  0
 21 60  1  0
 22 31  1  0
 22 23  1  0
 22 61  1  1
 23 24  1  0
 23 62  1  0
 23 63  1  0
 24 25  1  0
 24 64  1  0
 24 65  1  0
 25 26  1  6
 25 27  1  0
 26 66  1  0
 26 67  1  0
 26 68  1  0
 27 28  1  0
 27 69  1  6
 28 29  1  0
 28 70  1  0
 28 71  1  0
 29 30  1  0
 29 31  1  0
 29 72  1  1
 30 73  1  0
 31 32  1  0
 31 33  1  0
 32 74  1  0
 32 75  1  0
 32 76  1  0
 33 77  1  0
 33 78  1  0
 33 79  1  0
M  END
>  <i_m_ct_stereo_status>  (220) 
1

>  <s_m_source_file>  (220) 
/var/tmp/pbs.5076255.sched01/tmpthapbt4w/86pc0xbys0.sdf

>  <i_m_source_file_index>  (220) 
14

>  <i_lp_mmshare_version>  (220) 
48012

>  <i_f3d_flags>  (220) 
0

>  <s_epik_input>  (220) 
W09IXVtDQEBIXTFbQ0gyXVtDSDJdQyhbQ0gzXSkoW0NIM10pW0NASF0oW0NIMl0yKVtDQEBIXTFPW0NASF0oTzMpW0NAQF0yKFtDSDJdNClbQ0BIXShbQ0BdMzQ1KVtDSDJdW0NIMl1bQ0BdNihbQ0gzXSlbQ0BIXTdbQ0gyXVtDSDJdW0NAXTYoW0NIM10pW0NAQEhdNVtDSDJdW0NAQEhdKFtPSF0pQzcoW0NIM10pW0NIM10=

>  <s_epik_cmdline>  (220) 
J2VwaWtfcHl0aG9uJywgJy1waHQnLCAnMi4wJywgJy1waCcsICc3LjAnLCAnLXRuJywgJzgnLCAnLW1hJywgJzIwMCcsICctaW1hZScsICc8aW5maWxlLm1hZT4nLCAnLW9tYWUnLCAnPG91dGZpbGUubWFlPic=

>  <r_lp_tautomer_probability>  (220) 
1

>  <r_epik_Ionization_Penalty>  (220) 
2.57375e-06

>  <r_epik_Ionization_Penalty_Charging>  (220) 
0

>  <r_epik_Ionization_Penalty_Neutral>  (220) 
2.57375e-06

>  <r_epik_State_Penalty>  (220) 
-0

>  <r_epik_Charging_Adjusted_Penalty>  (220) 
0

>  <i_epik_Tot_Q>  (220) 
0

>  <i_epik_Tot_abs_Q>  (220) 
0

>  <s_epik_Chemistry_Notes>  (220) 
This compound contains an acetal/aminal-like group ( X-CH(R)-Y where X, Y are N, S, or O) that may be acid/base labile, releasing an aldehyde.

>  <s_lp_Force_Field>  (220) 
OPLS3e

>  <r_lp_Energy>  (220) 
119.863

>  <b_lp_Chiralities_Consistent>  (220) 
1

>  <s_lp_Variant>  (220) 
65:0-1

>  <s_i_glide_gridfile>  (220) 
pfpi4k_grid

>  <i_i_glide_lignum>  (220) 
14

>  <i_i_glide_rotatable_bonds>  (220) 
2

>  <r_i_docking_score>  (220) 
-2.63824

>  <r_i_glide_ligand_efficiency>  (220) 
-0.0799468

>  <r_i_glide_ligand_efficiency_sa>  (220) 
-0.256432

>  <r_i_glide_ligand_efficiency_ln>  (220) 
-0.586732

>  <r_i_glide_gscore>  (220) 
-2.63824

>  <r_i_glide_lipo>  (220) 
-0.446927

>  <r_i_glide_hbond>  (220) 
0

>  <r_i_glide_metal>  (220) 
-0

>  <r_i_glide_rewards>  (220) 
-0.298677

>  <r_i_glide_evdw>  (220) 
-34.3629

>  <r_i_glide_ecoul>  (220) 
-1.16329

>  <r_i_glide_erotb>  (220) 
0

>  <r_i_glide_esite>  (220) 
0

>  <r_i_glide_emodel>  (220) 
-40.9419

>  <r_i_glide_energy>  (220) 
-35.5262

>  <r_i_glide_einternal>  (220) 
0.3545

>  <r_i_glide_intrahb_reward>  (220) 
-0

>  <i_i_glide_confnum>  (220) 
1

>  <i_i_glide_posenum>  (220) 
32

>  <r_i_glide_eff_state_penalty>  (220) 
0

>  <ligand_id>  (220) 
65

>  <original_smiles>  (220) 
CC1(C)CCC(O)C2OC3OC45CC3(CC21)C4CCC1(C)C2CCC1(C)C5CC(O)C2(C)C

>  <smiles>  (220) 
[H]OC1([H])C([H])([H])C([H])([H])C(C([H])([H])[H])(C([H])([H])[H])C2([H])C([H])([H])C34C([H])(OC12[H])OC1(C3([H])[H])C4([H])C([H])([H])C([H])([H])C2(C([H])([H])[H])C3([H])C([H])([H])C([H])([H])C2(C([H])([H])[H])C1([H])C([H])([H])C([H])(O[H])C3(C([H])([H])[H])C([H])([H])[H]

$$$$
65:0:2
     RDKit          3D

 79 85  0  0  1  0  0  0  0  0999 V2000
    3.0412   -2.8586   -2.0044 C   0  0  0  0  0  0  0  0  0  0  0  0
    4.3985   -2.7556   -1.2782 C   0  0  0  0  0  0  0  0  0  0  0  0
    5.4895   -2.9471   -2.3607 C   0  0  0  0  0  0  0  0  0  0  0  0
    4.5087   -1.3399   -0.6582 C   0  0  0  0  0  0  0  0  0  0  0  0
    5.8123   -1.1269    0.1328 C   0  0  0  0  0  0  0  0  0  0  0  0
    5.9896   -2.1682    1.2447 C   0  0  1  0  0  0  0  0  0  0  0  0
    5.0604   -1.8161    2.2438 O   0  0  0  0  0  0  0  0  0  0  0  0
    5.8125   -3.6179    0.7091 C   0  0  1  0  0  0  0  0  0  0  0  0
    5.9856   -4.6252    1.7192 O   0  0  0  0  0  0  0  0  0  0  0  0
    4.8901   -4.8410    2.5710 C   0  0  2  0  0  0  0  0  0  0  0  0
    4.9572   -6.0457    3.2807 O   0  0  0  0  0  0  0  0  0  0  0  0
    3.7700   -6.7664    2.8778 C   0  0  2  0  0  0  0  0  0  0  0  0
    3.8384   -6.6140    1.3395 C   0  0  0  0  0  0  0  0  0  0  0  0
    3.6649   -5.1704    1.7682 C   0  0  2  0  0  0  0  0  0  0  0  0
    3.3373   -4.0746    0.7592 C   0  0  0  0  0  0  0  0  0  0  0  0
    4.5508   -3.8475   -0.1670 C   0  0  1  0  0  0  0  0  0  0  0  0
    2.6608   -5.7032    2.7952 C   0  0  1  0  0  0  0  0  0  0  0  0
    1.2098   -6.1054    2.5327 C   0  0  0  0  0  0  0  0  0  0  0  0
    0.6613   -6.9042    3.7288 C   0  0  0  0  0  0  0  0  0  0  0  0
    0.9636   -8.4347    3.8561 C   0  0  2  0  0  0  0  0  0  0  0  0
   -0.2652   -9.1028    3.1634 C   0  0  0  0  0  0  0  0  0  0  0  0
    1.0140   -8.9891    5.3346 C   0  0  1  0  0  0  0  0  0  0  0  0
    1.6074  -10.4067    5.1441 C   0  0  0  0  0  0  0  0  0  0  0  0
    2.4280  -10.3958    3.8632 C   0  0  0  0  0  0  0  0  0  0  0  0
    2.3049   -8.9829    3.2289 C   0  0  1  0  0  0  0  0  0  0  0  0
    2.2233   -9.2568    1.6993 C   0  0  0  0  0  0  0  0  0  0  0  0
    3.5975   -8.1426    3.5856 C   0  0  2  0  0  0  0  0  0  0  0  0
    3.9674   -8.1198    5.1045 C   0  0  0  0  0  0  0  0  0  0  0  0
    3.0408   -7.4530    6.1508 C   0  0  1  0  0  0  0  0  0  0  0  0
    2.9460   -6.0603    5.9520 O   0  0  0  0  0  0  0  0  0  0  0  0
    1.6894   -8.1662    6.5134 C   0  0  0  0  0  0  0  0  0  0  0  0
    0.6546   -7.1868    7.1420 C   0  0  0  0  0  0  0  0  0  0  0  0
    1.9956   -9.0931    7.7279 C   0  0  0  0  0  0  0  0  0  0  0  0
    2.9838   -2.1601   -2.8430 H   0  0  0  0  0  0  0  0  0  0  0  0
    2.2088   -2.6400   -1.3409 H   0  0  0  0  0  0  0  0  0  0  0  0
    2.8752   -3.8535   -2.4151 H   0  0  0  0  0  0  0  0  0  0  0  0
    6.5014   -2.9076   -1.9593 H   0  0  0  0  0  0  0  0  0  0  0  0
    5.4110   -2.1728   -3.1254 H   0  0  0  0  0  0  0  0  0  0  0  0
    5.3897   -3.9128   -2.8635 H   0  0  0  0  0  0  0  0  0  0  0  0
    4.4290   -0.5828   -1.4398 H   0  0  0  0  0  0  0  0  0  0  0  0
    3.6566   -1.1690    0.0030 H   0  0  0  0  0  0  0  0  0  0  0  0
    6.6587   -1.1858   -0.5417 H   0  0  0  0  0  0  0  0  0  0  0  0
    5.8282   -0.1181    0.5514 H   0  0  0  0  0  0  0  0  0  0  0  0
    6.9875   -2.0671    1.6669 H   0  0  0  0  0  0  0  0  0  0  0  0
    5.2011   -2.3842    2.9844 H   0  0  0  0  0  0  0  0  0  0  0  0
    6.6712   -3.7821    0.0549 H   0  0  0  0  0  0  0  0  0  0  0  0
    4.7444   -4.0272    3.2802 H   0  0  0  0  0  0  0  0  0  0  0  0
    4.8130   -6.8561    0.9077 H   0  0  0  0  0  0  0  0  0  0  0  0
    3.0269   -6.9646    0.7121 H   0  0  0  0  0  0  0  0  0  0  0  0
    2.4836   -4.3926    0.1635 H   0  0  0  0  0  0  0  0  0  0  0  0
    3.0483   -3.1544    1.2664 H   0  0  0  0  0  0  0  0  0  0  0  0
    4.6915   -4.7941   -0.6938 H   0  0  0  0  0  0  0  0  0  0  0  0
    2.6934   -5.0562    3.6707 H   0  0  0  0  0  0  0  0  0  0  0  0
    0.6363   -5.1830    2.4790 H   0  0  0  0  0  0  0  0  0  0  0  0
    1.0243   -6.5872    1.5791 H   0  0  0  0  0  0  0  0  0  0  0  0
    1.0170   -6.3671    4.5882 H   0  0  0  0  0  0  0  0  0  0  0  0
   -0.4173   -6.7446    3.7794 H   0  0  0  0  0  0  0  0  0  0  0  0
   -0.1858  -10.1874    3.1007 H   0  0  0  0  0  0  0  0  0  0  0  0
   -0.4099   -8.7333    2.1480 H   0  0  0  0  0  0  0  0  0  0  0  0
   -1.1891   -8.8971    3.7060 H   0  0  0  0  0  0  0  0  0  0  0  0
   -0.0119   -9.1493    5.6711 H   0  0  0  0  0  0  0  0  0  0  0  0
    2.2094  -10.8074    5.9536 H   0  0  0  0  0  0  0  0  0  0  0  0
    0.7884  -11.1188    5.0382 H   0  0  0  0  0  0  0  0  0  0  0  0
    3.4616  -10.6960    4.0302 H   0  0  0  0  0  0  0  0  0  0  0  0
    2.0187  -11.1855    3.2308 H   0  0  0  0  0  0  0  0  0  0  0  0
    3.2089   -9.4151    1.2619 H   0  0  0  0  0  0  0  0  0  0  0  0
    1.7083   -8.4916    1.1379 H   0  0  0  0  0  0  0  0  0  0  0  0
    1.6447  -10.1480    1.4702 H   0  0  0  0  0  0  0  0  0  0  0  0
    4.4088   -8.7432    3.1722 H   0  0  0  0  0  0  0  0  0  0  0  0
    4.1626   -9.1374    5.4463 H   0  0  0  0  0  0  0  0  0  0  0  0
    4.9426   -7.6437    5.1938 H   0  0  0  0  0  0  0  0  0  0  0  0
    3.6372   -7.4726    7.0643 H   0  0  0  0  0  0  0  0  0  0  0  0
    2.5481   -5.6799    6.7197 H   0  0  0  0  0  0  0  0  0  0  0  0
    1.1034   -6.5862    7.9345 H   0  0  0  0  0  0  0  0  0  0  0  0
   -0.1649   -7.7416    7.6012 H   0  0  0  0  0  0  0  0  0  0  0  0
    0.1882   -6.4959    6.4476 H   0  0  0  0  0  0  0  0  0  0  0  0
    2.1726   -8.5236    8.6412 H   0  0  0  0  0  0  0  0  0  0  0  0
    2.8951   -9.6928    7.5881 H   0  0  0  0  0  0  0  0  0  0  0  0
    1.1692   -9.7767    7.9332 H   0  0  0  0  0  0  0  0  0  0  0  0
  1  2  1  0
  1 34  1  0
  1 35  1  0
  1 36  1  0
  2 16  1  0
  2  3  1  0
  2  4  1  0
  3 37  1  0
  3 38  1  0
  3 39  1  0
  4  5  1  0
  4 40  1  0
  4 41  1  0
  5  6  1  0
  5 42  1  0
  5 43  1  0
  6  7  1  0
  6  8  1  0
  6 44  1  1
  7 45  1  0
  8 16  1  0
  8  9  1  0
  8 46  1  6
  9 10  1  0
 10 14  1  0
 10 11  1  0
 10 47  1  1
 12 11  1  1
 12 17  1  0
 12 27  1  0
 12 13  1  0
 13 14  1  0
 13 48  1  0
 13 49  1  0
 14 15  1  6
 14 17  1  0
 15 16  1  0
 15 50  1  0
 15 51  1  0
 16 52  1  6
 17 18  1  0
 17 53  1  1
 18 19  1  0
 18 54  1  0
 18 55  1  0
 19 20  1  0
 19 56  1  0
 19 57  1  0
 20 25  1  0
 20 21  1  6
 20 22  1  0
 21 58  1  0
 21 59  1  0
 21 60  1  0
 22 31  1  0
 22 23  1  0
 22 61  1  1
 23 24  1  0
 23 62  1  0
 23 63  1  0
 24 25  1  0
 24 64  1  0
 24 65  1  0
 25 26  1  6
 25 27  1  0
 26 66  1  0
 26 67  1  0
 26 68  1  0
 27 28  1  0
 27 69  1  6
 28 29  1  0
 28 70  1  0
 28 71  1  0
 29 30  1  0
 29 31  1  0
 29 72  1  1
 30 73  1  0
 31 32  1  0
 31 33  1  0
 32 74  1  0
 32 75  1  0
 32 76  1  0
 33 77  1  0
 33 78  1  0
 33 79  1  0
M  END
>  <i_m_ct_stereo_status>  (221) 
1

>  <s_m_source_file>  (221) 
/var/tmp/pbs.5076255.sched01/tmpthapbt4w/86pc0xbys0.sdf

>  <i_m_source_file_index>  (221) 
14

>  <i_lp_mmshare_version>  (221) 
48012

>  <i_f3d_flags>  (221) 
0

>  <s_epik_input>  (221) 
W09IXVtDQEBIXTFbQ0gyXVtDSDJdQyhbQ0gzXSkoW0NIM10pW0NASF0oW0NIMl0yKVtDQEBIXTFPW0NASF0oTzMpW0NAQF0yKFtDSDJdNClbQ0BIXShbQ0BdMzQ1KVtDSDJdW0NIMl1bQ0BdNihbQ0gzXSlbQ0BIXTdbQ0gyXVtDSDJdW0NAXTYoW0NIM10pW0NAQEhdNVtDSDJdW0NAQEhdKFtPSF0pQzcoW0NIM10pW0NIM10=

>  <s_epik_cmdline>  (221) 
J2VwaWtfcHl0aG9uJywgJy1waHQnLCAnMi4wJywgJy1waCcsICc3LjAnLCAnLXRuJywgJzgnLCAnLW1hJywgJzIwMCcsICctaW1hZScsICc8aW5maWxlLm1hZT4nLCAnLW9tYWUnLCAnPG91dGZpbGUubWFlPic=

>  <r_lp_tautomer_probability>  (221) 
1

>  <r_epik_Ionization_Penalty>  (221) 
2.57375e-06

>  <r_epik_Ionization_Penalty_Charging>  (221) 
0

>  <r_epik_Ionization_Penalty_Neutral>  (221) 
2.57375e-06

>  <r_epik_State_Penalty>  (221) 
-0

>  <r_epik_Charging_Adjusted_Penalty>  (221) 
0

>  <i_epik_Tot_Q>  (221) 
0

>  <i_epik_Tot_abs_Q>  (221) 
0

>  <s_epik_Chemistry_Notes>  (221) 
This compound contains an acetal/aminal-like group ( X-CH(R)-Y where X, Y are N, S, or O) that may be acid/base labile, releasing an aldehyde.

>  <s_lp_Force_Field>  (221) 
OPLS3e

>  <r_lp_Energy>  (221) 
119.863

>  <b_lp_Chiralities_Consistent>  (221) 
1

>  <s_lp_Variant>  (221) 
65:0-1

>  <s_i_glide_gridfile>  (221) 
pfpi4k_grid

>  <i_i_glide_lignum>  (221) 
14

>  <i_i_glide_rotatable_bonds>  (221) 
2

>  <r_i_docking_score>  (221) 
-2.59636

>  <r_i_glide_ligand_efficiency>  (221) 
-0.0786774

>  <r_i_glide_ligand_efficiency_sa>  (221) 
-0.252361

>  <r_i_glide_ligand_efficiency_ln>  (221) 
-0.577416

>  <r_i_glide_gscore>  (221) 
-2.59636

>  <r_i_glide_lipo>  (221) 
-0.541826

>  <r_i_glide_hbond>  (221) 
0

>  <r_i_glide_metal>  (221) 
-0

>  <r_i_glide_rewards>  (221) 
-0.295114

>  <r_i_glide_evdw>  (221) 
-34.6726

>  <r_i_glide_ecoul>  (221) 
-0.171915

>  <r_i_glide_erotb>  (221) 
0

>  <r_i_glide_esite>  (221) 
0

>  <r_i_glide_emodel>  (221) 
-39.9997

>  <r_i_glide_energy>  (221) 
-34.8445

>  <r_i_glide_einternal>  (221) 
0.66566

>  <r_i_glide_intrahb_reward>  (221) 
-0

>  <i_i_glide_confnum>  (221) 
1

>  <i_i_glide_posenum>  (221) 
24

>  <r_i_glide_eff_state_penalty>  (221) 
0

>  <ligand_id>  (221) 
65

>  <original_smiles>  (221) 
CC1(C)CCC(O)C2OC3OC45CC3(CC21)C4CCC1(C)C2CCC1(C)C5CC(O)C2(C)C

>  <smiles>  (221) 
[H]OC1([H])C([H])([H])C([H])([H])C(C([H])([H])[H])(C([H])([H])[H])C2([H])C([H])([H])C34C([H])(OC12[H])OC1(C3([H])[H])C4([H])C([H])([H])C([H])([H])C2(C([H])([H])[H])C3([H])C([H])([H])C([H])([H])C2(C([H])([H])[H])C1([H])C([H])([H])C([H])(O[H])C3(C([H])([H])[H])C([H])([H])[H]

$$$$
66:0:0
     RDKit          3D

 80 86  0  0  1  0  0  0  0  0999 V2000
    3.6136   -2.1805    2.7669 C   0  0  0  0  0  0  0  0  0  0  0  0
    2.7761   -1.3047    3.3427 C   0  0  0  0  0  0  0  0  0  0  0  0
    2.7155    0.1603    2.9282 C   0  0  0  0  0  0  0  0  0  0  0  0
    3.3024    0.5702    1.9315 O   0  0  0  0  0  0  0  0  0  0  0  0
    1.9548    1.2016    3.8888 C   0  0  2  0  0  0  0  0  0  0  0  0
    3.1499    1.6550    4.8889 C   0  0  2  0  0  0  0  0  0  0  0  0
    3.8018    0.6658    5.9236 C   0  0  0  0  0  0  0  0  0  0  0  0
    3.2647    0.5435    7.3688 C   0  0  0  0  0  0  0  0  0  0  0  0
    2.0164   -0.2966    7.7924 C   0  0  1  0  0  0  0  0  0  0  0  0
    1.6675    0.0776    9.2510 C   0  0  0  0  0  0  0  0  0  0  0  0
    0.7097   -0.5289    6.9218 C   0  0  2  0  0  0  0  0  0  0  0  0
    0.6141   -2.0989    6.5543 C   0  0  1  0  0  0  0  0  0  0  0  0
   -0.7548   -2.4571    6.4551 O   0  0  0  0  0  0  0  0  0  0  0  0
    1.5301   -2.7440    5.3979 C   0  0  0  0  0  0  0  0  0  0  0  0
    2.8768   -3.2330    5.9858 C   0  0  0  0  0  0  0  0  0  0  0  0
    0.8771   -3.9729    4.7255 C   0  0  0  0  0  0  0  0  0  0  0  0
    1.7193   -1.6174    4.3825 C   0  0  2  0  0  0  0  0  0  0  0  0
    0.4545   -0.9735    3.9515 C   0  0  0  0  0  0  0  0  0  0  0  0
    0.6618    0.4488    4.4407 C   0  0  1  0  0  0  0  0  0  0  0  0
    0.1386    0.6186    5.9120 C   0  0  1  0  0  0  0  0  0  0  0  0
   -1.4090    0.6624    5.7049 C   0  0  0  0  0  0  0  0  0  0  0  0
   -1.6213    2.1662    5.8984 C   0  0  2  0  0  0  0  0  0  0  0  0
   -0.4339    3.0295    5.3263 C   0  0  2  0  0  0  0  0  0  0  0  0
   -0.1109    3.0625    3.7826 C   0  0  1  0  0  0  0  0  0  0  0  0
   -0.3742    4.3726    3.2983 O   0  0  0  0  0  0  0  0  0  0  0  0
    1.2883    2.5089    3.1969 C   0  0  2  0  0  0  0  0  0  0  0  0
    0.8733    2.1202    1.9079 O   0  0  0  0  0  0  0  0  0  0  0  0
    2.3176    3.6209    2.9329 C   0  0  0  0  0  0  0  0  0  0  0  0
    2.9718    4.0558    4.2040 C   0  0  0  0  0  0  0  0  0  0  0  0
    3.3729    3.1696    5.1227 C   0  0  0  0  0  0  0  0  0  0  0  0
    4.1799    3.6600    6.3171 C   0  0  0  0  0  0  0  0  0  0  0  0
    0.1577    2.1127    6.4242 C   0  0  2  0  0  0  0  0  0  0  0  0
    1.2986    2.5647    7.0470 O   0  0  0  0  0  0  0  0  0  0  0  0
   -1.0962    2.5430    7.2870 C   0  0  0  0  0  0  0  0  0  0  0  0
   -1.2706    3.9878    7.8297 C   0  0  0  0  0  0  0  0  0  0  0  0
   -1.5628    1.7205    8.5082 C   0  0  0  0  0  0  0  0  0  0  0  0
    3.6152   -3.2257    3.0373 H   0  0  0  0  0  0  0  0  0  0  0  0
    4.3083   -1.8705    1.9999 H   0  0  0  0  0  0  0  0  0  0  0  0
    3.9990    1.6411    4.2052 H   0  0  0  0  0  0  0  0  0  0  0  0
    4.0336   -0.3102    5.5054 H   0  0  0  0  0  0  0  0  0  0  0  0
    4.8208    1.0271    6.0615 H   0  0  0  0  0  0  0  0  0  0  0  0
    4.0862    0.0767    7.9142 H   0  0  0  0  0  0  0  0  0  0  0  0
    3.2523    1.5153    7.8472 H   0  0  0  0  0  0  0  0  0  0  0  0
    2.4450   -1.2859    7.9208 H   0  0  0  0  0  0  0  0  0  0  0  0
    1.2624    1.0857    9.3234 H   0  0  0  0  0  0  0  0  0  0  0  0
    2.5524    0.0450    9.8863 H   0  0  0  0  0  0  0  0  0  0  0  0
    0.9449   -0.6096    9.6925 H   0  0  0  0  0  0  0  0  0  0  0  0
   -0.0414   -0.5036    7.6932 H   0  0  0  0  0  0  0  0  0  0  0  0
    0.8702   -2.6418    7.4635 H   0  0  0  0  0  0  0  0  0  0  0  0
   -1.0479   -2.2175    5.5905 H   0  0  0  0  0  0  0  0  0  0  0  0
    3.4772   -3.7573    5.2431 H   0  0  0  0  0  0  0  0  0  0  0  0
    2.7201   -3.9401    6.8031 H   0  0  0  0  0  0  0  0  0  0  0  0
    3.4964   -2.4259    6.3727 H   0  0  0  0  0  0  0  0  0  0  0  0
    1.5249   -4.3791    3.9489 H   0  0  0  0  0  0  0  0  0  0  0  0
   -0.0693   -3.7324    4.2459 H   0  0  0  0  0  0  0  0  0  0  0  0
    0.6915   -4.7753    5.4414 H   0  0  0  0  0  0  0  0  0  0  0  0
    2.1893   -0.9989    5.1122 H   0  0  0  0  0  0  0  0  0  0  0  0
    0.3424   -1.0390    2.8674 H   0  0  0  0  0  0  0  0  0  0  0  0
   -0.4610   -1.4213    4.3136 H   0  0  0  0  0  0  0  0  0  0  0  0
   -0.1172    0.7448    3.7643 H   0  0  0  0  0  0  0  0  0  0  0  0
   -1.8175    0.3477    4.7464 H   0  0  0  0  0  0  0  0  0  0  0  0
   -1.9684    0.0824    6.4168 H   0  0  0  0  0  0  0  0  0  0  0  0
   -2.6024    2.5784    5.6915 H   0  0  0  0  0  0  0  0  0  0  0  0
   -0.4141    4.0715    5.6567 H   0  0  0  0  0  0  0  0  0  0  0  0
   -0.9313    2.5243    3.2995 H   0  0  0  0  0  0  0  0  0  0  0  0
   -0.1902    4.3910    2.3436 H   0  0  0  0  0  0  0  0  0  0  0  0
    0.6144    2.8882    1.3982 H   0  0  0  0  0  0  0  0  0  0  0  0
    3.1038    3.2731    2.2652 H   0  0  0  0  0  0  0  0  0  0  0  0
    1.8967    4.4905    2.4354 H   0  0  0  0  0  0  0  0  0  0  0  0
    3.1592    5.1146    4.3071 H   0  0  0  0  0  0  0  0  0  0  0  0
    5.1431    3.1593    6.3904 H   0  0  0  0  0  0  0  0  0  0  0  0
    3.6496    3.5487    7.2593 H   0  0  0  0  0  0  0  0  0  0  0  0
    4.3934    4.7234    6.2127 H   0  0  0  0  0  0  0  0  0  0  0  0
    1.1340    3.4664    7.2983 H   0  0  0  0  0  0  0  0  0  0  0  0
   -1.7008    4.0445    8.8326 H   0  0  0  0  0  0  0  0  0  0  0  0
   -1.9500    4.5409    7.1984 H   0  0  0  0  0  0  0  0  0  0  0  0
   -0.3313    4.5270    7.8735 H   0  0  0  0  0  0  0  0  0  0  0  0
   -0.9240    1.8636    9.3819 H   0  0  0  0  0  0  0  0  0  0  0  0
   -1.5712    0.6579    8.3537 H   0  0  0  0  0  0  0  0  0  0  0  0
   -2.5855    1.9653    8.8208 H   0  0  0  0  0  0  0  0  0  0  0  0
  1  2  2  0
  1 37  1  0
  1 38  1  0
  2 17  1  0
  2  3  1  0
  3  4  2  0
  5  3  1  6
  5 19  1  0
  5 26  1  0
  5  6  1  0
  6 30  1  0
  6  7  1  0
  6 39  1  6
  7  8  1  0
  7 40  1  0
  7 41  1  0
  8  9  1  0
  8 42  1  0
  8 43  1  0
  9 10  1  0
  9 11  1  0
  9 44  1  1
 10 45  1  0
 10 46  1  0
 10 47  1  0
 11 20  1  0
 11 12  1  0
 11 48  1  1
 12 13  1  0
 12 14  1  0
 12 49  1  1
 13 50  1  0
 14 15  1  0
 14 16  1  0
 14 17  1  0
 15 51  1  0
 15 52  1  0
 15 53  1  0
 16 54  1  0
 16 55  1  0
 16 56  1  0
 17 18  1  0
 17 57  1  1
 18 19  1  0
 18 58  1  0
 18 59  1  0
 19 20  1  0
 19 60  1  6
 20 32  1  0
 20 21  1  6
 21 22  1  0
 21 61  1  0
 21 62  1  0
 22 34  1  0
 22 23  1  0
 22 63  1  1
 23 24  1  0
 23 32  1  0
 23 64  1  1
 24 25  1  0
 24 26  1  0
 24 65  1  6
 25 66  1  0
 26 27  1  6
 26 28  1  0
 27 67  1  0
 28 29  1  0
 28 68  1  0
 28 69  1  0
 29 30  2  0
 29 70  1  0
 30 31  1  0
 31 71  1  0
 31 72  1  0
 31 73  1  0
 32 33  1  1
 32 34  1  0
 33 74  1  0
 34 35  1  0
 34 36  1  0
 35 75  1  0
 35 76  1  0
 35 77  1  0
 36 78  1  0
 36 79  1  0
 36 80  1  0
M  END
>  <i_m_ct_stereo_status>  (222) 
1

>  <s_m_source_file>  (222) 
/var/tmp/pbs.5076255.sched01/tmpthapbt4w/86pc0xbys0.sdf

>  <i_m_source_file_index>  (222) 
15

>  <i_lp_mmshare_version>  (222) 
48012

>  <i_f3d_flags>  (222) 
1

>  <s_epik_input>  (222) 
Tz1DMUMoPVtDSDJdKVtDQEhdKEMoW0NIM10pKFtDSDNdKVtDQEBIXTJbT0hdKVtDSDJdW0NIXTNbQ0BAXTQoW0NAQEhdMltDQEhdKFtDSDNdKVtDSDJdW0NIMl1bQ0BIXTVbQ0BAXTEzNilbQ0BAXTcoW09IXSlbQ0BIXShbQ0BASF0oW0NIMl00KUM3KFtDSDNdKVtDSDNdKVtDQEBIXShbT0hdKVtDQEBdNihbT0hdKVtDSDJdW0NIXT1DNVtDSDNd

>  <s_epik_cmdline>  (222) 
J2VwaWtfcHl0aG9uJywgJy1waHQnLCAnMi4wJywgJy1waCcsICc3LjAnLCAnLXRuJywgJzgnLCAnLW1hJywgJzIwMCcsICctaW1hZScsICc8aW5maWxlLm1hZT4nLCAnLW9tYWUnLCAnPG91dGZpbGUubWFlPic=

>  <r_lp_tautomer_probability>  (222) 
1

>  <r_epik_Ionization_Penalty>  (222) 
1.45629e-06

>  <r_epik_Ionization_Penalty_Charging>  (222) 
0

>  <r_epik_Ionization_Penalty_Neutral>  (222) 
1.45629e-06

>  <r_epik_State_Penalty>  (222) 
-0

>  <r_epik_Charging_Adjusted_Penalty>  (222) 
0

>  <i_epik_Tot_Q>  (222) 
0

>  <i_epik_Tot_abs_Q>  (222) 
0

>  <s_lp_Force_Field>  (222) 
OPLS3e

>  <r_lp_Energy>  (222) 
241.034

>  <b_lp_Chiralities_Consistent>  (222) 
1

>  <s_lp_Variant>  (222) 
66:0-1

>  <s_i_glide_gridfile>  (222) 
pfpi4k_grid

>  <i_i_glide_lignum>  (222) 
15

>  <i_i_glide_rotatable_bonds>  (222) 
4

>  <r_i_docking_score>  (222) 
-2.55293

>  <r_i_glide_ligand_efficiency>  (222) 
-0.0709146

>  <r_i_glide_ligand_efficiency_sa>  (222) 
-0.234155

>  <r_i_glide_ligand_efficiency_ln>  (222) 
-0.55698

>  <r_i_glide_gscore>  (222) 
-2.55293

>  <r_i_glide_lipo>  (222) 
-0.00746968

>  <r_i_glide_hbond>  (222) 
0

>  <r_i_glide_metal>  (222) 
-0

>  <r_i_glide_rewards>  (222) 
-0.0226496

>  <r_i_glide_evdw>  (222) 
-18.6617

>  <r_i_glide_ecoul>  (222) 
-10.5885

>  <r_i_glide_erotb>  (222) 
0

>  <r_i_glide_esite>  (222) 
-0.00145185

>  <r_i_glide_emodel>  (222) 
-34.209

>  <r_i_glide_energy>  (222) 
-29.2502

>  <r_i_glide_einternal>  (222) 
0.651036

>  <r_i_glide_intrahb_reward>  (222) 
-0

>  <i_i_glide_confnum>  (222) 
1

>  <i_i_glide_posenum>  (222) 
1

>  <r_i_glide_eff_state_penalty>  (222) 
0

>  <ligand_id>  (222) 
66

>  <original_smiles>  (222) 
C=C1C(=O)C23C4CCC(C)C5C(O)C(C)(C)C1CC2C51CC2C(C(O)C3(O)CC=C4C)C1(O)C2(C)C

>  <smiles>  (222) 
[H]OC1([H])C2([H])C3([H])C([H])([H])C4(C5([H])C([H])(O[H])C(C([H])([H])[H])(C([H])([H])[H])C6([H])C(=C([H])[H])C(=O)C7(C([H])(C(C([H])([H])[H])=C([H])C([H])([H])C17O[H])C([H])([H])C([H])([H])C5([H])C([H])([H])[H])C4([H])C6([H])[H])C2(O[H])C3(C([H])([H])[H])C([H])([H])[H]

$$$$
66:0:1
     RDKit          3D

 80 86  0  0  1  0  0  0  0  0999 V2000
    3.6674   -2.1609    2.6574 C   0  0  0  0  0  0  0  0  0  0  0  0
    2.8412   -1.2845    3.2588 C   0  0  0  0  0  0  0  0  0  0  0  0
    2.7619    0.1748    2.8377 C   0  0  0  0  0  0  0  0  0  0  0  0
    3.3043    0.5737    1.8093 O   0  0  0  0  0  0  0  0  0  0  0  0
    2.0245    1.2175    3.8184 C   0  0  2  0  0  0  0  0  0  0  0  0
    3.2487    1.6872    4.7778 C   0  0  2  0  0  0  0  0  0  0  0  0
    3.9446    0.7108    5.7945 C   0  0  0  0  0  0  0  0  0  0  0  0
    3.4580    0.5947    7.2570 C   0  0  0  0  0  0  0  0  0  0  0  0
    2.2339   -0.2567    7.7291 C   0  0  1  0  0  0  0  0  0  0  0  0
    1.9354    0.1243    9.1962 C   0  0  0  0  0  0  0  0  0  0  0  0
    0.8970   -0.5050    6.9075 C   0  0  2  0  0  0  0  0  0  0  0  0
    0.8006   -2.0795    6.5517 C   0  0  1  0  0  0  0  0  0  0  0  0
   -0.5682   -2.4605    6.4966 O   0  0  0  0  0  0  0  0  0  0  0  0
    1.6822   -2.7239    5.3683 C   0  0  0  0  0  0  0  0  0  0  0  0
    3.0547   -3.1987    5.9095 C   0  0  0  0  0  0  0  0  0  0  0  0
    1.0142   -3.9617    4.7236 C   0  0  0  0  0  0  0  0  0  0  0  0
    1.8279   -1.5996    4.3403 C   0  0  2  0  0  0  0  0  0  0  0  0
    0.5387   -0.9714    3.9474 C   0  0  0  0  0  0  0  0  0  0  0  0
    0.7530    0.4566    4.4204 C   0  0  1  0  0  0  0  0  0  0  0  0
    0.2853    0.6364    5.9117 C   0  0  1  0  0  0  0  0  0  0  0  0
   -1.2746    0.6741    5.7588 C   0  0  0  0  0  0  0  0  0  0  0  0
   -1.4979    2.1683    5.9524 C   0  0  2  0  0  0  0  0  0  0  0  0
   -0.3317    3.0393    5.3379 C   0  0  2  0  0  0  0  0  0  0  0  0
   -0.0598    3.0664    3.7862 C   0  0  1  0  0  0  0  0  0  0  0  0
   -0.3589    4.3701    3.3082 O   0  0  0  0  0  0  0  0  0  0  0  0
    1.3251    2.5192    3.1439 C   0  0  2  0  0  0  0  0  0  0  0  0
    0.8725    2.1284    1.8651 O   0  0  0  0  0  0  0  0  0  0  0  0
    2.3304    3.6379    2.8400 C   0  0  0  0  0  0  0  0  0  0  0  0
    3.0160    4.0838    4.0912 C   0  0  0  0  0  0  0  0  0  0  0  0
    3.4569    3.2041    4.9998 C   0  0  0  0  0  0  0  0  0  0  0  0
    4.3101    3.7074    6.1568 C   0  0  0  0  0  0  0  0  0  0  0  0
    0.3097    2.1262    6.4196 C   0  0  2  0  0  0  0  0  0  0  0  0
    1.4728    2.6210    6.9981 O   0  0  0  0  0  0  0  0  0  0  0  0
   -0.9258    2.5591    7.3191 C   0  0  0  0  0  0  0  0  0  0  0  0
   -1.0876    4.0086    7.8515 C   0  0  0  0  0  0  0  0  0  0  0  0
   -1.3368    1.7234    8.5604 C   0  0  0  0  0  0  0  0  0  0  0  0
    3.6868   -3.2006    2.9359 H   0  0  0  0  0  0  0  0  0  0  0  0
    4.3331   -1.8483    1.8667 H   0  0  0  0  0  0  0  0  0  0  0  0
    4.0788    1.6800    4.0670 H   0  0  0  0  0  0  0  0  0  0  0  0
    4.1672   -0.2650    5.3731 H   0  0  0  0  0  0  0  0  0  0  0  0
    4.9664    1.0778    5.8921 H   0  0  0  0  0  0  0  0  0  0  0  0
    4.3031    0.1345    7.7718 H   0  0  0  0  0  0  0  0  0  0  0  0
    3.4574    1.5678    7.7336 H   0  0  0  0  0  0  0  0  0  0  0  0
    2.6784   -1.2408    7.8480 H   0  0  0  0  0  0  0  0  0  0  0  0
    1.5246    1.1299    9.2764 H   0  0  0  0  0  0  0  0  0  0  0  0
    2.8430    0.1018    9.8009 H   0  0  0  0  0  0  0  0  0  0  0  0
    1.2336   -0.5655    9.6659 H   0  0  0  0  0  0  0  0  0  0  0  0
    0.1697   -0.4799    7.7033 H   0  0  0  0  0  0  0  0  0  0  0  0
    1.0966   -2.6164    7.4545 H   0  0  0  0  0  0  0  0  0  0  0  0
   -0.5926   -3.3962    6.3863 H   0  0  0  0  0  0  0  0  0  0  0  0
    3.6317   -3.7213    5.1472 H   0  0  0  0  0  0  0  0  0  0  0  0
    2.9324   -3.9013    6.7366 H   0  0  0  0  0  0  0  0  0  0  0  0
    3.6800   -2.3830    6.2682 H   0  0  0  0  0  0  0  0  0  0  0  0
    1.6388   -4.3650    3.9253 H   0  0  0  0  0  0  0  0  0  0  0  0
    0.0505   -3.7287    4.2740 H   0  0  0  0  0  0  0  0  0  0  0  0
    0.8635   -4.7636    5.4479 H   0  0  0  0  0  0  0  0  0  0  0  0
    2.3241   -0.9779    5.0525 H   0  0  0  0  0  0  0  0  0  0  0  0
    0.3851   -1.0469    2.8662 H   0  0  0  0  0  0  0  0  0  0  0  0
   -0.3589   -1.4253    4.3566 H   0  0  0  0  0  0  0  0  0  0  0  0
   -0.0521    0.7447    3.7675 H   0  0  0  0  0  0  0  0  0  0  0  0
   -1.7089    0.3396    4.8181 H   0  0  0  0  0  0  0  0  0  0  0  0
   -1.7970    0.0780    6.4928 H   0  0  0  0  0  0  0  0  0  0  0  0
   -2.5028    2.5659    5.7691 H   0  0  0  0  0  0  0  0  0  0  0  0
   -0.2955    4.0820    5.6493 H   0  0  0  0  0  0  0  0  0  0  0  0
   -0.8911    2.5225    3.3347 H   0  0  0  0  0  0  0  0  0  0  0  0
   -0.1977    4.3940    2.3470 H   0  0  0  0  0  0  0  0  0  0  0  0
    0.6012    2.9028    1.3596 H   0  0  0  0  0  0  0  0  0  0  0  0
    3.0948    3.2916    2.1474 H   0  0  0  0  0  0  0  0  0  0  0  0
    1.8844    4.5040    2.3509 H   0  0  0  0  0  0  0  0  0  0  0  0
    3.2079    5.1417    4.1830 H   0  0  0  0  0  0  0  0  0  0  0  0
    5.2805    3.2138    6.1953 H   0  0  0  0  0  0  0  0  0  0  0  0
    3.8200    3.6035    7.1219 H   0  0  0  0  0  0  0  0  0  0  0  0
    4.5160    4.7725    6.0372 H   0  0  0  0  0  0  0  0  0  0  0  0
    2.1508    2.5554    6.3415 H   0  0  0  0  0  0  0  0  0  0  0  0
   -1.4744    4.0685    8.8690 H   0  0  0  0  0  0  0  0  0  0  0  0
   -1.7857    4.5783    7.2433 H   0  0  0  0  0  0  0  0  0  0  0  0
   -0.1394    4.5433    7.8640 H   0  0  0  0  0  0  0  0  0  0  0  0
   -0.6646    1.8899    9.4042 H   0  0  0  0  0  0  0  0  0  0  0  0
   -1.3556    0.6496    8.4192 H   0  0  0  0  0  0  0  0  0  0  0  0
   -2.3447    1.9750    8.9035 H   0  0  0  0  0  0  0  0  0  0  0  0
  1  2  2  0
  1 37  1  0
  1 38  1  0
  2 17  1  0
  2  3  1  0
  3  4  2  0
  5  3  1  6
  5 19  1  0
  5 26  1  0
  5  6  1  0
  6 30  1  0
  6  7  1  0
  6 39  1  6
  7  8  1  0
  7 40  1  0
  7 41  1  0
  8  9  1  0
  8 42  1  0
  8 43  1  0
  9 10  1  0
  9 11  1  0
  9 44  1  1
 10 45  1  0
 10 46  1  0
 10 47  1  0
 11 20  1  0
 11 12  1  0
 11 48  1  1
 12 13  1  0
 12 14  1  0
 12 49  1  1
 13 50  1  0
 14 15  1  0
 14 16  1  0
 14 17  1  0
 15 51  1  0
 15 52  1  0
 15 53  1  0
 16 54  1  0
 16 55  1  0
 16 56  1  0
 17 18  1  0
 17 57  1  1
 18 19  1  0
 18 58  1  0
 18 59  1  0
 19 20  1  0
 19 60  1  6
 20 32  1  0
 20 21  1  6
 21 22  1  0
 21 61  1  0
 21 62  1  0
 22 34  1  0
 22 23  1  0
 22 63  1  1
 23 24  1  0
 23 32  1  0
 23 64  1  1
 24 25  1  0
 24 26  1  0
 24 65  1  6
 25 66  1  0
 26 27  1  6
 26 28  1  0
 27 67  1  0
 28 29  1  0
 28 68  1  0
 28 69  1  0
 29 30  2  0
 29 70  1  0
 30 31  1  0
 31 71  1  0
 31 72  1  0
 31 73  1  0
 32 33  1  1
 32 34  1  0
 33 74  1  0
 34 35  1  0
 34 36  1  0
 35 75  1  0
 35 76  1  0
 35 77  1  0
 36 78  1  0
 36 79  1  0
 36 80  1  0
M  END
>  <i_m_ct_stereo_status>  (223) 
1

>  <s_m_source_file>  (223) 
/var/tmp/pbs.5076255.sched01/tmpthapbt4w/86pc0xbys0.sdf

>  <i_m_source_file_index>  (223) 
15

>  <i_lp_mmshare_version>  (223) 
48012

>  <i_f3d_flags>  (223) 
1

>  <s_epik_input>  (223) 
Tz1DMUMoPVtDSDJdKVtDQEhdKEMoW0NIM10pKFtDSDNdKVtDQEBIXTJbT0hdKVtDSDJdW0NIXTNbQ0BAXTQoW0NAQEhdMltDQEhdKFtDSDNdKVtDSDJdW0NIMl1bQ0BIXTVbQ0BAXTEzNilbQ0BAXTcoW09IXSlbQ0BIXShbQ0BASF0oW0NIMl00KUM3KFtDSDNdKVtDSDNdKVtDQEBIXShbT0hdKVtDQEBdNihbT0hdKVtDSDJdW0NIXT1DNVtDSDNd

>  <s_epik_cmdline>  (223) 
J2VwaWtfcHl0aG9uJywgJy1waHQnLCAnMi4wJywgJy1waCcsICc3LjAnLCAnLXRuJywgJzgnLCAnLW1hJywgJzIwMCcsICctaW1hZScsICc8aW5maWxlLm1hZT4nLCAnLW9tYWUnLCAnPG91dGZpbGUubWFlPic=

>  <r_lp_tautomer_probability>  (223) 
1

>  <r_epik_Ionization_Penalty>  (223) 
1.45629e-06

>  <r_epik_Ionization_Penalty_Charging>  (223) 
0

>  <r_epik_Ionization_Penalty_Neutral>  (223) 
1.45629e-06

>  <r_epik_State_Penalty>  (223) 
-0

>  <r_epik_Charging_Adjusted_Penalty>  (223) 
0

>  <i_epik_Tot_Q>  (223) 
0

>  <i_epik_Tot_abs_Q>  (223) 
0

>  <s_lp_Force_Field>  (223) 
OPLS3e

>  <r_lp_Energy>  (223) 
241.034

>  <b_lp_Chiralities_Consistent>  (223) 
1

>  <s_lp_Variant>  (223) 
66:0-1

>  <s_i_glide_gridfile>  (223) 
pfpi4k_grid

>  <i_i_glide_lignum>  (223) 
15

>  <i_i_glide_rotatable_bonds>  (223) 
4

>  <r_i_docking_score>  (223) 
-2.54613

>  <r_i_glide_ligand_efficiency>  (223) 
-0.0707257

>  <r_i_glide_ligand_efficiency_sa>  (223) 
-0.233531

>  <r_i_glide_ligand_efficiency_ln>  (223) 
-0.555496

>  <r_i_glide_gscore>  (223) 
-2.54613

>  <r_i_glide_lipo>  (223) 
-0.00860408

>  <r_i_glide_hbond>  (223) 
0

>  <r_i_glide_metal>  (223) 
-0

>  <r_i_glide_rewards>  (223) 
-0.0226496

>  <r_i_glide_evdw>  (223) 
-18.4891

>  <r_i_glide_ecoul>  (223) 
-10.6007

>  <r_i_glide_erotb>  (223) 
0

>  <r_i_glide_esite>  (223) 
-0.000311716

>  <r_i_glide_emodel>  (223) 
-33.7054

>  <r_i_glide_energy>  (223) 
-29.0898

>  <r_i_glide_einternal>  (223) 
1.5153

>  <r_i_glide_intrahb_reward>  (223) 
-0

>  <i_i_glide_confnum>  (223) 
1

>  <i_i_glide_posenum>  (223) 
6

>  <r_i_glide_eff_state_penalty>  (223) 
0

>  <ligand_id>  (223) 
66

>  <original_smiles>  (223) 
C=C1C(=O)C23C4CCC(C)C5C(O)C(C)(C)C1CC2C51CC2C(C(O)C3(O)CC=C4C)C1(O)C2(C)C

>  <smiles>  (223) 
[H]OC1([H])C2([H])C3([H])C([H])([H])C4(C5([H])C([H])(O[H])C(C([H])([H])[H])(C([H])([H])[H])C6([H])C(=C([H])[H])C(=O)C7(C([H])(C(C([H])([H])[H])=C([H])C([H])([H])C17O[H])C([H])([H])C([H])([H])C5([H])C([H])([H])[H])C4([H])C6([H])[H])C2(O[H])C3(C([H])([H])[H])C([H])([H])[H]

$$$$
66:0:2
     RDKit          3D

 80 86  0  0  1  0  0  0  0  0999 V2000
    3.7246   -2.1246    2.6712 C   0  0  0  0  0  0  0  0  0  0  0  0
    2.8874   -1.2582    3.2691 C   0  0  0  0  0  0  0  0  0  0  0  0
    2.7932    0.1990    2.8514 C   0  0  0  0  0  0  0  0  0  0  0  0
    3.3336    0.6024    1.8253 O   0  0  0  0  0  0  0  0  0  0  0  0
    2.0407    1.2342    3.8298 C   0  0  2  0  0  0  0  0  0  0  0  0
    3.2577    1.7130    4.7900 C   0  0  2  0  0  0  0  0  0  0  0  0
    3.9626    0.7435    5.8104 C   0  0  0  0  0  0  0  0  0  0  0  0
    3.4727    0.6208    7.2694 C   0  0  0  0  0  0  0  0  0  0  0  0
    2.2574   -0.2392    7.7365 C   0  0  1  0  0  0  0  0  0  0  0  0
    1.9480    0.1355    9.2026 C   0  0  0  0  0  0  0  0  0  0  0  0
    0.9245   -0.5015    6.9122 C   0  0  2  0  0  0  0  0  0  0  0  0
    0.8421   -2.0755    6.5535 C   0  0  1  0  0  0  0  0  0  0  0  0
   -0.5220   -2.4661    6.4951 O   0  0  0  0  0  0  0  0  0  0  0  0
    1.7350   -2.7082    5.3712 C   0  0  0  0  0  0  0  0  0  0  0  0
    3.1108   -3.1718    5.9162 C   0  0  0  0  0  0  0  0  0  0  0  0
    1.0823   -3.9543    4.7270 C   0  0  0  0  0  0  0  0  0  0  0  0
    1.8713   -1.5846    4.3451 C   0  0  2  0  0  0  0  0  0  0  0  0
    0.5782   -0.9664    3.9505 C   0  0  0  0  0  0  0  0  0  0  0  0
    0.7776    0.4598    4.4267 C   0  0  1  0  0  0  0  0  0  0  0  0
    0.2985    0.6290    5.9159 C   0  0  1  0  0  0  0  0  0  0  0  0
   -1.2558    0.6522    5.7564 C   0  0  0  0  0  0  0  0  0  0  0  0
   -1.4946    2.1538    5.9472 C   0  0  2  0  0  0  0  0  0  0  0  0
   -0.3378    3.0276    5.3374 C   0  0  2  0  0  0  0  0  0  0  0  0
   -0.0538    3.0617    3.7842 C   0  0  1  0  0  0  0  0  0  0  0  0
   -0.3590    4.3639    3.3084 O   0  0  0  0  0  0  0  0  0  0  0  0
    1.3344    2.5233    3.1490 C   0  0  2  0  0  0  0  0  0  0  0  0
    0.8843    2.1127    1.8773 O   0  0  0  0  0  0  0  0  0  0  0  0
    2.3304    3.6551    2.8488 C   0  0  0  0  0  0  0  0  0  0  0  0
    3.0111    4.1096    4.0972 C   0  0  0  0  0  0  0  0  0  0  0  0
    3.4561    3.2351    5.0089 C   0  0  0  0  0  0  0  0  0  0  0  0
    4.2997    3.7469    6.1725 C   0  0  0  0  0  0  0  0  0  0  0  0
    0.3067    2.1298    6.4209 C   0  0  2  0  0  0  0  0  0  0  0  0
    1.4645    2.6096    7.0030 O   0  0  0  0  0  0  0  0  0  0  0  0
   -0.9297    2.5394    7.3200 C   0  0  0  0  0  0  0  0  0  0  0  0
   -1.1129    3.9929    7.8534 C   0  0  0  0  0  0  0  0  0  0  0  0
   -1.3416    1.7080    8.5560 C   0  0  0  0  0  0  0  0  0  0  0  0
    3.7529   -3.1661    2.9470 H   0  0  0  0  0  0  0  0  0  0  0  0
    4.3879   -1.8011    1.8819 H   0  0  0  0  0  0  0  0  0  0  0  0
    4.0879    1.7174    4.0817 H   0  0  0  0  0  0  0  0  0  0  0  0
    4.1944   -0.2287    5.3865 H   0  0  0  0  0  0  0  0  0  0  0  0
    4.9785    1.1236    5.9112 H   0  0  0  0  0  0  0  0  0  0  0  0
    4.3195    0.1750    7.7895 H   0  0  0  0  0  0  0  0  0  0  0  0
    3.4578    1.5928    7.7425 H   0  0  0  0  0  0  0  0  0  0  0  0
    2.7052   -1.2199    7.8555 H   0  0  0  0  0  0  0  0  0  0  0  0
    1.5253    1.1352    9.2840 H   0  0  0  0  0  0  0  0  0  0  0  0
    2.8524    0.1222    9.8103 H   0  0  0  0  0  0  0  0  0  0  0  0
    1.2497   -0.5610    9.6702 H   0  0  0  0  0  0  0  0  0  0  0  0
    0.1937   -0.4847    7.7058 H   0  0  0  0  0  0  0  0  0  0  0  0
    1.1428   -2.6092    7.4560 H   0  0  0  0  0  0  0  0  0  0  0  0
   -0.5342   -3.4080    6.3671 H   0  0  0  0  0  0  0  0  0  0  0  0
    3.6966   -3.6860    5.1549 H   0  0  0  0  0  0  0  0  0  0  0  0
    2.9924   -3.8735    6.7447 H   0  0  0  0  0  0  0  0  0  0  0  0
    3.7265   -2.3487    6.2774 H   0  0  0  0  0  0  0  0  0  0  0  0
    1.7127   -4.3526    3.9331 H   0  0  0  0  0  0  0  0  0  0  0  0
    0.1195   -3.7315    4.2711 H   0  0  0  0  0  0  0  0  0  0  0  0
    0.9349   -4.7559    5.4520 H   0  0  0  0  0  0  0  0  0  0  0  0
    2.3581   -0.9585    5.0585 H   0  0  0  0  0  0  0  0  0  0  0  0
    0.4318   -1.0427    2.8714 H   0  0  0  0  0  0  0  0  0  0  0  0
   -0.3133   -1.4310    4.3532 H   0  0  0  0  0  0  0  0  0  0  0  0
   -0.0262    0.7399    3.7734 H   0  0  0  0  0  0  0  0  0  0  0  0
   -1.6815    0.3192    4.8129 H   0  0  0  0  0  0  0  0  0  0  0  0
   -1.7748    0.0505    6.4823 H   0  0  0  0  0  0  0  0  0  0  0  0
   -2.4921    2.5378    5.7663 H   0  0  0  0  0  0  0  0  0  0  0  0
   -0.3164    4.0736    5.6565 H   0  0  0  0  0  0  0  0  0  0  0  0
   -0.8851    2.5111    3.3325 H   0  0  0  0  0  0  0  0  0  0  0  0
   -0.1839    4.3918    2.3552 H   0  0  0  0  0  0  0  0  0  0  0  0
    0.6114    2.8738    1.3690 H   0  0  0  0  0  0  0  0  0  0  0  0
    3.0972    3.3176    2.1608 H   0  0  0  0  0  0  0  0  0  0  0  0
    1.8783    4.5149    2.3622 H   0  0  0  0  0  0  0  0  0  0  0  0
    3.1906    5.1722    4.1947 H   0  0  0  0  0  0  0  0  0  0  0  0
    5.2720    3.2623    6.2155 H   0  0  0  0  0  0  0  0  0  0  0  0
    3.8032    3.6332    7.1350 H   0  0  0  0  0  0  0  0  0  0  0  0
    4.4914    4.8150    6.0555 H   0  0  0  0  0  0  0  0  0  0  0  0
    1.3117    3.5239    7.2003 H   0  0  0  0  0  0  0  0  0  0  0  0
   -1.5097    4.0455    8.8705 H   0  0  0  0  0  0  0  0  0  0  0  0
   -1.8127    4.5458    7.2386 H   0  0  0  0  0  0  0  0  0  0  0  0
   -0.1784    4.5408    7.8721 H   0  0  0  0  0  0  0  0  0  0  0  0
   -0.6761    1.8741    9.4069 H   0  0  0  0  0  0  0  0  0  0  0  0
   -1.3492    0.6355    8.4162 H   0  0  0  0  0  0  0  0  0  0  0  0
   -2.3531    1.9464    8.8981 H   0  0  0  0  0  0  0  0  0  0  0  0
  1  2  2  0
  1 37  1  0
  1 38  1  0
  2 17  1  0
  2  3  1  0
  3  4  2  0
  5  3  1  6
  5 19  1  0
  5 26  1  0
  5  6  1  0
  6 30  1  0
  6  7  1  0
  6 39  1  6
  7  8  1  0
  7 40  1  0
  7 41  1  0
  8  9  1  0
  8 42  1  0
  8 43  1  0
  9 10  1  0
  9 11  1  0
  9 44  1  1
 10 45  1  0
 10 46  1  0
 10 47  1  0
 11 20  1  0
 11 12  1  0
 11 48  1  1
 12 13  1  0
 12 14  1  0
 12 49  1  1
 13 50  1  0
 14 15  1  0
 14 16  1  0
 14 17  1  0
 15 51  1  0
 15 52  1  0
 15 53  1  0
 16 54  1  0
 16 55  1  0
 16 56  1  0
 17 18  1  0
 17 57  1  1
 18 19  1  0
 18 58  1  0
 18 59  1  0
 19 20  1  0
 19 60  1  6
 20 32  1  0
 20 21  1  6
 21 22  1  0
 21 61  1  0
 21 62  1  0
 22 34  1  0
 22 23  1  0
 22 63  1  1
 23 24  1  0
 23 32  1  0
 23 64  1  1
 24 25  1  0
 24 26  1  0
 24 65  1  6
 25 66  1  0
 26 27  1  6
 26 28  1  0
 27 67  1  0
 28 29  1  0
 28 68  1  0
 28 69  1  0
 29 30  2  0
 29 70  1  0
 30 31  1  0
 31 71  1  0
 31 72  1  0
 31 73  1  0
 32 33  1  1
 32 34  1  0
 33 74  1  0
 34 35  1  0
 34 36  1  0
 35 75  1  0
 35 76  1  0
 35 77  1  0
 36 78  1  0
 36 79  1  0
 36 80  1  0
M  END
>  <i_m_ct_stereo_status>  (224) 
1

>  <s_m_source_file>  (224) 
/var/tmp/pbs.5076255.sched01/tmpthapbt4w/86pc0xbys0.sdf

>  <i_m_source_file_index>  (224) 
15

>  <i_lp_mmshare_version>  (224) 
48012

>  <i_f3d_flags>  (224) 
1

>  <s_epik_input>  (224) 
Tz1DMUMoPVtDSDJdKVtDQEhdKEMoW0NIM10pKFtDSDNdKVtDQEBIXTJbT0hdKVtDSDJdW0NIXTNbQ0BAXTQoW0NAQEhdMltDQEhdKFtDSDNdKVtDSDJdW0NIMl1bQ0BIXTVbQ0BAXTEzNilbQ0BAXTcoW09IXSlbQ0BIXShbQ0BASF0oW0NIMl00KUM3KFtDSDNdKVtDSDNdKVtDQEBIXShbT0hdKVtDQEBdNihbT0hdKVtDSDJdW0NIXT1DNVtDSDNd

>  <s_epik_cmdline>  (224) 
J2VwaWtfcHl0aG9uJywgJy1waHQnLCAnMi4wJywgJy1waCcsICc3LjAnLCAnLXRuJywgJzgnLCAnLW1hJywgJzIwMCcsICctaW1hZScsICc8aW5maWxlLm1hZT4nLCAnLW9tYWUnLCAnPG91dGZpbGUubWFlPic=

>  <r_lp_tautomer_probability>  (224) 
1

>  <r_epik_Ionization_Penalty>  (224) 
1.45629e-06

>  <r_epik_Ionization_Penalty_Charging>  (224) 
0

>  <r_epik_Ionization_Penalty_Neutral>  (224) 
1.45629e-06

>  <r_epik_State_Penalty>  (224) 
-0

>  <r_epik_Charging_Adjusted_Penalty>  (224) 
0

>  <i_epik_Tot_Q>  (224) 
0

>  <i_epik_Tot_abs_Q>  (224) 
0

>  <s_lp_Force_Field>  (224) 
OPLS3e

>  <r_lp_Energy>  (224) 
241.034

>  <b_lp_Chiralities_Consistent>  (224) 
1

>  <s_lp_Variant>  (224) 
66:0-1

>  <s_i_glide_gridfile>  (224) 
pfpi4k_grid

>  <i_i_glide_lignum>  (224) 
15

>  <i_i_glide_rotatable_bonds>  (224) 
4

>  <r_i_docking_score>  (224) 
-2.48214

>  <r_i_glide_ligand_efficiency>  (224) 
-0.0689484

>  <r_i_glide_ligand_efficiency_sa>  (224) 
-0.227662

>  <r_i_glide_ligand_efficiency_ln>  (224) 
-0.541536

>  <r_i_glide_gscore>  (224) 
-2.48214

>  <r_i_glide_lipo>  (224) 
-0.0100138

>  <r_i_glide_hbond>  (224) 
0

>  <r_i_glide_metal>  (224) 
-0

>  <r_i_glide_rewards>  (224) 
-0.0251316

>  <r_i_glide_evdw>  (224) 
-18.587

>  <r_i_glide_ecoul>  (224) 
-10.1176

>  <r_i_glide_erotb>  (224) 
0

>  <r_i_glide_esite>  (224) 
0

>  <r_i_glide_emodel>  (224) 
-33.4643

>  <r_i_glide_energy>  (224) 
-28.7047

>  <r_i_glide_einternal>  (224) 
0.9392

>  <r_i_glide_intrahb_reward>  (224) 
-0

>  <i_i_glide_confnum>  (224) 
2

>  <i_i_glide_posenum>  (224) 
9

>  <r_i_glide_eff_state_penalty>  (224) 
0

>  <ligand_id>  (224) 
66

>  <original_smiles>  (224) 
C=C1C(=O)C23C4CCC(C)C5C(O)C(C)(C)C1CC2C51CC2C(C(O)C3(O)CC=C4C)C1(O)C2(C)C

>  <smiles>  (224) 
[H]OC1([H])C2([H])C3([H])C([H])([H])C4(C5([H])C([H])(O[H])C(C([H])([H])[H])(C([H])([H])[H])C6([H])C(=C([H])[H])C(=O)C7(C([H])(C(C([H])([H])[H])=C([H])C([H])([H])C17O[H])C([H])([H])C([H])([H])C5([H])C([H])([H])[H])C4([H])C6([H])[H])C2(O[H])C3(C([H])([H])[H])C([H])([H])[H]

$$$$
67:0:0
     RDKit          3D

 50 53  0  0  1  0  0  0  0  0999 V2000
    3.4159   -0.0290   -4.1892 C   0  0  0  0  0  0  0  0  0  0  0  0
    3.8606   -1.3619   -3.6241 C   0  0  0  0  0  0  0  0  0  0  0  0
    3.9268   -2.3703   -4.3210 O   0  0  0  0  0  0  0  0  0  0  0  0
    4.1663   -1.3248   -2.3256 O   0  0  0  0  0  0  0  0  0  0  0  0
    4.6630   -2.4894   -1.6717 C   0  0  2  0  0  0  0  0  0  0  0  0
    3.6155   -3.6164   -1.6251 C   0  0  0  0  0  0  0  0  0  0  0  0
    2.5747   -3.5180   -0.5096 C   0  0  0  0  0  0  0  0  0  0  0  0
    3.2165   -3.3564    0.8770 C   0  0  1  0  0  0  0  0  0  0  0  0
    2.2097   -3.0510    1.8139 O   0  0  0  0  0  0  0  0  0  0  0  0
    3.6998   -4.7736    1.3953 C   0  0  1  0  0  0  0  0  0  0  0  0
    4.1332   -5.7290    0.4467 O   0  0  0  0  0  0  0  0  0  0  0  0
    4.6691   -4.7492    2.5970 C   0  0  1  0  0  0  0  0  0  0  0  0
    4.7706   -6.0422    3.1376 O   0  0  0  0  0  0  0  0  0  0  0  0
    5.9245   -4.3054    2.1774 O   0  0  0  0  0  0  0  0  0  0  0  0
    6.0769   -2.9465    1.7837 C   0  0  1  0  0  0  0  0  0  0  0  0
    6.4573   -2.7164    0.3245 C   0  0  0  0  0  0  0  0  0  0  0  0
    7.6484   -1.7435    0.2549 C   0  0  0  0  0  0  0  0  0  0  0  0
    6.9550   -4.0082   -0.3120 C   0  0  0  0  0  0  0  0  0  0  0  0
    5.1800   -2.0683   -0.2732 C   0  0  2  0  0  0  0  0  0  0  0  0
    4.1308   -2.0640    0.8765 C   0  0  1  0  0  0  0  0  0  0  0  0
    3.2960   -0.7490    0.7608 C   0  0  0  0  0  0  0  0  0  0  0  0
    4.9508   -2.0428    2.1277 C   0  0  1  0  0  0  0  0  0  0  0  0
    4.5844   -1.5950    3.5143 C   0  0  0  0  0  0  0  0  0  0  0  0
    5.3349   -0.7501    2.6190 O   0  0  0  0  0  0  0  0  0  0  0  0
    4.2027    0.7089   -4.0512 H   0  0  0  0  0  0  0  0  0  0  0  0
    2.5214    0.2966   -3.6591 H   0  0  0  0  0  0  0  0  0  0  0  0
    3.1836   -0.1140   -5.2492 H   0  0  0  0  0  0  0  0  0  0  0  0
    5.5074   -2.8410   -2.2705 H   0  0  0  0  0  0  0  0  0  0  0  0
    3.0286   -3.7276   -2.5384 H   0  0  0  0  0  0  0  0  0  0  0  0
    4.1875   -4.5394   -1.5818 H   0  0  0  0  0  0  0  0  0  0  0  0
    1.9373   -2.6664   -0.7459 H   0  0  0  0  0  0  0  0  0  0  0  0
    1.9087   -4.3818   -0.5410 H   0  0  0  0  0  0  0  0  0  0  0  0
    1.7759   -2.2883    1.4770 H   0  0  0  0  0  0  0  0  0  0  0  0
    2.8013   -5.2699    1.7728 H   0  0  0  0  0  0  0  0  0  0  0  0
    3.5823   -5.6577   -0.3205 H   0  0  0  0  0  0  0  0  0  0  0  0
    4.2909   -4.1399    3.4156 H   0  0  0  0  0  0  0  0  0  0  0  0
    5.0407   -6.5931    2.4174 H   0  0  0  0  0  0  0  0  0  0  0  0
    6.9055   -2.5781    2.3756 H   0  0  0  0  0  0  0  0  0  0  0  0
    7.8874   -1.5436   -0.7733 H   0  0  0  0  0  0  0  0  0  0  0  0
    8.5567   -2.1525    0.6964 H   0  0  0  0  0  0  0  0  0  0  0  0
    7.4333   -0.7932    0.7527 H   0  0  0  0  0  0  0  0  0  0  0  0
    7.3671   -3.8126   -1.3097 H   0  0  0  0  0  0  0  0  0  0  0  0
    6.1682   -4.7429   -0.4222 H   0  0  0  0  0  0  0  0  0  0  0  0
    7.7447   -4.4660    0.2797 H   0  0  0  0  0  0  0  0  0  0  0  0
    5.4667   -1.0238   -0.4096 H   0  0  0  0  0  0  0  0  0  0  0  0
    3.9328    0.1376    0.7642 H   0  0  0  0  0  0  0  0  0  0  0  0
    2.5701   -0.6119    1.5685 H   0  0  0  0  0  0  0  0  0  0  0  0
    2.7514   -0.7212   -0.1791 H   0  0  0  0  0  0  0  0  0  0  0  0
    3.5613   -1.2940    3.7238 H   0  0  0  0  0  0  0  0  0  0  0  0
    5.1500   -2.0000    4.3381 H   0  0  0  0  0  0  0  0  0  0  0  0
  1  2  1  0
  1 25  1  0
  1 26  1  0
  1 27  1  0
  2  3  2  0
  2  4  1  0
  4  5  1  0
  5 19  1  0
  5  6  1  0
  5 28  1  6
  6  7  1  0
  6 29  1  0
  6 30  1  0
  7  8  1  0
  7 31  1  0
  7 32  1  0
  8 20  1  0
  8  9  1  1
  8 10  1  0
  9 33  1  0
 10 11  1  0
 10 12  1  0
 10 34  1  1
 11 35  1  0
 12 13  1  0
 12 14  1  0
 12 36  1  1
 13 37  1  0
 14 15  1  0
 15 22  1  0
 15 16  1  0
 15 38  1  1
 16 17  1  0
 16 18  1  0
 16 19  1  0
 17 39  1  0
 17 40  1  0
 17 41  1  0
 18 42  1  0
 18 43  1  0
 18 44  1  0
 19 20  1  0
 19 45  1  6
 20 21  1  6
 20 22  1  0
 21 46  1  0
 21 47  1  0
 21 48  1  0
 22 24  1  6
 22 23  1  0
 23 24  1  0
 23 49  1  0
 23 50  1  0
M  END
>  <i_m_ct_stereo_status>  (225) 
1

>  <s_m_source_file>  (225) 
/var/tmp/pbs.5076255.sched01/tmpthapbt4w/86pc0xbys0.sdf

>  <i_m_source_file_index>  (225) 
16

>  <i_lp_mmshare_version>  (225) 
48012

>  <i_f3d_flags>  (225) 
0

>  <s_epik_input>  (225) 
W0NIM11DKD1PKU9bQ0BIXShbQ0gyXVtDSDJdMSlbQ0BIXShDMihbQ0gzXSlbQ0gzXSlbQ0BAXTMoW0NIM10pW0NAXTEoW09IXSlbQ0BASF0oW09IXSlbQ0BASF0oW09IXSlPW0NAQEhdMltDQF0zNFtDSDJdTzQ=

>  <s_epik_cmdline>  (225) 
J2VwaWtfcHl0aG9uJywgJy1waHQnLCAnMi4wJywgJy1waCcsICc3LjAnLCAnLXRuJywgJzgnLCAnLW1hJywgJzIwMCcsICctaW1hZScsICc8aW5maWxlLm1hZT4nLCAnLW9tYWUnLCAnPG91dGZpbGUubWFlPic=

>  <r_lp_tautomer_probability>  (225) 
1

>  <r_epik_Ionization_Penalty>  (225) 
9.30372e-07

>  <r_epik_Ionization_Penalty_Charging>  (225) 
0

>  <r_epik_Ionization_Penalty_Neutral>  (225) 
9.30372e-07

>  <r_epik_State_Penalty>  (225) 
-0

>  <r_epik_Charging_Adjusted_Penalty>  (225) 
0

>  <i_epik_Tot_Q>  (225) 
0

>  <i_epik_Tot_abs_Q>  (225) 
0

>  <s_epik_Chemistry_Notes>  (225) 
This compound has an ester and may undergo hydrolysis at high or low pH. This compound contains an acetal/aminal-like group ( X-CH(R)-Y where X, Y are N, S, or O) that may be acid/base labile, releasing an aldehyde.

>  <s_lp_Force_Field>  (225) 
OPLS3e

>  <r_lp_Energy>  (225) 
59.976

>  <b_lp_Chiralities_Consistent>  (225) 
1

>  <s_lp_Variant>  (225) 
67:0-1

>  <s_i_glide_gridfile>  (225) 
pfpi4k_grid

>  <i_i_glide_lignum>  (225) 
16

>  <i_i_glide_rotatable_bonds>  (225) 
5

>  <r_i_docking_score>  (225) 
-3.66584

>  <r_i_glide_ligand_efficiency>  (225) 
-0.152743

>  <r_i_glide_ligand_efficiency_sa>  (225) 
-0.440588

>  <r_i_glide_ligand_efficiency_ln>  (225) 
-0.877403

>  <r_i_glide_gscore>  (225) 
-3.66584

>  <r_i_glide_lipo>  (225) 
-0.500232

>  <r_i_glide_hbond>  (225) 
-0.32

>  <r_i_glide_metal>  (225) 
-0

>  <r_i_glide_rewards>  (225) 
-1.40635

>  <r_i_glide_evdw>  (225) 
-18.756

>  <r_i_glide_ecoul>  (225) 
-4.42137

>  <r_i_glide_erotb>  (225) 
0.161753

>  <r_i_glide_esite>  (225) 
0

>  <r_i_glide_emodel>  (225) 
-23.1092

>  <r_i_glide_energy>  (225) 
-23.1774

>  <r_i_glide_einternal>  (225) 
3.08469

>  <r_i_glide_intrahb_reward>  (225) 
-0

>  <i_i_glide_confnum>  (225) 
4

>  <i_i_glide_posenum>  (225) 
36

>  <r_i_glide_eff_state_penalty>  (225) 
0

>  <ligand_id>  (225) 
67

>  <original_smiles>  (225) 
CC(=O)OC1CCC2(O)C(O)C(O)OC3C(C)(C)C1C2(C)C31CO1

>  <smiles>  (225) 
[H]OC1([H])OC2([H])C3(OC3([H])[H])C3(C([H])([H])[H])C([H])(C([H])(OC(=O)C([H])([H])[H])C([H])([H])C([H])([H])C3(O[H])C1([H])O[H])C2(C([H])([H])[H])C([H])([H])[H]

$$$$
67:0:1
     RDKit          3D

 50 53  0  0  1  0  0  0  0  0999 V2000
    3.2727   -0.0741   -4.1320 C   0  0  0  0  0  0  0  0  0  0  0  0
    3.7877   -1.3928   -3.5883 C   0  0  0  0  0  0  0  0  0  0  0  0
    3.9240   -2.3636   -4.3100 O   0  0  0  0  0  0  0  0  0  0  0  0
    4.0344   -1.3540   -2.2731 O   0  0  0  0  0  0  0  0  0  0  0  0
    4.5435   -2.4996   -1.6055 C   0  0  2  0  0  0  0  0  0  0  0  0
    3.5087   -3.6242   -1.5131 C   0  0  0  0  0  0  0  0  0  0  0  0
    2.5065   -3.5575   -0.3613 C   0  0  0  0  0  0  0  0  0  0  0  0
    3.1909   -3.3366    0.9950 C   0  0  1  0  0  0  0  0  0  0  0  0
    2.2078   -2.9919    1.9553 O   0  0  0  0  0  0  0  0  0  0  0  0
    3.6695   -4.7464    1.5338 C   0  0  1  0  0  0  0  0  0  0  0  0
    4.0904   -5.7225    0.5925 O   0  0  0  0  0  0  0  0  0  0  0  0
    4.6676   -4.6889    2.7042 C   0  0  1  0  0  0  0  0  0  0  0  0
    4.7870   -5.9884    3.2499 O   0  0  0  0  0  0  0  0  0  0  0  0
    5.8961   -4.2718    2.2012 O   0  0  0  0  0  0  0  0  0  0  0  0
    6.0510   -2.9167    1.8029 C   0  0  1  0  0  0  0  0  0  0  0  0
    6.3842   -2.7005    0.3321 C   0  0  0  0  0  0  0  0  0  0  0  0
    7.5708   -1.7402    0.2295 C   0  0  0  0  0  0  0  0  0  0  0  0
    6.8736   -3.9790   -0.3077 C   0  0  0  0  0  0  0  0  0  0  0  0
    5.1036   -2.0558   -0.2252 C   0  0  2  0  0  0  0  0  0  0  0  0
    4.0938   -2.0454    0.9601 C   0  0  1  0  0  0  0  0  0  0  0  0
    3.2603   -0.7307    0.8498 C   0  0  0  0  0  0  0  0  0  0  0  0
    4.9383   -2.0164    2.1863 C   0  0  1  0  0  0  0  0  0  0  0  0
    4.6134   -1.5142    3.5644 C   0  0  0  0  0  0  0  0  0  0  0  0
    5.3417   -0.7135    2.6220 O   0  0  0  0  0  0  0  0  0  0  0  0
    4.0054    0.7088   -3.9626 H   0  0  0  0  0  0  0  0  0  0  0  0
    2.3512    0.1797   -3.6108 H   0  0  0  0  0  0  0  0  0  0  0  0
    3.0580   -0.1563   -5.1983 H   0  0  0  0  0  0  0  0  0  0  0  0
    5.3745   -2.8364   -2.2225 H   0  0  0  0  0  0  0  0  0  0  0  0
    2.9090   -3.7367   -2.4078 H   0  0  0  0  0  0  0  0  0  0  0  0
    4.0709   -4.5450   -1.4801 H   0  0  0  0  0  0  0  0  0  0  0  0
    1.8051   -2.7792   -0.5860 H   0  0  0  0  0  0  0  0  0  0  0  0
    1.8834   -4.4555   -0.3587 H   0  0  0  0  0  0  0  0  0  0  0  0
    1.7565   -2.2395    1.6133 H   0  0  0  0  0  0  0  0  0  0  0  0
    2.7783   -5.2249    1.9395 H   0  0  0  0  0  0  0  0  0  0  0  0
    4.7358   -5.3148    0.0365 H   0  0  0  0  0  0  0  0  0  0  0  0
    4.3222   -4.0582    3.5330 H   0  0  0  0  0  0  0  0  0  0  0  0
    4.9931   -6.5449    2.5279 H   0  0  0  0  0  0  0  0  0  0  0  0
    6.8701   -2.5313    2.3426 H   0  0  0  0  0  0  0  0  0  0  0  0
    7.7538   -1.5699   -0.8110 H   0  0  0  0  0  0  0  0  0  0  0  0
    8.4954   -2.1400    0.6333 H   0  0  0  0  0  0  0  0  0  0  0  0
    7.3865   -0.7850    0.7075 H   0  0  0  0  0  0  0  0  0  0  0  0
    7.2600   -3.7476   -1.2937 H   0  0  0  0  0  0  0  0  0  0  0  0
    6.1085   -4.7285   -0.4156 H   0  0  0  0  0  0  0  0  0  0  0  0
    7.6854   -4.4379    0.2622 H   0  0  0  0  0  0  0  0  0  0  0  0
    5.3933   -1.0168   -0.3896 H   0  0  0  0  0  0  0  0  0  0  0  0
    3.8912    0.1554    0.8112 H   0  0  0  0  0  0  0  0  0  0  0  0
    2.5579   -0.5651    1.6728 H   0  0  0  0  0  0  0  0  0  0  0  0
    2.6738   -0.7147   -0.0721 H   0  0  0  0  0  0  0  0  0  0  0  0
    3.5981   -1.2089    3.7840 H   0  0  0  0  0  0  0  0  0  0  0  0
    5.1952   -1.9096    4.3765 H   0  0  0  0  0  0  0  0  0  0  0  0
  1  2  1  0
  1 25  1  0
  1 26  1  0
  1 27  1  0
  2  3  2  0
  2  4  1  0
  4  5  1  0
  5 19  1  0
  5  6  1  0
  5 28  1  6
  6  7  1  0
  6 29  1  0
  6 30  1  0
  7  8  1  0
  7 31  1  0
  7 32  1  0
  8 20  1  0
  8  9  1  1
  8 10  1  0
  9 33  1  0
 10 11  1  0
 10 12  1  0
 10 34  1  1
 11 35  1  0
 12 13  1  0
 12 14  1  0
 12 36  1  1
 13 37  1  0
 14 15  1  0
 15 22  1  0
 15 16  1  0
 15 38  1  1
 16 17  1  0
 16 18  1  0
 16 19  1  0
 17 39  1  0
 17 40  1  0
 17 41  1  0
 18 42  1  0
 18 43  1  0
 18 44  1  0
 19 20  1  0
 19 45  1  6
 20 21  1  6
 20 22  1  0
 21 46  1  0
 21 47  1  0
 21 48  1  0
 22 24  1  6
 22 23  1  0
 23 24  1  0
 23 49  1  0
 23 50  1  0
M  END
>  <i_m_ct_stereo_status>  (226) 
1

>  <s_m_source_file>  (226) 
/var/tmp/pbs.5076255.sched01/tmpthapbt4w/86pc0xbys0.sdf

>  <i_m_source_file_index>  (226) 
16

>  <i_lp_mmshare_version>  (226) 
48012

>  <i_f3d_flags>  (226) 
0

>  <s_epik_input>  (226) 
W0NIM11DKD1PKU9bQ0BIXShbQ0gyXVtDSDJdMSlbQ0BIXShDMihbQ0gzXSlbQ0gzXSlbQ0BAXTMoW0NIM10pW0NAXTEoW09IXSlbQ0BASF0oW09IXSlbQ0BASF0oW09IXSlPW0NAQEhdMltDQF0zNFtDSDJdTzQ=

>  <s_epik_cmdline>  (226) 
J2VwaWtfcHl0aG9uJywgJy1waHQnLCAnMi4wJywgJy1waCcsICc3LjAnLCAnLXRuJywgJzgnLCAnLW1hJywgJzIwMCcsICctaW1hZScsICc8aW5maWxlLm1hZT4nLCAnLW9tYWUnLCAnPG91dGZpbGUubWFlPic=

>  <r_lp_tautomer_probability>  (226) 
1

>  <r_epik_Ionization_Penalty>  (226) 
9.30372e-07

>  <r_epik_Ionization_Penalty_Charging>  (226) 
0

>  <r_epik_Ionization_Penalty_Neutral>  (226) 
9.30372e-07

>  <r_epik_State_Penalty>  (226) 
-0

>  <r_epik_Charging_Adjusted_Penalty>  (226) 
0

>  <i_epik_Tot_Q>  (226) 
0

>  <i_epik_Tot_abs_Q>  (226) 
0

>  <s_epik_Chemistry_Notes>  (226) 
This compound has an ester and may undergo hydrolysis at high or low pH. This compound contains an acetal/aminal-like group ( X-CH(R)-Y where X, Y are N, S, or O) that may be acid/base labile, releasing an aldehyde.

>  <s_lp_Force_Field>  (226) 
OPLS3e

>  <r_lp_Energy>  (226) 
59.976

>  <b_lp_Chiralities_Consistent>  (226) 
1

>  <s_lp_Variant>  (226) 
67:0-1

>  <s_i_glide_gridfile>  (226) 
pfpi4k_grid

>  <i_i_glide_lignum>  (226) 
16

>  <i_i_glide_rotatable_bonds>  (226) 
5

>  <r_i_docking_score>  (226) 
-3.51446

>  <r_i_glide_ligand_efficiency>  (226) 
-0.146436

>  <r_i_glide_ligand_efficiency_sa>  (226) 
-0.422394

>  <r_i_glide_ligand_efficiency_ln>  (226) 
-0.841171

>  <r_i_glide_gscore>  (226) 
-3.51446

>  <r_i_glide_lipo>  (226) 
-0.50463

>  <r_i_glide_hbond>  (226) 
-0.32

>  <r_i_glide_metal>  (226) 
-0

>  <r_i_glide_rewards>  (226) 
-1.39188

>  <r_i_glide_evdw>  (226) 
-19.7095

>  <r_i_glide_ecoul>  (226) 
-3.16151

>  <r_i_glide_erotb>  (226) 
0.161753

>  <r_i_glide_esite>  (226) 
0

>  <r_i_glide_emodel>  (226) 
-23.0564

>  <r_i_glide_energy>  (226) 
-22.871

>  <r_i_glide_einternal>  (226) 
1.81775

>  <r_i_glide_intrahb_reward>  (226) 
-0

>  <i_i_glide_confnum>  (226) 
4

>  <i_i_glide_posenum>  (226) 
1

>  <r_i_glide_eff_state_penalty>  (226) 
0

>  <ligand_id>  (226) 
67

>  <original_smiles>  (226) 
CC(=O)OC1CCC2(O)C(O)C(O)OC3C(C)(C)C1C2(C)C31CO1

>  <smiles>  (226) 
[H]OC1([H])OC2([H])C3(OC3([H])[H])C3(C([H])([H])[H])C([H])(C([H])(OC(=O)C([H])([H])[H])C([H])([H])C([H])([H])C3(O[H])C1([H])O[H])C2(C([H])([H])[H])C([H])([H])[H]

$$$$
67:0:2
     RDKit          3D

 50 53  0  0  1  0  0  0  0  0999 V2000
    3.4116   -0.0285   -4.1494 C   0  0  0  0  0  0  0  0  0  0  0  0
    3.8181   -1.3790   -3.5962 C   0  0  0  0  0  0  0  0  0  0  0  0
    3.9088   -2.3655   -4.3129 O   0  0  0  0  0  0  0  0  0  0  0  0
    4.0689   -1.3473   -2.2823 O   0  0  0  0  0  0  0  0  0  0  0  0
    4.5592   -2.5022   -1.6072 C   0  0  2  0  0  0  0  0  0  0  0  0
    3.4954   -3.6097   -1.5274 C   0  0  0  0  0  0  0  0  0  0  0  0
    2.4891   -3.5063   -0.3808 C   0  0  0  0  0  0  0  0  0  0  0  0
    3.1764   -3.3371    0.9861 C   0  0  1  0  0  0  0  0  0  0  0  0
    2.2076   -3.0144    1.9573 O   0  0  0  0  0  0  0  0  0  0  0  0
    3.6704   -4.7460    1.5177 C   0  0  1  0  0  0  0  0  0  0  0  0
    4.0747   -5.7020    0.5561 O   0  0  0  0  0  0  0  0  0  0  0  0
    4.6719   -4.7049    2.6809 C   0  0  1  0  0  0  0  0  0  0  0  0
    4.7832   -5.9799    3.2741 O   0  0  0  0  0  0  0  0  0  0  0  0
    5.9102   -4.2809    2.2033 O   0  0  0  0  0  0  0  0  0  0  0  0
    6.0635   -2.9169    1.8102 C   0  0  1  0  0  0  0  0  0  0  0  0
    6.3952   -2.7090    0.3291 C   0  0  0  0  0  0  0  0  0  0  0  0
    7.5751   -1.7307    0.2222 C   0  0  0  0  0  0  0  0  0  0  0  0
    6.8832   -3.9983   -0.3306 C   0  0  0  0  0  0  0  0  0  0  0  0
    5.1056   -2.0628   -0.2229 C   0  0  2  0  0  0  0  0  0  0  0  0
    4.0814   -2.0490    0.9480 C   0  0  1  0  0  0  0  0  0  0  0  0
    3.2486   -0.7352    0.8472 C   0  0  0  0  0  0  0  0  0  0  0  0
    4.9402   -2.0113    2.1733 C   0  0  1  0  0  0  0  0  0  0  0  0
    4.6137   -1.5479    3.5676 C   0  0  0  0  0  0  0  0  0  0  0  0
    5.3462   -0.7152    2.6384 O   0  0  0  0  0  0  0  0  0  0  0  0
    4.2010    0.6943   -3.9497 H   0  0  0  0  0  0  0  0  0  0  0  0
    2.4994    0.2987   -3.6668 H   0  0  0  0  0  0  0  0  0  0  0  0
    3.2451   -0.0941   -5.2220 H   0  0  0  0  0  0  0  0  0  0  0  0
    5.3874   -2.8649   -2.2159 H   0  0  0  0  0  0  0  0  0  0  0  0
    2.9081   -3.7042   -2.4382 H   0  0  0  0  0  0  0  0  0  0  0  0
    4.0388   -4.5428   -1.4872 H   0  0  0  0  0  0  0  0  0  0  0  0
    1.8373   -2.6678   -0.5905 H   0  0  0  0  0  0  0  0  0  0  0  0
    1.8388   -4.3851   -0.3938 H   0  0  0  0  0  0  0  0  0  0  0  0
    1.7389   -2.2636    1.6157 H   0  0  0  0  0  0  0  0  0  0  0  0
    2.7894   -5.2458    1.9243 H   0  0  0  0  0  0  0  0  0  0  0  0
    4.7780   -5.3308    0.0439 H   0  0  0  0  0  0  0  0  0  0  0  0
    4.3151   -4.0652    3.4950 H   0  0  0  0  0  0  0  0  0  0  0  0
    5.3284   -5.8993    4.0303 H   0  0  0  0  0  0  0  0  0  0  0  0
    6.8989   -2.5392    2.3581 H   0  0  0  0  0  0  0  0  0  0  0  0
    7.7588   -1.5396   -0.8238 H   0  0  0  0  0  0  0  0  0  0  0  0
    8.5081   -2.1297    0.6297 H   0  0  0  0  0  0  0  0  0  0  0  0
    7.3773   -0.7769    0.7186 H   0  0  0  0  0  0  0  0  0  0  0  0
    7.2731   -3.8129   -1.3248 H   0  0  0  0  0  0  0  0  0  0  0  0
    6.1066   -4.7434   -0.4131 H   0  0  0  0  0  0  0  0  0  0  0  0
    7.6928   -4.4511    0.2544 H   0  0  0  0  0  0  0  0  0  0  0  0
    5.3869   -1.0232   -0.3817 H   0  0  0  0  0  0  0  0  0  0  0  0
    3.8852    0.1536    0.8248 H   0  0  0  0  0  0  0  0  0  0  0  0
    2.5372   -0.5870    1.6665 H   0  0  0  0  0  0  0  0  0  0  0  0
    2.6709   -0.7127   -0.0785 H   0  0  0  0  0  0  0  0  0  0  0  0
    3.5970   -1.2474    3.7971 H   0  0  0  0  0  0  0  0  0  0  0  0
    5.2024   -1.9443    4.3839 H   0  0  0  0  0  0  0  0  0  0  0  0
  1  2  1  0
  1 25  1  0
  1 26  1  0
  1 27  1  0
  2  3  2  0
  2  4  1  0
  4  5  1  0
  5 19  1  0
  5  6  1  0
  5 28  1  6
  6  7  1  0
  6 29  1  0
  6 30  1  0
  7  8  1  0
  7 31  1  0
  7 32  1  0
  8 20  1  0
  8  9  1  1
  8 10  1  0
  9 33  1  0
 10 11  1  0
 10 12  1  0
 10 34  1  1
 11 35  1  0
 12 13  1  0
 12 14  1  0
 12 36  1  1
 13 37  1  0
 14 15  1  0
 15 22  1  0
 15 16  1  0
 15 38  1  1
 16 17  1  0
 16 18  1  0
 16 19  1  0
 17 39  1  0
 17 40  1  0
 17 41  1  0
 18 42  1  0
 18 43  1  0
 18 44  1  0
 19 20  1  0
 19 45  1  6
 20 21  1  6
 20 22  1  0
 21 46  1  0
 21 47  1  0
 21 48  1  0
 22 24  1  6
 22 23  1  0
 23 24  1  0
 23 49  1  0
 23 50  1  0
M  END
>  <i_m_ct_stereo_status>  (227) 
1

>  <s_m_source_file>  (227) 
/var/tmp/pbs.5076255.sched01/tmpthapbt4w/86pc0xbys0.sdf

>  <i_m_source_file_index>  (227) 
16

>  <i_lp_mmshare_version>  (227) 
48012

>  <i_f3d_flags>  (227) 
0

>  <s_epik_input>  (227) 
W0NIM11DKD1PKU9bQ0BIXShbQ0gyXVtDSDJdMSlbQ0BIXShDMihbQ0gzXSlbQ0gzXSlbQ0BAXTMoW0NIM10pW0NAXTEoW09IXSlbQ0BASF0oW09IXSlbQ0BASF0oW09IXSlPW0NAQEhdMltDQF0zNFtDSDJdTzQ=

>  <s_epik_cmdline>  (227) 
J2VwaWtfcHl0aG9uJywgJy1waHQnLCAnMi4wJywgJy1waCcsICc3LjAnLCAnLXRuJywgJzgnLCAnLW1hJywgJzIwMCcsICctaW1hZScsICc8aW5maWxlLm1hZT4nLCAnLW9tYWUnLCAnPG91dGZpbGUubWFlPic=

>  <r_lp_tautomer_probability>  (227) 
1

>  <r_epik_Ionization_Penalty>  (227) 
9.30372e-07

>  <r_epik_Ionization_Penalty_Charging>  (227) 
0

>  <r_epik_Ionization_Penalty_Neutral>  (227) 
9.30372e-07

>  <r_epik_State_Penalty>  (227) 
-0

>  <r_epik_Charging_Adjusted_Penalty>  (227) 
0

>  <i_epik_Tot_Q>  (227) 
0

>  <i_epik_Tot_abs_Q>  (227) 
0

>  <s_epik_Chemistry_Notes>  (227) 
This compound has an ester and may undergo hydrolysis at high or low pH. This compound contains an acetal/aminal-like group ( X-CH(R)-Y where X, Y are N, S, or O) that may be acid/base labile, releasing an aldehyde.

>  <s_lp_Force_Field>  (227) 
OPLS3e

>  <r_lp_Energy>  (227) 
59.976

>  <b_lp_Chiralities_Consistent>  (227) 
1

>  <s_lp_Variant>  (227) 
67:0-1

>  <s_i_glide_gridfile>  (227) 
pfpi4k_grid

>  <i_i_glide_lignum>  (227) 
16

>  <i_i_glide_rotatable_bonds>  (227) 
5

>  <r_i_docking_score>  (227) 
-3.42225

>  <r_i_glide_ligand_efficiency>  (227) 
-0.142594

>  <r_i_glide_ligand_efficiency_sa>  (227) 
-0.411312

>  <r_i_glide_ligand_efficiency_ln>  (227) 
-0.819102

>  <r_i_glide_gscore>  (227) 
-3.42225

>  <r_i_glide_lipo>  (227) 
-0.49433

>  <r_i_glide_hbond>  (227) 
-0.32

>  <r_i_glide_metal>  (227) 
-0

>  <r_i_glide_rewards>  (227) 
-1.39611

>  <r_i_glide_evdw>  (227) 
-18.538

>  <r_i_glide_ecoul>  (227) 
-2.97775

>  <r_i_glide_erotb>  (227) 
0.161753

>  <r_i_glide_esite>  (227) 
0

>  <r_i_glide_emodel>  (227) 
-22.2001

>  <r_i_glide_energy>  (227) 
-21.5157

>  <r_i_glide_einternal>  (227) 
2.02537

>  <r_i_glide_intrahb_reward>  (227) 
-0

>  <i_i_glide_confnum>  (227) 
4

>  <i_i_glide_posenum>  (227) 
9

>  <r_i_glide_eff_state_penalty>  (227) 
0

>  <ligand_id>  (227) 
67

>  <original_smiles>  (227) 
CC(=O)OC1CCC2(O)C(O)C(O)OC3C(C)(C)C1C2(C)C31CO1

>  <smiles>  (227) 
[H]OC1([H])OC2([H])C3(OC3([H])[H])C3(C([H])([H])[H])C([H])(C([H])(OC(=O)C([H])([H])[H])C([H])([H])C([H])([H])C3(O[H])C1([H])O[H])C2(C([H])([H])[H])C([H])([H])[H]

$$$$
68:0:0
     RDKit          3D

 70 74  0  0  1  0  0  0  0  0999 V2000
    5.3327   -3.3744   -1.4660 C   0  0  0  0  0  0  0  0  0  0  0  0
    4.7338   -3.2135   -0.2776 C   0  0  0  0  0  0  0  0  0  0  0  0
    3.7958   -2.0901    0.0947 C   0  0  1  0  0  0  0  0  0  0  0  0
    3.4212   -1.2739   -0.9927 O   0  0  0  0  0  0  0  0  0  0  0  0
    2.6135   -2.8614    0.6509 C   0  0  0  0  0  0  0  0  0  0  0  0
    3.2479   -4.0506    1.3876 C   0  0  1  0  0  0  0  0  0  0  0  0
    2.4383   -5.3643    1.4206 C   0  0  1  0  0  0  0  0  0  0  0  0
    2.0822   -5.8079    0.1158 O   0  0  0  0  0  0  0  0  0  0  0  0
    3.2176   -6.4491    2.1903 C   0  0  0  0  0  0  0  0  0  0  0  0
    2.7707   -7.0748    3.3369 C   0  0  0  0  0  0  0  0  0  0  0  0
    1.4785   -6.5998    4.0692 C   0  0  1  0  0  0  0  0  0  0  0  0
    0.2253   -7.0883    3.2753 C   0  0  0  0  0  0  0  0  0  0  0  0
    1.3699   -7.0354    5.4565 O   0  0  0  0  0  0  0  0  0  0  0  0
    0.5009   -6.2430    6.2322 C   0  0  1  0  0  0  0  0  0  0  0  0
    0.8979   -5.9317    7.5546 O   0  0  0  0  0  0  0  0  0  0  0  0
    0.4584   -4.5951    7.8917 C   0  0  0  0  0  0  0  0  0  0  0  0
   -1.0521   -4.5330    8.2026 C   0  0  0  0  0  0  0  0  0  0  0  0
    1.2406   -3.9764    9.0689 C   0  0  0  0  0  0  0  0  0  0  0  0
    0.7558   -3.8513    6.6054 C   0  0  0  0  0  0  0  0  0  0  0  0
    0.4662   -4.9111    5.5232 C   0  0  1  0  0  0  0  0  0  0  0  0
    1.5065   -5.0854    4.4169 C   0  0  1  0  0  0  0  0  0  0  0  0
    2.9367   -4.6109    4.8381 C   0  0  0  0  0  0  0  0  0  0  0  0
    3.5450   -8.1305    3.8836 C   0  0  0  0  0  0  0  0  0  0  0  0
    3.0113   -8.9396    4.7267 O   0  0  0  0  0  0  0  0  0  0  0  0
    4.8795   -8.2847    3.5259 C   0  0  0  0  0  0  0  0  0  0  0  0
    5.8063   -9.2948    4.1789 C   0  0  0  0  0  0  0  0  0  0  0  0
    5.6413   -9.7716    5.3016 O   0  0  0  0  0  0  0  0  0  0  0  0
    5.6076   -7.3454    2.5149 C   0  0  0  0  0  0  0  0  0  0  0  0
    6.2962   -6.1997    3.3067 C   0  0  0  0  0  0  0  0  0  0  0  0
    6.7009   -8.0844    1.6897 C   0  0  0  0  0  0  0  0  0  0  0  0
    4.5507   -6.7951    1.5145 C   0  0  2  0  0  0  0  0  0  0  0  0
    5.0671   -5.6843    0.5146 C   0  0  0  0  0  0  0  0  0  0  0  0
    4.6827   -4.2218    0.8556 C   0  0  1  0  0  0  0  0  0  0  0  0
    5.9026   -4.2559   -1.6924 H   0  0  0  0  0  0  0  0  0  0  0  0
    5.2182   -2.6309   -2.2454 H   0  0  0  0  0  0  0  0  0  0  0  0
    4.2511   -1.4954    0.8903 H   0  0  0  0  0  0  0  0  0  0  0  0
    2.4815   -1.0646   -0.9014 H   0  0  0  0  0  0  0  0  0  0  0  0
    1.9827   -2.2589    1.3033 H   0  0  0  0  0  0  0  0  0  0  0  0
    1.9794   -3.2093   -0.1668 H   0  0  0  0  0  0  0  0  0  0  0  0
    3.3444   -3.6822    2.4037 H   0  0  0  0  0  0  0  0  0  0  0  0
    1.4794   -5.1192    1.8433 H   0  0  0  0  0  0  0  0  0  0  0  0
    2.8526   -5.7898   -0.4509 H   0  0  0  0  0  0  0  0  0  0  0  0
    0.1848   -6.6609    2.2814 H   0  0  0  0  0  0  0  0  0  0  0  0
   -0.7156   -6.8530    3.7730 H   0  0  0  0  0  0  0  0  0  0  0  0
    0.2587   -8.1742    3.1190 H   0  0  0  0  0  0  0  0  0  0  0  0
   -0.4870   -6.7080    6.2562 H   0  0  0  0  0  0  0  0  0  0  0  0
   -1.3175   -3.4998    8.3982 H   0  0  0  0  0  0  0  0  0  0  0  0
   -1.2982   -5.1160    9.0910 H   0  0  0  0  0  0  0  0  0  0  0  0
   -1.6710   -4.8788    7.3708 H   0  0  0  0  0  0  0  0  0  0  0  0
    0.9692   -2.9303    9.1643 H   0  0  0  0  0  0  0  0  0  0  0  0
    2.3273   -4.0004    8.9298 H   0  0  0  0  0  0  0  0  0  0  0  0
    1.0086   -4.4499   10.0261 H   0  0  0  0  0  0  0  0  0  0  0  0
    0.1628   -2.9440    6.4579 H   0  0  0  0  0  0  0  0  0  0  0  0
    1.8088   -3.5501    6.7043 H   0  0  0  0  0  0  0  0  0  0  0  0
   -0.5305   -4.7940    5.1060 H   0  0  0  0  0  0  0  0  0  0  0  0
    1.1392   -4.4487    3.6182 H   0  0  0  0  0  0  0  0  0  0  0  0
    3.2736   -5.0836    5.7662 H   0  0  0  0  0  0  0  0  0  0  0  0
    2.9660   -3.5263    4.9309 H   0  0  0  0  0  0  0  0  0  0  0  0
    3.6957   -4.8420    4.1105 H   0  0  0  0  0  0  0  0  0  0  0  0
    6.7165   -9.5494    3.6542 H   0  0  0  0  0  0  0  0  0  0  0  0
    6.8314   -5.4928    2.6660 H   0  0  0  0  0  0  0  0  0  0  0  0
    7.0188   -6.5743    4.0374 H   0  0  0  0  0  0  0  0  0  0  0  0
    5.5875   -5.6155    3.8823 H   0  0  0  0  0  0  0  0  0  0  0  0
    7.1113   -7.4855    0.8802 H   0  0  0  0  0  0  0  0  0  0  0  0
    6.2836   -8.9948    1.2487 H   0  0  0  0  0  0  0  0  0  0  0  0
    7.5790   -8.3612    2.2851 H   0  0  0  0  0  0  0  0  0  0  0  0
    4.2965   -7.6434    0.8808 H   0  0  0  0  0  0  0  0  0  0  0  0
    6.1479   -5.7087    0.3740 H   0  0  0  0  0  0  0  0  0  0  0  0
    4.6574   -5.9326   -0.4675 H   0  0  0  0  0  0  0  0  0  0  0  0
    5.3550   -3.8483    1.6279 H   0  0  0  0  0  0  0  0  0  0  0  0
  1  2  2  0
  1 34  1  0
  1 35  1  0
  2 33  1  0
  2  3  1  0
  3  4  1  0
  3  5  1  0
  3 36  1  1
  4 37  1  0
  5  6  1  0
  5 38  1  0
  5 39  1  0
  6 33  1  0
  6  7  1  0
  6 40  1  1
  7  8  1  0
  7  9  1  0
  7 41  1  1
  8 42  1  0
  9 31  1  0
  9 10  2  0
 10 11  1  0
 10 23  1  0
 11 21  1  0
 11 12  1  6
 11 13  1  0
 12 43  1  0
 12 44  1  0
 12 45  1  0
 13 14  1  0
 14 20  1  0
 14 15  1  0
 14 46  1  1
 15 16  1  0
 16 17  1  0
 16 18  1  0
 16 19  1  0
 17 47  1  0
 17 48  1  0
 17 49  1  0
 18 50  1  0
 18 51  1  0
 18 52  1  0
 19 20  1  0
 19 53  1  0
 19 54  1  0
 20 21  1  0
 20 55  1  6
 21 22  1  0
 21 56  1  6
 22 57  1  0
 22 58  1  0
 22 59  1  0
 23 24  1  0
 23 25  2  0
 25 26  1  0
 25 28  1  0
 26 27  2  0
 26 60  1  0
 28 29  1  0
 28 30  1  0
 28 31  1  0
 29 61  1  0
 29 62  1  0
 29 63  1  0
 30 64  1  0
 30 65  1  0
 30 66  1  0
 31 32  1  0
 31 67  1  6
 32 33  1  0
 32 68  1  0
 32 69  1  0
 33 70  1  1
M  CHG  1  24  -1
M  END
>  <i_m_ct_stereo_status>  (228) 
1

>  <s_m_source_file>  (228) 
/var/tmp/pbs.5076255.sched01/tmpthapbt4w/86pc0xbys0.sdf

>  <i_m_source_file_index>  (228) 
17

>  <i_lp_mmshare_version>  (228) 
48012

>  <i_f3d_flags>  (228) 
0

>  <s_epik_input>  (228) 
W09IXVtDQEBIXShbQ0gyXTEpQyg9W0NIMl0pW0NAQEhdKFtDQEBIXTEyKVtDSDJdW0NAQEhdM0MoW0NAQEhdMltPSF0pPUMoQyg9TylbQ0BASF0oW0NIXT1PKUMzKFtDSDNdKVtDSDNdKVtDQF0oTzQpKFtDSDNdKVtDQEhdKFtDSDNdKVtDQEBIXShbQ0BASF00NSlbQ0gyXUMoTzUpKFtDSDNdKVtDSDNd

>  <s_epik_cmdline>  (228) 
J2VwaWtfcHl0aG9uJywgJy1waHQnLCAnMi4wJywgJy1waCcsICc3LjAnLCAnLXRuJywgJzgnLCAnLW1hJywgJzIwMCcsICctaW1hZScsICc8aW5maWxlLm1hZT4nLCAnLW9tYWUnLCAnPG91dGZpbGUubWFlPic=

>  <r_epik_Ionization_Penalty>  (228) 
0.0859836

>  <r_epik_Ionization_Penalty_Charging>  (228) 
0.0859769

>  <r_epik_Ionization_Penalty_Neutral>  (228) 
6.63224e-06

>  <r_epik_State_Penalty>  (228) 
0.0778326

>  <r_epik_Charging_Adjusted_Penalty>  (228) 
0.16381

>  <i_epik_Tot_Q>  (228) 
-1

>  <i_epik_Tot_abs_Q>  (228) 
1

>  <s_epik_Chemistry_Notes>  (228) 
This compound contains an acetal/aminal-like group ( X-CH(R)-Y where X, Y are N, S, or O) that may be acid/base labile, releasing an aldehyde.

>  <s_lp_Force_Field>  (228) 
OPLS3e

>  <r_lp_Energy>  (228) 
60.7367

>  <b_lp_Chiralities_Consistent>  (228) 
1

>  <s_lp_Variant>  (228) 
68:0-1

>  <s_i_glide_gridfile>  (228) 
pfpi4k_grid

>  <i_i_glide_lignum>  (228) 
17

>  <i_i_glide_rotatable_bonds>  (228) 
4

>  <r_i_docking_score>  (228) 
-2.92604

>  <r_i_glide_ligand_efficiency>  (228) 
-0.088668

>  <r_i_glide_ligand_efficiency_sa>  (228) 
-0.284406

>  <r_i_glide_ligand_efficiency_ln>  (228) 
-0.650737

>  <r_i_glide_gscore>  (228) 
-2.92604

>  <r_i_glide_lipo>  (228) 
-0.493913

>  <r_i_glide_hbond>  (228) 
-0.281566

>  <r_i_glide_metal>  (228) 
-0

>  <r_i_glide_rewards>  (228) 
-0.289234

>  <r_i_glide_evdw>  (228) 
-25.9405

>  <r_i_glide_ecoul>  (228) 
-4.81969

>  <r_i_glide_erotb>  (228) 
0.096027

>  <r_i_glide_esite>  (228) 
-0.00439034

>  <r_i_glide_emodel>  (228) 
-31.5292

>  <r_i_glide_energy>  (228) 
-30.7602

>  <r_i_glide_einternal>  (228) 
4.53377

>  <r_i_glide_intrahb_reward>  (228) 
-0

>  <i_i_glide_confnum>  (228) 
6

>  <i_i_glide_posenum>  (228) 
13

>  <r_i_glide_eff_state_penalty>  (228) 
0

>  <ligand_id>  (228) 
68

>  <original_smiles>  (228) 
C=C1C(O)CC2C(O)C3=C(C4(C)OC5OC(C)(C)CC5C4C)C(=O)C(C=O)C(C)(C)C3CC12

>  <smiles>  (228) 
[H]OC1([H])C(=C([H])[H])C2([H])C([H])([H])C3([H])C(=C(C4(C([H])([H])[H])OC5([H])OC(C([H])([H])[H])(C([H])([H])[H])C([H])([H])C5([H])C4([H])C([H])([H])[H])C([O-])=C(C([H])=O)C3(C([H])([H])[H])C([H])([H])[H])C([H])(O[H])C2([H])C1([H])[H]

$$$$
68:0:1
     RDKit          3D

 70 74  0  0  1  0  0  0  0  0999 V2000
   -1.1766    4.3270    5.0134 C   0  0  0  0  0  0  0  0  0  0  0  0
   -0.9301    3.0567    4.6834 C   0  0  0  0  0  0  0  0  0  0  0  0
   -1.8182    2.1600    3.8544 C   0  0  1  0  0  0  0  0  0  0  0  0
   -2.9443    2.7936    3.2892 O   0  0  0  0  0  0  0  0  0  0  0  0
   -0.8481    1.6218    2.8137 C   0  0  0  0  0  0  0  0  0  0  0  0
    0.4502    1.4472    3.6186 C   0  0  1  0  0  0  0  0  0  0  0  0
    1.7414    1.6276    2.8308 C   0  0  1  0  0  0  0  0  0  0  0  0
    1.8249    2.9396    2.2397 O   0  0  0  0  0  0  0  0  0  0  0  0
    2.9688    1.4443    3.7587 C   0  0  0  0  0  0  0  0  0  0  0  0
    3.9668    0.5174    3.5708 C   0  0  0  0  0  0  0  0  0  0  0  0
    3.8528   -0.5767    2.4498 C   0  0  1  0  0  0  0  0  0  0  0  0
    3.9301    0.0498    1.0153 C   0  0  0  0  0  0  0  0  0  0  0  0
    4.8215   -1.6454    2.5335 O   0  0  0  0  0  0  0  0  0  0  0  0
    4.4067   -2.8357    1.8922 C   0  0  1  0  0  0  0  0  0  0  0  0
    4.7027   -4.0544    2.5473 O   0  0  0  0  0  0  0  0  0  0  0  0
    3.6405   -5.0084    2.3244 C   0  0  0  0  0  0  0  0  0  0  0  0
    3.6828   -5.6141    0.9106 C   0  0  0  0  0  0  0  0  0  0  0  0
    3.6257   -6.1520    3.3603 C   0  0  0  0  0  0  0  0  0  0  0  0
    2.4306   -4.1220    2.4958 C   0  0  0  0  0  0  0  0  0  0  0  0
    2.9049   -2.7726    1.8922 C   0  0  1  0  0  0  0  0  0  0  0  0
    2.6210   -1.4907    2.7018 C   0  0  1  0  0  0  0  0  0  0  0  0
    2.3739   -1.7713    4.2065 C   0  0  0  0  0  0  0  0  0  0  0  0
    5.0931    0.5553    4.4284 C   0  0  0  0  0  0  0  0  0  0  0  0
    6.1527   -0.0342    4.1118 O   0  0  0  0  0  0  0  0  0  0  0  0
    5.0299    1.2028    5.6814 C   0  0  0  0  0  0  0  0  0  0  0  0
    6.1783    1.0669    6.6504 C   0  0  0  0  0  0  0  0  0  0  0  0
    6.1693    1.3517    7.8662 O   0  0  0  0  0  0  0  0  0  0  0  0
    3.7759    1.9843    6.1469 C   0  0  0  0  0  0  0  0  0  0  0  0
    2.8942    1.0356    7.0126 C   0  0  0  0  0  0  0  0  0  0  0  0
    4.1405    3.2445    6.9986 C   0  0  0  0  0  0  0  0  0  0  0  0
    3.0067    2.4794    4.8958 C   0  0  2  0  0  0  0  0  0  0  0  0
    1.6217    3.1702    5.1722 C   0  0  0  0  0  0  0  0  0  0  0  0
    0.3692    2.3052    4.8827 C   0  0  1  0  0  0  0  0  0  0  0  0
   -0.4452    4.9374    5.5237 H   0  0  0  0  0  0  0  0  0  0  0  0
   -2.1150    4.7688    4.7211 H   0  0  0  0  0  0  0  0  0  0  0  0
   -2.1582    1.3448    4.4895 H   0  0  0  0  0  0  0  0  0  0  0  0
   -3.4566    2.0976    2.8925 H   0  0  0  0  0  0  0  0  0  0  0  0
   -1.1905    0.6972    2.3437 H   0  0  0  0  0  0  0  0  0  0  0  0
   -0.7290    2.3544    2.0155 H   0  0  0  0  0  0  0  0  0  0  0  0
    0.4668    0.4143    3.9553 H   0  0  0  0  0  0  0  0  0  0  0  0
    1.6196    0.9252    2.0268 H   0  0  0  0  0  0  0  0  0  0  0  0
    1.0555    3.1665    1.7301 H   0  0  0  0  0  0  0  0  0  0  0  0
    3.1245    0.7377    0.8364 H   0  0  0  0  0  0  0  0  0  0  0  0
    3.9074   -0.7053    0.2196 H   0  0  0  0  0  0  0  0  0  0  0  0
    4.8539    0.6235    0.8822 H   0  0  0  0  0  0  0  0  0  0  0  0
    4.8138   -2.8759    0.8859 H   0  0  0  0  0  0  0  0  0  0  0  0
    2.8300   -6.2846    0.7938 H   0  0  0  0  0  0  0  0  0  0  0  0
    4.5903   -6.2029    0.7485 H   0  0  0  0  0  0  0  0  0  0  0  0
    3.6061   -4.8601    0.1229 H   0  0  0  0  0  0  0  0  0  0  0  0
    2.7169   -6.7369    3.2240 H   0  0  0  0  0  0  0  0  0  0  0  0
    3.6119   -5.8126    4.4012 H   0  0  0  0  0  0  0  0  0  0  0  0
    4.4533   -6.8532    3.2391 H   0  0  0  0  0  0  0  0  0  0  0  0
    1.5345   -4.4979    1.9991 H   0  0  0  0  0  0  0  0  0  0  0  0
    2.2400   -4.1242    3.5724 H   0  0  0  0  0  0  0  0  0  0  0  0
    2.5726   -2.6550    0.8462 H   0  0  0  0  0  0  0  0  0  0  0  0
    1.7099   -1.0700    2.2836 H   0  0  0  0  0  0  0  0  0  0  0  0
    3.2202   -2.3004    4.6510 H   0  0  0  0  0  0  0  0  0  0  0  0
    1.4526   -2.3224    4.3760 H   0  0  0  0  0  0  0  0  0  0  0  0
    2.2311   -0.8568    4.7515 H   0  0  0  0  0  0  0  0  0  0  0  0
    7.0664    0.5849    6.2375 H   0  0  0  0  0  0  0  0  0  0  0  0
    1.9866    1.5179    7.3944 H   0  0  0  0  0  0  0  0  0  0  0  0
    3.4454    0.6228    7.8634 H   0  0  0  0  0  0  0  0  0  0  0  0
    2.5598    0.1701    6.4536 H   0  0  0  0  0  0  0  0  0  0  0  0
    3.2941    3.9166    7.1655 H   0  0  0  0  0  0  0  0  0  0  0  0
    4.9172    3.8120    6.4829 H   0  0  0  0  0  0  0  0  0  0  0  0
    4.4946    2.9952    8.0052 H   0  0  0  0  0  0  0  0  0  0  0  0
    3.6304    3.2618    4.4748 H   0  0  0  0  0  0  0  0  0  0  0  0
    1.5347    3.5449    6.1933 H   0  0  0  0  0  0  0  0  0  0  0  0
    1.5868    4.0651    4.5433 H   0  0  0  0  0  0  0  0  0  0  0  0
    0.2063    1.6306    5.7264 H   0  0  0  0  0  0  0  0  0  0  0  0
  1  2  2  0
  1 34  1  0
  1 35  1  0
  2 33  1  0
  2  3  1  0
  3  4  1  0
  3  5  1  0
  3 36  1  1
  4 37  1  0
  5  6  1  0
  5 38  1  0
  5 39  1  0
  6 33  1  0
  6  7  1  0
  6 40  1  1
  7  8  1  0
  7  9  1  0
  7 41  1  6
  8 42  1  0
  9 31  1  0
  9 10  2  0
 10 11  1  0
 10 23  1  0
 11 21  1  0
 11 12  1  6
 11 13  1  0
 12 43  1  0
 12 44  1  0
 12 45  1  0
 13 14  1  0
 14 20  1  0
 14 15  1  0
 14 46  1  6
 15 16  1  0
 16 17  1  0
 16 18  1  0
 16 19  1  0
 17 47  1  0
 17 48  1  0
 17 49  1  0
 18 50  1  0
 18 51  1  0
 18 52  1  0
 19 20  1  0
 19 53  1  0
 19 54  1  0
 20 21  1  0
 20 55  1  6
 21 22  1  0
 21 56  1  6
 22 57  1  0
 22 58  1  0
 22 59  1  0
 23 24  1  0
 23 25  2  0
 25 26  1  0
 25 28  1  0
 26 27  2  0
 26 60  1  0
 28 29  1  0
 28 30  1  0
 28 31  1  0
 29 61  1  0
 29 62  1  0
 29 63  1  0
 30 64  1  0
 30 65  1  0
 30 66  1  0
 31 32  1  0
 31 67  1  6
 32 33  1  0
 32 68  1  0
 32 69  1  0
 33 70  1  1
M  CHG  1  24  -1
M  END
>  <i_m_ct_stereo_status>  (229) 
1

>  <s_m_source_file>  (229) 
/var/tmp/pbs.5076255.sched01/tmpthapbt4w/86pc0xbys0.sdf

>  <i_m_source_file_index>  (229) 
17

>  <i_lp_mmshare_version>  (229) 
48012

>  <i_f3d_flags>  (229) 
0

>  <s_epik_input>  (229) 
W09IXVtDQEBIXShbQ0gyXTEpQyg9W0NIMl0pW0NAQEhdKFtDQEBIXTEyKVtDSDJdW0NAQEhdM0MoW0NAQEhdMltPSF0pPUMoQyg9TylbQ0BASF0oW0NIXT1PKUMzKFtDSDNdKVtDSDNdKVtDQF0oTzQpKFtDSDNdKVtDQEhdKFtDSDNdKVtDQEBIXShbQ0BASF00NSlbQ0gyXUMoTzUpKFtDSDNdKVtDSDNd

>  <s_epik_cmdline>  (229) 
J2VwaWtfcHl0aG9uJywgJy1waHQnLCAnMi4wJywgJy1waCcsICc3LjAnLCAnLXRuJywgJzgnLCAnLW1hJywgJzIwMCcsICctaW1hZScsICc8aW5maWxlLm1hZT4nLCAnLW9tYWUnLCAnPG91dGZpbGUubWFlPic=

>  <r_epik_Ionization_Penalty>  (229) 
0.0859836

>  <r_epik_Ionization_Penalty_Charging>  (229) 
0.0859769

>  <r_epik_Ionization_Penalty_Neutral>  (229) 
6.63224e-06

>  <r_epik_State_Penalty>  (229) 
0.0778326

>  <r_epik_Charging_Adjusted_Penalty>  (229) 
0.16381

>  <i_epik_Tot_Q>  (229) 
-1

>  <i_epik_Tot_abs_Q>  (229) 
1

>  <s_epik_Chemistry_Notes>  (229) 
This compound contains an acetal/aminal-like group ( X-CH(R)-Y where X, Y are N, S, or O) that may be acid/base labile, releasing an aldehyde.

>  <s_lp_Force_Field>  (229) 
OPLS3e

>  <r_lp_Energy>  (229) 
60.7367

>  <b_lp_Chiralities_Consistent>  (229) 
1

>  <s_lp_Variant>  (229) 
68:0-1

>  <s_i_glide_gridfile>  (229) 
pfpi4k_grid

>  <i_i_glide_lignum>  (229) 
17

>  <i_i_glide_rotatable_bonds>  (229) 
4

>  <r_i_docking_score>  (229) 
-2.89242

>  <r_i_glide_ligand_efficiency>  (229) 
-0.0876492

>  <r_i_glide_ligand_efficiency_sa>  (229) 
-0.281138

>  <r_i_glide_ligand_efficiency_ln>  (229) 
-0.64326

>  <r_i_glide_gscore>  (229) 
-2.89242

>  <r_i_glide_lipo>  (229) 
-0.199214

>  <r_i_glide_hbond>  (229) 
-0.456

>  <r_i_glide_metal>  (229) 
-0

>  <r_i_glide_rewards>  (229) 
-0.377728

>  <r_i_glide_evdw>  (229) 
-24.5986

>  <r_i_glide_ecoul>  (229) 
-4.8372

>  <r_i_glide_erotb>  (229) 
0.096027

>  <r_i_glide_esite>  (229) 
0

>  <r_i_glide_emodel>  (229) 
-32.4754

>  <r_i_glide_energy>  (229) 
-29.4358

>  <r_i_glide_einternal>  (229) 
1.95934

>  <r_i_glide_intrahb_reward>  (229) 
-0

>  <i_i_glide_confnum>  (229) 
6

>  <i_i_glide_posenum>  (229) 
12

>  <r_i_glide_eff_state_penalty>  (229) 
0

>  <ligand_id>  (229) 
68

>  <original_smiles>  (229) 
C=C1C(O)CC2C(O)C3=C(C4(C)OC5OC(C)(C)CC5C4C)C(=O)C(C=O)C(C)(C)C3CC12

>  <smiles>  (229) 
[H]OC1([H])C(=C([H])[H])C2([H])C([H])([H])C3([H])C(=C(C4(C([H])([H])[H])OC5([H])OC(C([H])([H])[H])(C([H])([H])[H])C([H])([H])C5([H])C4([H])C([H])([H])[H])C([O-])=C(C([H])=O)C3(C([H])([H])[H])C([H])([H])[H])C([H])(O[H])C2([H])C1([H])[H]

$$$$
68:0:2
     RDKit          3D

 70 74  0  0  1  0  0  0  0  0999 V2000
   -1.6036    3.1279    5.7930 C   0  0  0  0  0  0  0  0  0  0  0  0
   -0.9441    2.5689    4.7665 C   0  0  0  0  0  0  0  0  0  0  0  0
   -0.6422    3.2022    3.4221 C   0  0  1  0  0  0  0  0  0  0  0  0
   -0.9696    4.5702    3.2915 O   0  0  0  0  0  0  0  0  0  0  0  0
    0.8569    2.9436    3.2874 C   0  0  0  0  0  0  0  0  0  0  0  0
    1.0360    1.5486    3.9093 C   0  0  1  0  0  0  0  0  0  0  0  0
    2.3835    1.2779    4.5974 C   0  0  1  0  0  0  0  0  0  0  0  0
    2.6285    2.2076    5.6334 O   0  0  0  0  0  0  0  0  0  0  0  0
    2.4272   -0.1637    5.1639 C   0  0  0  0  0  0  0  0  0  0  0  0
    3.3204   -1.1336    4.7952 C   0  0  0  0  0  0  0  0  0  0  0  0
    4.3148   -0.9062    3.6083 C   0  0  1  0  0  0  0  0  0  0  0  0
    5.4554    0.0647    4.0489 C   0  0  0  0  0  0  0  0  0  0  0  0
    4.9097   -2.1225    3.0777 O   0  0  0  0  0  0  0  0  0  0  0  0
    5.3839   -1.9765    1.7417 C   0  0  1  0  0  0  0  0  0  0  0  0
    5.1478   -3.0527    0.8386 O   0  0  0  0  0  0  0  0  0  0  0  0
    4.8977   -2.5332   -0.4883 C   0  0  0  0  0  0  0  0  0  0  0  0
    6.1844   -2.0693   -1.1843 C   0  0  0  0  0  0  0  0  0  0  0  0
    4.1655   -3.5301   -1.4021 C   0  0  0  0  0  0  0  0  0  0  0  0
    4.0107   -1.3483   -0.1755 C   0  0  0  0  0  0  0  0  0  0  0  0
    4.5760   -0.8268    1.1644 C   0  0  1  0  0  0  0  0  0  0  0  0
    3.5774   -0.5276    2.2847 C   0  0  1  0  0  0  0  0  0  0  0  0
    2.2278   -1.2841    2.1234 C   0  0  0  0  0  0  0  0  0  0  0  0
    3.3009   -2.3980    5.4771 C   0  0  0  0  0  0  0  0  0  0  0  0
    4.2725   -3.1983    5.3688 O   0  0  0  0  0  0  0  0  0  0  0  0
    2.1753   -2.7731    6.2230 C   0  0  0  0  0  0  0  0  0  0  0  0
    2.0941   -4.1621    6.8114 C   0  0  0  0  0  0  0  0  0  0  0  0
    1.0819   -4.7308    7.2123 O   0  0  0  0  0  0  0  0  0  0  0  0
    0.9071   -1.8791    6.3636 C   0  0  0  0  0  0  0  0  0  0  0  0
   -0.1051   -2.2673    5.2442 C   0  0  0  0  0  0  0  0  0  0  0  0
    0.2187   -2.0217    7.7495 C   0  0  0  0  0  0  0  0  0  0  0  0
    1.3401   -0.3857    6.2244 C   0  0  2  0  0  0  0  0  0  0  0  0
    0.1643    0.6686    6.1805 C   0  0  0  0  0  0  0  0  0  0  0  0
   -0.1885    1.2522    4.7894 C   0  0  1  0  0  0  0  0  0  0  0  0
   -1.6768    2.6333    6.7493 H   0  0  0  0  0  0  0  0  0  0  0  0
   -2.0187    4.1156    5.6917 H   0  0  0  0  0  0  0  0  0  0  0  0
   -1.1863    2.6473    2.6556 H   0  0  0  0  0  0  0  0  0  0  0  0
   -0.6514    4.8150    2.4138 H   0  0  0  0  0  0  0  0  0  0  0  0
    1.1991    2.9671    2.2525 H   0  0  0  0  0  0  0  0  0  0  0  0
    1.4151    3.7039    3.8329 H   0  0  0  0  0  0  0  0  0  0  0  0
    0.9634    0.8850    3.0545 H   0  0  0  0  0  0  0  0  0  0  0  0
    3.1362    1.5118    3.8601 H   0  0  0  0  0  0  0  0  0  0  0  0
    2.7509    3.0469    5.2216 H   0  0  0  0  0  0  0  0  0  0  0  0
    5.0745    1.0507    4.3001 H   0  0  0  0  0  0  0  0  0  0  0  0
    6.2168    0.2101    3.2778 H   0  0  0  0  0  0  0  0  0  0  0  0
    5.9533   -0.2959    4.9563 H   0  0  0  0  0  0  0  0  0  0  0  0
    6.4610   -1.7522    1.7527 H   0  0  0  0  0  0  0  0  0  0  0  0
    5.9099   -1.6483   -2.1514 H   0  0  0  0  0  0  0  0  0  0  0  0
    6.8747   -2.8973   -1.3593 H   0  0  0  0  0  0  0  0  0  0  0  0
    6.6921   -1.2882   -0.6158 H   0  0  0  0  0  0  0  0  0  0  0  0
    3.8781   -3.0205   -2.3162 H   0  0  0  0  0  0  0  0  0  0  0  0
    3.2440   -3.9257   -0.9719 H   0  0  0  0  0  0  0  0  0  0  0  0
    4.7935   -4.3676   -1.7004 H   0  0  0  0  0  0  0  0  0  0  0  0
    4.0138   -0.5736   -0.9455 H   0  0  0  0  0  0  0  0  0  0  0  0
    3.0034   -1.7731   -0.1296 H   0  0  0  0  0  0  0  0  0  0  0  0
    5.2710    0.0118    1.0115 H   0  0  0  0  0  0  0  0  0  0  0  0
    3.4045    0.5370    2.1801 H   0  0  0  0  0  0  0  0  0  0  0  0
    2.3712   -2.3645    2.0313 H   0  0  0  0  0  0  0  0  0  0  0  0
    1.6740   -0.8961    1.2717 H   0  0  0  0  0  0  0  0  0  0  0  0
    1.5626   -1.1435    2.9594 H   0  0  0  0  0  0  0  0  0  0  0  0
    3.0448   -4.7024    6.7885 H   0  0  0  0  0  0  0  0  0  0  0  0
   -1.0334   -1.6859    5.2719 H   0  0  0  0  0  0  0  0  0  0  0  0
   -0.3757   -3.3240    5.2920 H   0  0  0  0  0  0  0  0  0  0  0  0
    0.3096   -2.1317    4.2496 H   0  0  0  0  0  0  0  0  0  0  0  0
   -0.5280   -1.2450    7.9349 H   0  0  0  0  0  0  0  0  0  0  0  0
    0.9664   -1.9438    8.5351 H   0  0  0  0  0  0  0  0  0  0  0  0
   -0.3217   -2.9677    7.8677 H   0  0  0  0  0  0  0  0  0  0  0  0
    1.8762   -0.1676    7.1483 H   0  0  0  0  0  0  0  0  0  0  0  0
   -0.7580    0.2921    6.6141 H   0  0  0  0  0  0  0  0  0  0  0  0
    0.4674    1.4902    6.8323 H   0  0  0  0  0  0  0  0  0  0  0  0
   -0.7994    0.5239    4.2508 H   0  0  0  0  0  0  0  0  0  0  0  0
  1  2  2  0
  1 34  1  0
  1 35  1  0
  2 33  1  0
  2  3  1  0
  3  4  1  0
  3  5  1  0
  3 36  1  6
  4 37  1  0
  5  6  1  0
  5 38  1  0
  5 39  1  0
  6 33  1  0
  6  7  1  0
  6 40  1  6
  7  8  1  0
  7  9  1  0
  7 41  1  6
  8 42  1  0
  9 31  1  0
  9 10  2  0
 10 11  1  0
 10 23  1  0
 11 21  1  0
 11 12  1  1
 11 13  1  0
 12 43  1  0
 12 44  1  0
 12 45  1  0
 13 14  1  0
 14 20  1  0
 14 15  1  0
 14 46  1  1
 15 16  1  0
 16 17  1  0
 16 18  1  0
 16 19  1  0
 17 47  1  0
 17 48  1  0
 17 49  1  0
 18 50  1  0
 18 51  1  0
 18 52  1  0
 19 20  1  0
 19 53  1  0
 19 54  1  0
 20 21  1  0
 20 55  1  6
 21 22  1  0
 21 56  1  1
 22 57  1  0
 22 58  1  0
 22 59  1  0
 23 24  1  0
 23 25  2  0
 25 26  1  0
 25 28  1  0
 26 27  2  0
 26 60  1  0
 28 29  1  0
 28 30  1  0
 28 31  1  0
 29 61  1  0
 29 62  1  0
 29 63  1  0
 30 64  1  0
 30 65  1  0
 30 66  1  0
 31 32  1  0
 31 67  1  1
 32 33  1  0
 32 68  1  0
 32 69  1  0
 33 70  1  6
M  CHG  1  24  -1
M  END
>  <i_m_ct_stereo_status>  (230) 
1

>  <s_m_source_file>  (230) 
/var/tmp/pbs.5076255.sched01/tmpthapbt4w/86pc0xbys0.sdf

>  <i_m_source_file_index>  (230) 
17

>  <i_lp_mmshare_version>  (230) 
48012

>  <i_f3d_flags>  (230) 
0

>  <s_epik_input>  (230) 
W09IXVtDQEBIXShbQ0gyXTEpQyg9W0NIMl0pW0NAQEhdKFtDQEBIXTEyKVtDSDJdW0NAQEhdM0MoW0NAQEhdMltPSF0pPUMoQyg9TylbQ0BASF0oW0NIXT1PKUMzKFtDSDNdKVtDSDNdKVtDQF0oTzQpKFtDSDNdKVtDQEhdKFtDSDNdKVtDQEBIXShbQ0BASF00NSlbQ0gyXUMoTzUpKFtDSDNdKVtDSDNd

>  <s_epik_cmdline>  (230) 
J2VwaWtfcHl0aG9uJywgJy1waHQnLCAnMi4wJywgJy1waCcsICc3LjAnLCAnLXRuJywgJzgnLCAnLW1hJywgJzIwMCcsICctaW1hZScsICc8aW5maWxlLm1hZT4nLCAnLW9tYWUnLCAnPG91dGZpbGUubWFlPic=

>  <r_epik_Ionization_Penalty>  (230) 
0.0859836

>  <r_epik_Ionization_Penalty_Charging>  (230) 
0.0859769

>  <r_epik_Ionization_Penalty_Neutral>  (230) 
6.63224e-06

>  <r_epik_State_Penalty>  (230) 
0.0778326

>  <r_epik_Charging_Adjusted_Penalty>  (230) 
0.16381

>  <i_epik_Tot_Q>  (230) 
-1

>  <i_epik_Tot_abs_Q>  (230) 
1

>  <s_epik_Chemistry_Notes>  (230) 
This compound contains an acetal/aminal-like group ( X-CH(R)-Y where X, Y are N, S, or O) that may be acid/base labile, releasing an aldehyde.

>  <s_lp_Force_Field>  (230) 
OPLS3e

>  <r_lp_Energy>  (230) 
60.7367

>  <b_lp_Chiralities_Consistent>  (230) 
1

>  <s_lp_Variant>  (230) 
68:0-1

>  <s_i_glide_gridfile>  (230) 
pfpi4k_grid

>  <i_i_glide_lignum>  (230) 
17

>  <i_i_glide_rotatable_bonds>  (230) 
4

>  <r_i_docking_score>  (230) 
-2.84153

>  <r_i_glide_ligand_efficiency>  (230) 
-0.0861068

>  <r_i_glide_ligand_efficiency_sa>  (230) 
-0.276191

>  <r_i_glide_ligand_efficiency_ln>  (230) 
-0.631941

>  <r_i_glide_gscore>  (230) 
-2.84153

>  <r_i_glide_lipo>  (230) 
-0.232243

>  <r_i_glide_hbond>  (230) 
-0.184396

>  <r_i_glide_metal>  (230) 
-0

>  <r_i_glide_rewards>  (230) 
-0.400357

>  <r_i_glide_evdw>  (230) 
-27.7888

>  <r_i_glide_ecoul>  (230) 
-4.87411

>  <r_i_glide_erotb>  (230) 
0.096027

>  <r_i_glide_esite>  (230) 
-1.12659e-06

>  <r_i_glide_emodel>  (230) 
-36.5549

>  <r_i_glide_energy>  (230) 
-32.6629

>  <r_i_glide_einternal>  (230) 
0.91677

>  <r_i_glide_intrahb_reward>  (230) 
-0

>  <i_i_glide_confnum>  (230) 
6

>  <i_i_glide_posenum>  (230) 
1

>  <r_i_glide_eff_state_penalty>  (230) 
0

>  <ligand_id>  (230) 
68

>  <original_smiles>  (230) 
C=C1C(O)CC2C(O)C3=C(C4(C)OC5OC(C)(C)CC5C4C)C(=O)C(C=O)C(C)(C)C3CC12

>  <smiles>  (230) 
[H]OC1([H])C(=C([H])[H])C2([H])C([H])([H])C3([H])C(=C(C4(C([H])([H])[H])OC5([H])OC(C([H])([H])[H])(C([H])([H])[H])C([H])([H])C5([H])C4([H])C([H])([H])[H])C([O-])=C(C([H])=O)C3(C([H])([H])[H])C([H])([H])[H])C([H])(O[H])C2([H])C1([H])[H]

$$$$
68:1:0
     RDKit          3D

 71 75  0  0  1  0  0  0  0  0999 V2000
    2.1968    1.2947    2.1063 C   0  0  0  0  0  0  0  0  0  0  0  0
    2.6309    0.8019    3.2904 C   0  0  0  0  0  0  0  0  0  0  0  0
    1.9402    0.9510    4.6309 C   0  0  1  0  0  0  0  0  0  0  0  0
    0.6030    1.3715    4.5372 O   0  0  0  0  0  0  0  0  0  0  0  0
    2.0803   -0.4453    5.2761 C   0  0  0  0  0  0  0  0  0  0  0  0
    3.1277   -1.2156    4.4318 C   0  0  1  0  0  0  0  0  0  0  0  0
    2.5426   -2.4402    3.6575 C   0  0  1  0  0  0  0  0  0  0  0  0
    1.3125   -2.1372    3.0391 O   0  0  0  0  0  0  0  0  0  0  0  0
    3.5677   -2.8777    2.6114 C   0  0  0  0  0  0  0  0  0  0  0  0
    4.3075   -4.0259    2.6491 C   0  0  0  0  0  0  0  0  0  0  0  0
    3.9428   -5.2351    3.5264 C   0  0  1  0  0  0  0  0  0  0  0  0
    4.7502   -5.1360    4.8538 C   0  0  0  0  0  0  0  0  0  0  0  0
    2.5080   -5.3286    3.8279 O   0  0  0  0  0  0  0  0  0  0  0  0
    2.2243   -6.6745    4.2530 C   0  0  1  0  0  0  0  0  0  0  0  0
    0.9246   -7.1754    3.8682 O   0  0  0  0  0  0  0  0  0  0  0  0
    1.0756   -8.5922    3.5179 C   0  0  0  0  0  0  0  0  0  0  0  0
    1.1493   -9.5260    4.7458 C   0  0  0  0  0  0  0  0  0  0  0  0
   -0.0758   -9.0544    2.6080 C   0  0  0  0  0  0  0  0  0  0  0  0
    2.4000   -8.5753    2.7678 C   0  0  0  0  0  0  0  0  0  0  0  0
    3.2406   -7.5723    3.5736 C   0  0  1  0  0  0  0  0  0  0  0  0
    4.1236   -6.5953    2.8015 C   0  0  1  0  0  0  0  0  0  0  0  0
    3.7560   -6.5272    1.2831 C   0  0  0  0  0  0  0  0  0  0  0  0
    5.4944   -4.0782    1.7960 C   0  0  0  0  0  0  0  0  0  0  0  0
    6.4830   -4.9260    2.1578 O   0  0  0  0  0  0  0  0  0  0  0  0
    5.6067   -3.3527    0.6657 C   0  0  0  0  0  0  0  0  0  0  0  0
    6.7577   -3.5061   -0.2617 C   0  0  0  0  0  0  0  0  0  0  0  0
    7.8716   -3.9505    0.0256 O   0  0  0  0  0  0  0  0  0  0  0  0
    4.5286   -2.3249    0.2780 C   0  0  0  0  0  0  0  0  0  0  0  0
    5.0693   -1.1417   -0.5587 C   0  0  0  0  0  0  0  0  0  0  0  0
    3.4627   -3.0584   -0.5610 C   0  0  0  0  0  0  0  0  0  0  0  0
    3.8566   -1.7797    1.5867 C   0  0  2  0  0  0  0  0  0  0  0  0
    4.5990   -0.6510    2.3428 C   0  0  0  0  0  0  0  0  0  0  0  0
    3.7805   -0.1322    3.5394 C   0  0  1  0  0  0  0  0  0  0  0  0
    2.7185    1.0650    1.1970 H   0  0  0  0  0  0  0  0  0  0  0  0
    1.3081    1.9080    2.0441 H   0  0  0  0  0  0  0  0  0  0  0  0
    2.5209    1.6720    5.2122 H   0  0  0  0  0  0  0  0  0  0  0  0
    0.6039    2.2380    4.1090 H   0  0  0  0  0  0  0  0  0  0  0  0
    2.4058   -0.3504    6.3079 H   0  0  0  0  0  0  0  0  0  0  0  0
    1.1264   -0.9736    5.3036 H   0  0  0  0  0  0  0  0  0  0  0  0
    3.9123   -1.5969    5.0898 H   0  0  0  0  0  0  0  0  0  0  0  0
    2.3660   -3.2156    4.3865 H   0  0  0  0  0  0  0  0  0  0  0  0
    1.4491   -1.4602    2.3715 H   0  0  0  0  0  0  0  0  0  0  0  0
    5.8068   -5.2833    4.6592 H   0  0  0  0  0  0  0  0  0  0  0  0
    4.4779   -5.8639    5.6320 H   0  0  0  0  0  0  0  0  0  0  0  0
    4.6734   -4.1512    5.3252 H   0  0  0  0  0  0  0  0  0  0  0  0
    2.2877   -6.7330    5.3267 H   0  0  0  0  0  0  0  0  0  0  0  0
    1.2823  -10.5435    4.3945 H   0  0  0  0  0  0  0  0  0  0  0  0
    0.2285   -9.5021    5.3348 H   0  0  0  0  0  0  0  0  0  0  0  0
    1.9911   -9.3058    5.4093 H   0  0  0  0  0  0  0  0  0  0  0  0
    0.1117  -10.0772    2.2952 H   0  0  0  0  0  0  0  0  0  0  0  0
   -0.1557   -8.4556    1.6978 H   0  0  0  0  0  0  0  0  0  0  0  0
   -1.0568   -9.0421    3.1036 H   0  0  0  0  0  0  0  0  0  0  0  0
    2.8596   -9.5719    2.6738 H   0  0  0  0  0  0  0  0  0  0  0  0
    2.1052   -8.2299    1.7646 H   0  0  0  0  0  0  0  0  0  0  0  0
    3.8011   -8.0741    4.3590 H   0  0  0  0  0  0  0  0  0  0  0  0
    5.1512   -6.9308    2.9004 H   0  0  0  0  0  0  0  0  0  0  0  0
    2.7117   -6.2095    1.1416 H   0  0  0  0  0  0  0  0  0  0  0  0
    3.8719   -7.5072    0.8131 H   0  0  0  0  0  0  0  0  0  0  0  0
    4.3623   -5.8303    0.6726 H   0  0  0  0  0  0  0  0  0  0  0  0
    6.5413   -3.2317   -1.2954 H   0  0  0  0  0  0  0  0  0  0  0  0
    4.3331   -0.3301   -0.5719 H   0  0  0  0  0  0  0  0  0  0  0  0
    5.2523   -1.4163   -1.6026 H   0  0  0  0  0  0  0  0  0  0  0  0
    5.9943   -0.7365   -0.1482 H   0  0  0  0  0  0  0  0  0  0  0  0
    2.6524   -2.3862   -0.8431 H   0  0  0  0  0  0  0  0  0  0  0  0
    3.0122   -3.8851   -0.0147 H   0  0  0  0  0  0  0  0  0  0  0  0
    3.8742   -3.4682   -1.4843 H   0  0  0  0  0  0  0  0  0  0  0  0
    2.9080   -1.3568    1.2422 H   0  0  0  0  0  0  0  0  0  0  0  0
    5.5372   -1.0635    2.7165 H   0  0  0  0  0  0  0  0  0  0  0  0
    4.8778    0.1591    1.6799 H   0  0  0  0  0  0  0  0  0  0  0  0
    4.4805    0.4358    4.1486 H   0  0  0  0  0  0  0  0  0  0  0  0
    7.1557   -4.8637    1.4806 H   0  0  0  0  0  0  0  0  0  0  0  0
  1  2  2  0
  1 34  1  0
  1 35  1  0
  2 33  1  0
  2  3  1  0
  3  4  1  0
  3  5  1  0
  3 36  1  1
  4 37  1  0
  5  6  1  0
  5 38  1  0
  5 39  1  0
  6 33  1  0
  6  7  1  0
  6 40  1  1
  7  8  1  0
  7  9  1  0
  7 41  1  1
  8 42  1  0
  9 31  1  0
  9 10  2  0
 10 11  1  0
 10 23  1  0
 11 21  1  0
 11 12  1  1
 11 13  1  0
 12 43  1  0
 12 44  1  0
 12 45  1  0
 13 14  1  0
 14 20  1  0
 14 15  1  0
 14 46  1  1
 15 16  1  0
 16 17  1  0
 16 18  1  0
 16 19  1  0
 17 47  1  0
 17 48  1  0
 17 49  1  0
 18 50  1  0
 18 51  1  0
 18 52  1  0
 19 20  1  0
 19 53  1  0
 19 54  1  0
 20 21  1  0
 20 55  1  1
 21 22  1  0
 21 56  1  6
 22 57  1  0
 22 58  1  0
 22 59  1  0
 23 24  1  0
 23 25  2  0
 24 71  1  0
 25 26  1  0
 25 28  1  0
 26 27  2  0
 26 60  1  0
 28 29  1  0
 28 30  1  0
 28 31  1  0
 29 61  1  0
 29 62  1  0
 29 63  1  0
 30 64  1  0
 30 65  1  0
 30 66  1  0
 31 32  1  0
 31 67  1  6
 32 33  1  0
 32 68  1  0
 32 69  1  0
 33 70  1  1
M  END
>  <i_m_ct_stereo_status>  (231) 
1

>  <s_m_source_file>  (231) 
/var/tmp/pbs.5076255.sched01/tmpthapbt4w/86pc0xbys0.sdf

>  <i_m_source_file_index>  (231) 
18

>  <i_lp_mmshare_version>  (231) 
48012

>  <i_f3d_flags>  (231) 
0

>  <s_epik_input>  (231) 
W09IXVtDQEBIXShbQ0gyXTEpQyg9W0NIMl0pW0NAQEhdKFtDQEBIXTEyKVtDSDJdW0NAQEhdM0MoW0NAQEhdMltPSF0pPUMoQyg9TylbQ0BASF0oW0NIXT1PKUMzKFtDSDNdKVtDSDNdKVtDQF0oTzQpKFtDSDNdKVtDQEhdKFtDSDNdKVtDQEBIXShbQ0BASF00NSlbQ0gyXUMoTzUpKFtDSDNdKVtDSDNd

>  <s_epik_cmdline>  (231) 
J2VwaWtfcHl0aG9uJywgJy1waHQnLCAnMi4wJywgJy1waCcsICc3LjAnLCAnLXRuJywgJzgnLCAnLW1hJywgJzIwMCcsICctaW1hZScsICc8aW5maWxlLm1hZT4nLCAnLW9tYWUnLCAnPG91dGZpbGUubWFlPic=

>  <r_epik_Ionization_Penalty>  (231) 
1.18613

>  <r_epik_Ionization_Penalty_Charging>  (231) 
0

>  <r_epik_Ionization_Penalty_Neutral>  (231) 
1.18613

>  <r_epik_State_Penalty>  (231) 
1.25177

>  <r_epik_Charging_Adjusted_Penalty>  (231) 
1.25177

>  <i_epik_Tot_Q>  (231) 
0

>  <i_epik_Tot_abs_Q>  (231) 
0

>  <s_epik_Chemistry_Notes>  (231) 
This compound contains an acetal/aminal-like group ( X-CH(R)-Y where X, Y are N, S, or O) that may be acid/base labile, releasing an aldehyde.

>  <s_lp_Force_Field>  (231) 
OPLS3e

>  <r_lp_Energy>  (231) 
50.7028

>  <b_lp_Chiralities_Consistent>  (231) 
1

>  <s_lp_Variant>  (231) 
68:0-2

>  <s_i_glide_gridfile>  (231) 
pfpi4k_grid

>  <i_i_glide_lignum>  (231) 
18

>  <i_i_glide_rotatable_bonds>  (231) 
5

>  <r_i_docking_score>  (231) 
-2.62654

>  <r_i_glide_ligand_efficiency>  (231) 
-0.0795921

>  <r_i_glide_ligand_efficiency_sa>  (231) 
-0.255294

>  <r_i_glide_ligand_efficiency_ln>  (231) 
-0.584128

>  <r_i_glide_gscore>  (231) 
-2.62654

>  <r_i_glide_lipo>  (231) 
-0.274168

>  <r_i_glide_hbond>  (231) 
0

>  <r_i_glide_metal>  (231) 
-0

>  <r_i_glide_rewards>  (231) 
-0.945813

>  <r_i_glide_evdw>  (231) 
-30.6051

>  <r_i_glide_ecoul>  (231) 
0.188605

>  <r_i_glide_erotb>  (231) 
0.0956431

>  <r_i_glide_esite>  (231) 
-0.000235207

>  <r_i_glide_emodel>  (231) 
-36.2333

>  <r_i_glide_energy>  (231) 
-30.4165

>  <r_i_glide_einternal>  (231) 
7.18433

>  <r_i_glide_intrahb_reward>  (231) 
-0.5

>  <i_i_glide_confnum>  (231) 
4

>  <i_i_glide_posenum>  (231) 
32

>  <r_i_glide_eff_state_penalty>  (231) 
0

>  <ligand_id>  (231) 
68

>  <original_smiles>  (231) 
C=C1C(O)CC2C(O)C3=C(C4(C)OC5OC(C)(C)CC5C4C)C(=O)C(C=O)C(C)(C)C3CC12

>  <smiles>  (231) 
[H]OC1=C(C([H])=O)C(C([H])([H])[H])(C([H])([H])[H])C2([H])C(=C1C1(C([H])([H])[H])OC3([H])OC(C([H])([H])[H])(C([H])([H])[H])C([H])([H])C3([H])C1([H])C([H])([H])[H])C([H])(O[H])C1([H])C([H])([H])C([H])(O[H])C(=C([H])[H])C1([H])C2([H])[H]

$$$$
68:1:1
     RDKit          3D

 71 75  0  0  1  0  0  0  0  0999 V2000
    2.3955    1.5994    2.1146 C   0  0  0  0  0  0  0  0  0  0  0  0
    2.6543    1.0594    3.3210 C   0  0  0  0  0  0  0  0  0  0  0  0
    1.8737    1.2895    4.5954 C   0  0  1  0  0  0  0  0  0  0  0  0
    0.6141    1.8794    4.3820 O   0  0  0  0  0  0  0  0  0  0  0  0
    1.7791   -0.1150    5.2267 C   0  0  0  0  0  0  0  0  0  0  0  0
    2.7967   -1.0099    4.4725 C   0  0  1  0  0  0  0  0  0  0  0  0
    2.1414   -2.1457    3.6267 C   0  0  1  0  0  0  0  0  0  0  0  0
    1.0244   -1.6821    2.8947 O   0  0  0  0  0  0  0  0  0  0  0  0
    3.1933   -2.7061    2.6689 C   0  0  0  0  0  0  0  0  0  0  0  0
    3.7739   -3.9308    2.7600 C   0  0  0  0  0  0  0  0  0  0  0  0
    3.1792   -5.0938    3.5776 C   0  0  1  0  0  0  0  0  0  0  0  0
    3.8615   -5.0996    4.9753 C   0  0  0  0  0  0  0  0  0  0  0  0
    1.7217   -5.0117    3.7385 O   0  0  0  0  0  0  0  0  0  0  0  0
    1.2343   -6.3174    4.1087 C   0  0  1  0  0  0  0  0  0  0  0  0
   -0.0690   -6.6608    3.5894 O   0  0  0  0  0  0  0  0  0  0  0  0
   -0.0407   -8.0847    3.2329 C   0  0  0  0  0  0  0  0  0  0  0  0
   -0.1751   -9.0216    4.4483 C   0  0  0  0  0  0  0  0  0  0  0  0
   -1.1420   -8.4113    2.2083 C   0  0  0  0  0  0  0  0  0  0  0  0
    1.3461   -8.2226    2.6174 C   0  0  0  0  0  0  0  0  0  0  0  0
    2.2092   -7.3312    3.5129 C   0  0  1  0  0  0  0  0  0  0  0  0
    3.2720   -6.4617    2.8572 C   0  0  1  0  0  0  0  0  0  0  0  0
    3.0668   -6.3385    1.3126 C   0  0  0  0  0  0  0  0  0  0  0  0
    5.0302   -4.1426    2.0387 C   0  0  0  0  0  0  0  0  0  0  0  0
    5.8723   -5.0746    2.4851 O   0  0  0  0  0  0  0  0  0  0  0  0
    5.3381   -3.4240    0.9146 C   0  0  0  0  0  0  0  0  0  0  0  0
    6.5415   -3.7352    0.1093 C   0  0  0  0  0  0  0  0  0  0  0  0
    7.5343   -4.3631    0.4823 O   0  0  0  0  0  0  0  0  0  0  0  0
    4.4408   -2.2719    0.4505 C   0  0  0  0  0  0  0  0  0  0  0  0
    5.2064   -1.1591   -0.3131 C   0  0  0  0  0  0  0  0  0  0  0  0
    3.3822   -2.8626   -0.5029 C   0  0  0  0  0  0  0  0  0  0  0  0
    3.7198   -1.6473    1.6955 C   0  0  2  0  0  0  0  0  0  0  0  0
    4.5187   -0.6279    2.5398 C   0  0  0  0  0  0  0  0  0  0  0  0
    3.6614   -0.0150    3.6635 C   0  0  1  0  0  0  0  0  0  0  0  0
    2.9811    1.3118    1.2600 H   0  0  0  0  0  0  0  0  0  0  0  0
    1.6043    2.3221    1.9730 H   0  0  0  0  0  0  0  0  0  0  0  0
    2.4850    1.9330    5.2329 H   0  0  0  0  0  0  0  0  0  0  0  0
    0.7483    2.6744    3.8623 H   0  0  0  0  0  0  0  0  0  0  0  0
    2.0121   -0.0634    6.2881 H   0  0  0  0  0  0  0  0  0  0  0  0
    0.7666   -0.5155    5.1534 H   0  0  0  0  0  0  0  0  0  0  0  0
    3.4595   -1.4897    5.1925 H   0  0  0  0  0  0  0  0  0  0  0  0
    1.7922   -2.8957    4.3202 H   0  0  0  0  0  0  0  0  0  0  0  0
    1.3109   -1.0572    2.2281 H   0  0  0  0  0  0  0  0  0  0  0  0
    4.9108   -5.3687    4.8874 H   0  0  0  0  0  0  0  0  0  0  0  0
    3.4331   -5.7963    5.7133 H   0  0  0  0  0  0  0  0  0  0  0  0
    3.8540   -4.1164    5.4562 H   0  0  0  0  0  0  0  0  0  0  0  0
    1.1953   -6.3948    5.1847 H   0  0  0  0  0  0  0  0  0  0  0  0
   -0.1369  -10.0525    4.0977 H   0  0  0  0  0  0  0  0  0  0  0  0
   -1.1379   -8.8942    4.9496 H   0  0  0  0  0  0  0  0  0  0  0  0
    0.6157   -8.9095    5.1934 H   0  0  0  0  0  0  0  0  0  0  0  0
   -1.0502   -9.4549    1.9185 H   0  0  0  0  0  0  0  0  0  0  0  0
   -1.0481   -7.8248    1.2925 H   0  0  0  0  0  0  0  0  0  0  0  0
   -2.1573   -8.2736    2.6035 H   0  0  0  0  0  0  0  0  0  0  0  0
    1.6872   -9.2646    2.5545 H   0  0  0  0  0  0  0  0  0  0  0  0
    1.2010   -7.8386    1.5908 H   0  0  0  0  0  0  0  0  0  0  0  0
    2.6278   -7.8958    4.3423 H   0  0  0  0  0  0  0  0  0  0  0  0
    4.2392   -6.9192    3.0402 H   0  0  0  0  0  0  0  0  0  0  0  0
    2.0794   -5.9094    1.0720 H   0  0  0  0  0  0  0  0  0  0  0  0
    3.1126   -7.3268    0.8516 H   0  0  0  0  0  0  0  0  0  0  0  0
    3.8067   -5.7134    0.7791 H   0  0  0  0  0  0  0  0  0  0  0  0
    6.4882   -3.3823   -0.9246 H   0  0  0  0  0  0  0  0  0  0  0  0
    4.5825   -0.2647   -0.3817 H   0  0  0  0  0  0  0  0  0  0  0  0
    5.4490   -1.4498   -1.3355 H   0  0  0  0  0  0  0  0  0  0  0  0
    6.1346   -0.8776    0.1907 H   0  0  0  0  0  0  0  0  0  0  0  0
    2.6969   -2.0919   -0.8479 H   0  0  0  0  0  0  0  0  0  0  0  0
    2.7779   -3.6245   -0.0136 H   0  0  0  0  0  0  0  0  0  0  0  0
    3.8278   -3.3122   -1.3882 H   0  0  0  0  0  0  0  0  0  0  0  0
    2.8674   -1.1050    1.2670 H   0  0  0  0  0  0  0  0  0  0  0  0
    5.3543   -1.1568    2.9921 H   0  0  0  0  0  0  0  0  0  0  0  0
    4.9634    0.1454    1.9215 H   0  0  0  0  0  0  0  0  0  0  0  0
    4.3656    0.4651    4.3416 H   0  0  0  0  0  0  0  0  0  0  0  0
    6.5950   -5.1267    1.8641 H   0  0  0  0  0  0  0  0  0  0  0  0
  1  2  2  0
  1 34  1  0
  1 35  1  0
  2 33  1  0
  2  3  1  0
  3  4  1  0
  3  5  1  0
  3 36  1  1
  4 37  1  0
  5  6  1  0
  5 38  1  0
  5 39  1  0
  6 33  1  0
  6  7  1  0
  6 40  1  1
  7  8  1  0
  7  9  1  0
  7 41  1  1
  8 42  1  0
  9 31  1  0
  9 10  2  0
 10 11  1  0
 10 23  1  0
 11 21  1  0
 11 12  1  1
 11 13  1  0
 12 43  1  0
 12 44  1  0
 12 45  1  0
 13 14  1  0
 14 20  1  0
 14 15  1  0
 14 46  1  1
 15 16  1  0
 16 17  1  0
 16 18  1  0
 16 19  1  0
 17 47  1  0
 17 48  1  0
 17 49  1  0
 18 50  1  0
 18 51  1  0
 18 52  1  0
 19 20  1  0
 19 53  1  0
 19 54  1  0
 20 21  1  0
 20 55  1  1
 21 22  1  0
 21 56  1  6
 22 57  1  0
 22 58  1  0
 22 59  1  0
 23 24  1  0
 23 25  2  0
 24 71  1  0
 25 26  1  0
 25 28  1  0
 26 27  2  0
 26 60  1  0
 28 29  1  0
 28 30  1  0
 28 31  1  0
 29 61  1  0
 29 62  1  0
 29 63  1  0
 30 64  1  0
 30 65  1  0
 30 66  1  0
 31 32  1  0
 31 67  1  6
 32 33  1  0
 32 68  1  0
 32 69  1  0
 33 70  1  1
M  END
>  <i_m_ct_stereo_status>  (232) 
1

>  <s_m_source_file>  (232) 
/var/tmp/pbs.5076255.sched01/tmpthapbt4w/86pc0xbys0.sdf

>  <i_m_source_file_index>  (232) 
18

>  <i_lp_mmshare_version>  (232) 
48012

>  <i_f3d_flags>  (232) 
0

>  <s_epik_input>  (232) 
W09IXVtDQEBIXShbQ0gyXTEpQyg9W0NIMl0pW0NAQEhdKFtDQEBIXTEyKVtDSDJdW0NAQEhdM0MoW0NAQEhdMltPSF0pPUMoQyg9TylbQ0BASF0oW0NIXT1PKUMzKFtDSDNdKVtDSDNdKVtDQF0oTzQpKFtDSDNdKVtDQEhdKFtDSDNdKVtDQEBIXShbQ0BASF00NSlbQ0gyXUMoTzUpKFtDSDNdKVtDSDNd

>  <s_epik_cmdline>  (232) 
J2VwaWtfcHl0aG9uJywgJy1waHQnLCAnMi4wJywgJy1waCcsICc3LjAnLCAnLXRuJywgJzgnLCAnLW1hJywgJzIwMCcsICctaW1hZScsICc8aW5maWxlLm1hZT4nLCAnLW9tYWUnLCAnPG91dGZpbGUubWFlPic=

>  <r_epik_Ionization_Penalty>  (232) 
1.18613

>  <r_epik_Ionization_Penalty_Charging>  (232) 
0

>  <r_epik_Ionization_Penalty_Neutral>  (232) 
1.18613

>  <r_epik_State_Penalty>  (232) 
1.25177

>  <r_epik_Charging_Adjusted_Penalty>  (232) 
1.25177

>  <i_epik_Tot_Q>  (232) 
0

>  <i_epik_Tot_abs_Q>  (232) 
0

>  <s_epik_Chemistry_Notes>  (232) 
This compound contains an acetal/aminal-like group ( X-CH(R)-Y where X, Y are N, S, or O) that may be acid/base labile, releasing an aldehyde.

>  <s_lp_Force_Field>  (232) 
OPLS3e

>  <r_lp_Energy>  (232) 
50.7028

>  <b_lp_Chiralities_Consistent>  (232) 
1

>  <s_lp_Variant>  (232) 
68:0-2

>  <s_i_glide_gridfile>  (232) 
pfpi4k_grid

>  <i_i_glide_lignum>  (232) 
18

>  <i_i_glide_rotatable_bonds>  (232) 
5

>  <r_i_docking_score>  (232) 
-2.62286

>  <r_i_glide_ligand_efficiency>  (232) 
-0.0794807

>  <r_i_glide_ligand_efficiency_sa>  (232) 
-0.254937

>  <r_i_glide_ligand_efficiency_ln>  (232) 
-0.583311

>  <r_i_glide_gscore>  (232) 
-2.62286

>  <r_i_glide_lipo>  (232) 
-0.220804

>  <r_i_glide_hbond>  (232) 
-0.0277683

>  <r_i_glide_metal>  (232) 
-0

>  <r_i_glide_rewards>  (232) 
-0.917536

>  <r_i_glide_evdw>  (232) 
-31.619

>  <r_i_glide_ecoul>  (232) 
0.256032

>  <r_i_glide_erotb>  (232) 
0.0956431

>  <r_i_glide_esite>  (232) 
-0.00985264

>  <r_i_glide_emodel>  (232) 
-37.4887

>  <r_i_glide_energy>  (232) 
-31.363

>  <r_i_glide_einternal>  (232) 
7.08848

>  <r_i_glide_intrahb_reward>  (232) 
-0.5

>  <i_i_glide_confnum>  (232) 
2

>  <i_i_glide_posenum>  (232) 
21

>  <r_i_glide_eff_state_penalty>  (232) 
0

>  <ligand_id>  (232) 
68

>  <original_smiles>  (232) 
C=C1C(O)CC2C(O)C3=C(C4(C)OC5OC(C)(C)CC5C4C)C(=O)C(C=O)C(C)(C)C3CC12

>  <smiles>  (232) 
[H]OC1=C(C([H])=O)C(C([H])([H])[H])(C([H])([H])[H])C2([H])C(=C1C1(C([H])([H])[H])OC3([H])OC(C([H])([H])[H])(C([H])([H])[H])C([H])([H])C3([H])C1([H])C([H])([H])[H])C([H])(O[H])C1([H])C([H])([H])C([H])(O[H])C(=C([H])[H])C1([H])C2([H])[H]

$$$$
68:1:2
     RDKit          3D

 71 75  0  0  1  0  0  0  0  0999 V2000
    2.3770    1.6013    2.1254 C   0  0  0  0  0  0  0  0  0  0  0  0
    2.6222    1.0485    3.3263 C   0  0  0  0  0  0  0  0  0  0  0  0
    1.8236    1.2556    4.5951 C   0  0  1  0  0  0  0  0  0  0  0  0
    0.5600    1.8363    4.3690 O   0  0  0  0  0  0  0  0  0  0  0  0
    1.7345   -0.1533    5.2141 C   0  0  0  0  0  0  0  0  0  0  0  0
    2.7711   -1.0318    4.4689 C   0  0  1  0  0  0  0  0  0  0  0  0
    2.1389   -2.1664    3.6073 C   0  0  1  0  0  0  0  0  0  0  0  0
    1.0238   -1.7032    2.8765 O   0  0  0  0  0  0  0  0  0  0  0  0
    3.2072   -2.7080    2.6543 C   0  0  0  0  0  0  0  0  0  0  0  0
    3.8077   -3.9308    2.7296 C   0  0  0  0  0  0  0  0  0  0  0  0
    3.2062   -5.1008    3.5394 C   0  0  1  0  0  0  0  0  0  0  0  0
    3.8872   -5.1339    4.9442 C   0  0  0  0  0  0  0  0  0  0  0  0
    1.7482   -5.0313    3.7057 O   0  0  0  0  0  0  0  0  0  0  0  0
    1.2570   -6.3368    4.0529 C   0  0  1  0  0  0  0  0  0  0  0  0
   -0.0496   -6.6703    3.5218 O   0  0  0  0  0  0  0  0  0  0  0  0
   -0.0244   -8.0894    3.1438 C   0  0  0  0  0  0  0  0  0  0  0  0
   -0.1749   -9.0400    4.3432 C   0  0  0  0  0  0  0  0  0  0  0  0
   -1.1159   -8.3992    2.0836 C   0  0  0  0  0  0  0  0  0  0  0  0
    1.3619   -8.2191    2.5294 C   0  0  0  0  0  0  0  0  0  0  0  0
    2.2308   -7.3399    3.4522 C   0  0  1  0  0  0  0  0  0  0  0  0
    3.2960   -6.4611    2.8020 C   0  0  1  0  0  0  0  0  0  0  0  0
    3.0917   -6.3129    1.2612 C   0  0  0  0  0  0  0  0  0  0  0  0
    5.0696   -4.1251    2.0093 C   0  0  0  0  0  0  0  0  0  0  0  0
    5.9294   -5.0533    2.4422 O   0  0  0  0  0  0  0  0  0  0  0  0
    5.3861   -3.3841    0.9024 C   0  0  0  0  0  0  0  0  0  0  0  0
    6.6089   -3.7376    0.1194 C   0  0  0  0  0  0  0  0  0  0  0  0
    7.0081   -3.1867   -0.9062 O   0  0  0  0  0  0  0  0  0  0  0  0
    4.4720   -2.2282    0.4460 C   0  0  0  0  0  0  0  0  0  0  0  0
    5.2076   -1.0813   -0.2843 C   0  0  0  0  0  0  0  0  0  0  0  0
    3.4290   -2.8291   -0.5189 C   0  0  0  0  0  0  0  0  0  0  0  0
    3.7299   -1.6332    1.6940 C   0  0  2  0  0  0  0  0  0  0  0  0
    4.5119   -0.6199    2.5601 C   0  0  0  0  0  0  0  0  0  0  0  0
    3.6366   -0.0239    3.6782 C   0  0  1  0  0  0  0  0  0  0  0  0
    2.9821    1.3434    1.2722 H   0  0  0  0  0  0  0  0  0  0  0  0
    1.5753    2.3123    1.9805 H   0  0  0  0  0  0  0  0  0  0  0  0
    2.4205    1.8997    5.2441 H   0  0  0  0  0  0  0  0  0  0  0  0
    0.6918    2.6273    3.8466 H   0  0  0  0  0  0  0  0  0  0  0  0
    1.9532   -0.1085    6.2790 H   0  0  0  0  0  0  0  0  0  0  0  0
    0.7264   -0.5632    5.1240 H   0  0  0  0  0  0  0  0  0  0  0  0
    3.4286   -1.5121    5.1914 H   0  0  0  0  0  0  0  0  0  0  0  0
    1.7831   -2.9247    4.2905 H   0  0  0  0  0  0  0  0  0  0  0  0
    1.3140   -1.0742    2.2079 H   0  0  0  0  0  0  0  0  0  0  0  0
    4.9303   -5.4015    4.8573 H   0  0  0  0  0  0  0  0  0  0  0  0
    3.4494   -5.8388    5.6679 H   0  0  0  0  0  0  0  0  0  0  0  0
    3.8728   -4.1555    5.4354 H   0  0  0  0  0  0  0  0  0  0  0  0
    1.2118   -6.4324    5.1299 H   0  0  0  0  0  0  0  0  0  0  0  0
   -0.1295  -10.0663    3.9833 H   0  0  0  0  0  0  0  0  0  0  0  0
   -1.1351   -8.9189    4.8549 H   0  0  0  0  0  0  0  0  0  0  0  0
    0.6201   -8.9375    5.0935 H   0  0  0  0  0  0  0  0  0  0  0  0
   -1.0306   -9.4405    1.8023 H   0  0  0  0  0  0  0  0  0  0  0  0
   -1.0165   -7.7979    1.1826 H   0  0  0  0  0  0  0  0  0  0  0  0
   -2.1290   -8.2662    2.4948 H   0  0  0  0  0  0  0  0  0  0  0  0
    1.7063   -9.2581    2.4544 H   0  0  0  0  0  0  0  0  0  0  0  0
    1.2247   -7.8186    1.5136 H   0  0  0  0  0  0  0  0  0  0  0  0
    2.6446   -7.9203    4.2634 H   0  0  0  0  0  0  0  0  0  0  0  0
    4.2603   -6.9238    2.9795 H   0  0  0  0  0  0  0  0  0  0  0  0
    2.1063   -5.8801    1.0281 H   0  0  0  0  0  0  0  0  0  0  0  0
    3.1450   -7.2942    0.7836 H   0  0  0  0  0  0  0  0  0  0  0  0
    3.8306   -5.6844    0.7376 H   0  0  0  0  0  0  0  0  0  0  0  0
    7.1502   -4.6241    0.4606 H   0  0  0  0  0  0  0  0  0  0  0  0
    4.5774   -0.1888   -0.3287 H   0  0  0  0  0  0  0  0  0  0  0  0
    5.4437   -1.3380   -1.3162 H   0  0  0  0  0  0  0  0  0  0  0  0
    6.1374   -0.8110    0.2241 H   0  0  0  0  0  0  0  0  0  0  0  0
    2.7386   -2.0646   -0.8716 H   0  0  0  0  0  0  0  0  0  0  0  0
    2.8311   -3.6061   -0.0416 H   0  0  0  0  0  0  0  0  0  0  0  0
    3.8998   -3.2709   -1.3969 H   0  0  0  0  0  0  0  0  0  0  0  0
    2.8760   -1.0981    1.2676 H   0  0  0  0  0  0  0  0  0  0  0  0
    5.3467   -1.1462    3.0191 H   0  0  0  0  0  0  0  0  0  0  0  0
    4.9580    0.1602    1.9563 H   0  0  0  0  0  0  0  0  0  0  0  0
    4.3273    0.4589    4.3678 H   0  0  0  0  0  0  0  0  0  0  0  0
    5.5295   -5.4958    3.1874 H   0  0  0  0  0  0  0  0  0  0  0  0
  1  2  2  0
  1 34  1  0
  1 35  1  0
  2 33  1  0
  2  3  1  0
  3  4  1  0
  3  5  1  0
  3 36  1  1
  4 37  1  0
  5  6  1  0
  5 38  1  0
  5 39  1  0
  6 33  1  0
  6  7  1  0
  6 40  1  1
  7  8  1  0
  7  9  1  0
  7 41  1  1
  8 42  1  0
  9 31  1  0
  9 10  2  0
 10 11  1  0
 10 23  1  0
 11 21  1  0
 11 12  1  1
 11 13  1  0
 12 43  1  0
 12 44  1  0
 12 45  1  0
 13 14  1  0
 14 20  1  0
 14 15  1  0
 14 46  1  1
 15 16  1  0
 16 17  1  0
 16 18  1  0
 16 19  1  0
 17 47  1  0
 17 48  1  0
 17 49  1  0
 18 50  1  0
 18 51  1  0
 18 52  1  0
 19 20  1  0
 19 53  1  0
 19 54  1  0
 20 21  1  0
 20 55  1  1
 21 22  1  0
 21 56  1  6
 22 57  1  0
 22 58  1  0
 22 59  1  0
 23 24  1  0
 23 25  2  0
 24 71  1  0
 25 26  1  0
 25 28  1  0
 26 27  2  0
 26 60  1  0
 28 29  1  0
 28 30  1  0
 28 31  1  0
 29 61  1  0
 29 62  1  0
 29 63  1  0
 30 64  1  0
 30 65  1  0
 30 66  1  0
 31 32  1  0
 31 67  1  6
 32 33  1  0
 32 68  1  0
 32 69  1  0
 33 70  1  1
M  END
>  <i_m_ct_stereo_status>  (233) 
1

>  <s_m_source_file>  (233) 
/var/tmp/pbs.5076255.sched01/tmpthapbt4w/86pc0xbys0.sdf

>  <i_m_source_file_index>  (233) 
18

>  <i_lp_mmshare_version>  (233) 
48012

>  <i_f3d_flags>  (233) 
0

>  <s_epik_input>  (233) 
W09IXVtDQEBIXShbQ0gyXTEpQyg9W0NIMl0pW0NAQEhdKFtDQEBIXTEyKVtDSDJdW0NAQEhdM0MoW0NAQEhdMltPSF0pPUMoQyg9TylbQ0BASF0oW0NIXT1PKUMzKFtDSDNdKVtDSDNdKVtDQF0oTzQpKFtDSDNdKVtDQEhdKFtDSDNdKVtDQEBIXShbQ0BASF00NSlbQ0gyXUMoTzUpKFtDSDNdKVtDSDNd

>  <s_epik_cmdline>  (233) 
J2VwaWtfcHl0aG9uJywgJy1waHQnLCAnMi4wJywgJy1waCcsICc3LjAnLCAnLXRuJywgJzgnLCAnLW1hJywgJzIwMCcsICctaW1hZScsICc8aW5maWxlLm1hZT4nLCAnLW9tYWUnLCAnPG91dGZpbGUubWFlPic=

>  <r_epik_Ionization_Penalty>  (233) 
1.18613

>  <r_epik_Ionization_Penalty_Charging>  (233) 
0

>  <r_epik_Ionization_Penalty_Neutral>  (233) 
1.18613

>  <r_epik_State_Penalty>  (233) 
1.25177

>  <r_epik_Charging_Adjusted_Penalty>  (233) 
1.25177

>  <i_epik_Tot_Q>  (233) 
0

>  <i_epik_Tot_abs_Q>  (233) 
0

>  <s_epik_Chemistry_Notes>  (233) 
This compound contains an acetal/aminal-like group ( X-CH(R)-Y where X, Y are N, S, or O) that may be acid/base labile, releasing an aldehyde.

>  <s_lp_Force_Field>  (233) 
OPLS3e

>  <r_lp_Energy>  (233) 
50.7028

>  <b_lp_Chiralities_Consistent>  (233) 
1

>  <s_lp_Variant>  (233) 
68:0-2

>  <s_i_glide_gridfile>  (233) 
pfpi4k_grid

>  <i_i_glide_lignum>  (233) 
18

>  <i_i_glide_rotatable_bonds>  (233) 
5

>  <r_i_docking_score>  (233) 
-2.16741

>  <r_i_glide_ligand_efficiency>  (233) 
-0.065679

>  <r_i_glide_ligand_efficiency_sa>  (233) 
-0.210668

>  <r_i_glide_ligand_efficiency_ln>  (233) 
-0.48202

>  <r_i_glide_gscore>  (233) 
-2.16741

>  <r_i_glide_lipo>  (233) 
-0.223294

>  <r_i_glide_hbond>  (233) 
-0.0334884

>  <r_i_glide_metal>  (233) 
-0

>  <r_i_glide_rewards>  (233) 
-0.423038

>  <r_i_glide_evdw>  (233) 
-31.6909

>  <r_i_glide_ecoul>  (233) 
0.0777475

>  <r_i_glide_erotb>  (233) 
0.0956431

>  <r_i_glide_esite>  (233) 
-0.0103474

>  <r_i_glide_emodel>  (233) 
-33.7729

>  <r_i_glide_energy>  (233) 
-31.6132

>  <r_i_glide_einternal>  (233) 
2.71691

>  <r_i_glide_intrahb_reward>  (233) 
-0

>  <i_i_glide_confnum>  (233) 
2

>  <i_i_glide_posenum>  (233) 
35

>  <r_i_glide_eff_state_penalty>  (233) 
0

>  <ligand_id>  (233) 
68

>  <original_smiles>  (233) 
C=C1C(O)CC2C(O)C3=C(C4(C)OC5OC(C)(C)CC5C4C)C(=O)C(C=O)C(C)(C)C3CC12

>  <smiles>  (233) 
[H]OC1=C(C([H])=O)C(C([H])([H])[H])(C([H])([H])[H])C2([H])C(=C1C1(C([H])([H])[H])OC3([H])OC(C([H])([H])[H])(C([H])([H])[H])C([H])([H])C3([H])C1([H])C([H])([H])[H])C([H])(O[H])C1([H])C([H])([H])C([H])(O[H])C(=C([H])[H])C1([H])C2([H])[H]

$$$$
69:0:0
     RDKit          3D

 33 35  0  0  1  0  0  0  0  0999 V2000
    2.4300   -2.8192    1.7803 C   0  0  0  0  0  0  0  0  0  0  0  0
    2.8044   -4.1152    1.2365 N   0  0  0  0  0  0  0  0  0  0  0  0
    2.2609   -5.2956    1.6998 C   0  0  0  0  0  0  0  0  0  0  0  0
    2.8268   -6.3321    0.9904 C   0  0  0  0  0  0  0  0  0  0  0  0
    3.7406   -5.7682    0.0904 C   0  0  0  0  0  0  0  0  0  0  0  0
    3.7217   -4.3952    0.2121 C   0  0  0  0  0  0  0  0  0  0  0  0
    4.5558   -3.3619   -0.5385 C   0  0  1  0  0  0  0  0  0  0  0  0
    5.6409   -2.7527    0.3840 C   0  0  0  0  0  0  0  0  0  0  0  0
    5.2635   -3.9914   -1.6680 N   0  0  0  0  0  0  0  0  0  0  0  0
    5.0465   -3.2456   -2.7512 C   0  0  0  0  0  0  0  0  0  0  0  0
    4.3108   -3.8030   -3.7279 N   0  0  0  0  0  0  0  0  0  0  0  0
    2.8718   -3.4501   -3.5883 C   0  0  0  0  0  0  0  0  0  0  0  0
    2.5430   -2.8565   -2.1698 C   0  0  0  0  0  0  0  0  0  0  0  0
    3.7761   -2.2813   -1.3653 C   0  0  1  0  0  0  0  0  0  0  0  0
    3.4119   -1.1948   -0.5792 O   0  0  0  0  0  0  0  0  0  0  0  0
    4.7312   -1.9894   -2.4289 N   0  0  0  0  0  0  0  0  0  0  0  0
    1.8790   -2.9640    2.7083 H   0  0  0  0  0  0  0  0  0  0  0  0
    1.8016   -2.2990    1.0568 H   0  0  0  0  0  0  0  0  0  0  0  0
    3.3108   -2.2194    2.0040 H   0  0  0  0  0  0  0  0  0  0  0  0
    1.5194   -5.3216    2.4767 H   0  0  0  0  0  0  0  0  0  0  0  0
    2.5783   -7.3701    1.1332 H   0  0  0  0  0  0  0  0  0  0  0  0
    4.3779   -6.3179   -0.6003 H   0  0  0  0  0  0  0  0  0  0  0  0
    5.2302   -2.1710    1.2093 H   0  0  0  0  0  0  0  0  0  0  0  0
    6.3025   -2.0833   -0.1545 H   0  0  0  0  0  0  0  0  0  0  0  0
    6.2474   -3.5394    0.8403 H   0  0  0  0  0  0  0  0  0  0  0  0
    5.4116   -4.9860   -1.6652 H   0  0  0  0  0  0  0  0  0  0  0  0
    2.6130   -2.7146   -4.3398 H   0  0  0  0  0  0  0  0  0  0  0  0
    2.2439   -4.3063   -3.7983 H   0  0  0  0  0  0  0  0  0  0  0  0
    1.8302   -2.0467   -2.3357 H   0  0  0  0  0  0  0  0  0  0  0  0
    2.0032   -3.5909   -1.5767 H   0  0  0  0  0  0  0  0  0  0  0  0
    2.4774   -1.0222   -0.7088 H   0  0  0  0  0  0  0  0  0  0  0  0
    4.4967   -1.3010   -3.1484 H   0  0  0  0  0  0  0  0  0  0  0  0
    4.5121   -4.7398   -4.0627 H   0  0  0  0  0  0  0  0  0  0  0  0
  1  2  1  0
  1 17  1  0
  1 18  1  0
  1 19  1  0
  2  6  1  0
  2  3  1  0
  3  4  2  0
  3 20  1  0
  4  5  1  0
  4 21  1  0
  5  6  2  0
  5 22  1  0
  6  7  1  0
  7 14  1  0
  7  8  1  1
  7  9  1  0
  8 23  1  0
  8 24  1  0
  8 25  1  0
  9 10  1  0
  9 26  1  0
 10 16  1  0
 10 11  2  0
 11 12  1  0
 11 33  1  0
 12 13  1  0
 12 27  1  0
 12 28  1  0
 13 14  1  0
 13 29  1  0
 13 30  1  0
 14 15  1  1
 14 16  1  0
 15 31  1  0
 16 32  1  0
M  CHG  1  11   1
M  END
>  <i_m_ct_stereo_status>  (234) 
1

>  <s_m_source_file>  (234) 
/var/tmp/pbs.5076255.sched01/tmpthapbt4w/86pc0xbys0.sdf

>  <i_m_source_file_index>  (234) 
19

>  <i_lp_mmshare_version>  (234) 
48012

>  <i_f3d_flags>  (234) 
0

>  <s_epik_input>  (234) 
W0NIM11uMVtjSF1bY0hdW2NIXWMxW0NAXShbQ0gzXSkoW0NAXTIzW09IXSlbTkhdQyhbTkhdMyk9TltDSDJdW0NIMl0y

>  <s_epik_cmdline>  (234) 
J2VwaWtfcHl0aG9uJywgJy1waHQnLCAnMi4wJywgJy1waCcsICc3LjAnLCAnLXRuJywgJzgnLCAnLW1hJywgJzIwMCcsICctaW1hZScsICc8aW5maWxlLm1hZT4nLCAnLW9tYWUnLCAnPG91dGZpbGUubWFlPic=

>  <r_epik_Ionization_Penalty>  (234) 
0.000341864

>  <r_epik_Ionization_Penalty_Charging>  (234) 
8.66279e-07

>  <r_epik_Ionization_Penalty_Neutral>  (234) 
0.000340998

>  <r_epik_State_Penalty>  (234) 
0.000206764

>  <r_epik_Charging_Adjusted_Penalty>  (234) 
0.00020763

>  <i_epik_Tot_Q>  (234) 
1

>  <i_epik_Tot_abs_Q>  (234) 
1

>  <s_epik_Chemistry_Notes>  (234) 
This compound has an imine and may undergo hydrolysis.

>  <s_lp_Force_Field>  (234) 
OPLS3e

>  <r_lp_Energy>  (234) 
51.9083

>  <b_lp_Chiralities_Consistent>  (234) 
1

>  <s_lp_Variant>  (234) 
69:0-1

>  <s_i_glide_gridfile>  (234) 
pfpi4k_grid

>  <i_i_glide_lignum>  (234) 
19

>  <i_i_glide_rotatable_bonds>  (234) 
2

>  <r_i_docking_score>  (234) 
-4.07475

>  <r_i_glide_ligand_efficiency>  (234) 
-0.254672

>  <r_i_glide_ligand_efficiency_sa>  (234) 
-0.641733

>  <r_i_glide_ligand_efficiency_ln>  (234) 
-1.08009

>  <r_i_glide_gscore>  (234) 
-4.07475

>  <r_i_glide_lipo>  (234) 
-0.486249

>  <r_i_glide_hbond>  (234) 
-0.16

>  <r_i_glide_metal>  (234) 
-0

>  <r_i_glide_rewards>  (234) 
-1.90037

>  <r_i_glide_evdw>  (234) 
-11.9427

>  <r_i_glide_ecoul>  (234) 
-8.05935

>  <r_i_glide_erotb>  (234) 
0.344623

>  <r_i_glide_esite>  (234) 
-0.0667138

>  <r_i_glide_emodel>  (234) 
-26.4797

>  <r_i_glide_energy>  (234) 
-20.0021

>  <r_i_glide_einternal>  (234) 
0.161071

>  <r_i_glide_intrahb_reward>  (234) 
-0

>  <i_i_glide_confnum>  (234) 
2

>  <i_i_glide_posenum>  (234) 
4

>  <r_i_glide_eff_state_penalty>  (234) 
0

>  <ligand_id>  (234) 
69

>  <original_smiles>  (234) 
Cn1cccc1C1(C)NC2=NCCC1(O)N2

>  <smiles>  (234) 
[H]OC12N([H])C(=[N+]([H])C([H])([H])C1([H])[H])N([H])C2(c1c([H])c([H])c([H])n1C([H])([H])[H])C([H])([H])[H]

$$$$
69:0:1
     RDKit          3D

 33 35  0  0  1  0  0  0  0  0999 V2000
    4.7554   -6.2869    0.1755 C   0  0  0  0  0  0  0  0  0  0  0  0
    4.1655   -5.0584    0.7100 N   0  0  0  0  0  0  0  0  0  0  0  0
    3.3714   -5.0551    1.8386 C   0  0  0  0  0  0  0  0  0  0  0  0
    2.9996   -3.7679    2.1192 C   0  0  0  0  0  0  0  0  0  0  0  0
    3.6087   -2.9424    1.1458 C   0  0  0  0  0  0  0  0  0  0  0  0
    4.2850   -3.7417    0.2374 C   0  0  0  0  0  0  0  0  0  0  0  0
    5.0895   -3.3531   -0.9995 C   0  0  1  0  0  0  0  0  0  0  0  0
    6.6070   -3.4258   -0.6935 C   0  0  0  0  0  0  0  0  0  0  0  0
    4.8243   -4.2273   -2.1422 N   0  0  0  0  0  0  0  0  0  0  0  0
    4.5287   -3.4415   -3.1758 C   0  0  0  0  0  0  0  0  0  0  0  0
    3.2768   -3.4639   -3.6462 N   0  0  0  0  0  0  0  0  0  0  0  0
    2.4395   -2.3998   -3.0656 C   0  0  0  0  0  0  0  0  0  0  0  0
    3.1451   -1.7252   -1.8382 C   0  0  0  0  0  0  0  0  0  0  0  0
    4.6857   -1.9909   -1.7049 C   0  0  1  0  0  0  0  0  0  0  0  0
    5.3459   -0.9118   -1.0898 O   0  0  0  0  0  0  0  0  0  0  0  0
    5.0903   -2.2443   -3.0750 N   0  0  0  0  0  0  0  0  0  0  0  0
    4.2694   -7.1440    0.6519 H   0  0  0  0  0  0  0  0  0  0  0  0
    5.8200   -6.3082    0.4205 H   0  0  0  0  0  0  0  0  0  0  0  0
    4.6146   -6.3653   -0.9037 H   0  0  0  0  0  0  0  0  0  0  0  0
    3.1414   -5.9664    2.3527 H   0  0  0  0  0  0  0  0  0  0  0  0
    2.3682   -3.4781    2.9475 H   0  0  0  0  0  0  0  0  0  0  0  0
    3.5431   -1.8578    1.1061 H   0  0  0  0  0  0  0  0  0  0  0  0
    6.9036   -2.7128    0.0745 H   0  0  0  0  0  0  0  0  0  0  0  0
    7.2174   -3.2291   -1.5766 H   0  0  0  0  0  0  0  0  0  0  0  0
    6.8902   -4.4067   -0.3166 H   0  0  0  0  0  0  0  0  0  0  0  0
    4.3524   -5.1133   -1.9777 H   0  0  0  0  0  0  0  0  0  0  0  0
    2.2695   -1.6564   -3.8407 H   0  0  0  0  0  0  0  0  0  0  0  0
    1.4702   -2.7821   -2.7420 H   0  0  0  0  0  0  0  0  0  0  0  0
    2.9802   -0.6526   -1.9014 H   0  0  0  0  0  0  0  0  0  0  0  0
    2.6182   -2.0497   -0.9504 H   0  0  0  0  0  0  0  0  0  0  0  0
    4.7921   -0.1429   -1.0398 H   0  0  0  0  0  0  0  0  0  0  0  0
    4.9194   -1.5650   -3.8076 H   0  0  0  0  0  0  0  0  0  0  0  0
    2.8028   -4.3714   -3.7405 H   0  0  0  0  0  0  0  0  0  0  0  0
  1  2  1  0
  1 17  1  0
  1 18  1  0
  1 19  1  0
  2  6  1  0
  2  3  1  0
  3  4  2  0
  3 20  1  0
  4  5  1  0
  4 21  1  0
  5  6  2  0
  5 22  1  0
  6  7  1  0
  7 14  1  0
  7  8  1  1
  7  9  1  0
  8 23  1  0
  8 24  1  0
  8 25  1  0
  9 10  1  0
  9 26  1  0
 10 16  1  0
 10 11  2  0
 11 12  1  0
 11 33  1  0
 12 13  1  0
 12 27  1  0
 12 28  1  0
 13 14  1  0
 13 29  1  0
 13 30  1  0
 14 15  1  1
 14 16  1  0
 15 31  1  0
 16 32  1  0
M  CHG  1  11   1
M  END
>  <i_m_ct_stereo_status>  (235) 
1

>  <s_m_source_file>  (235) 
/var/tmp/pbs.5076255.sched01/tmpthapbt4w/86pc0xbys0.sdf

>  <i_m_source_file_index>  (235) 
19

>  <i_lp_mmshare_version>  (235) 
48012

>  <i_f3d_flags>  (235) 
0

>  <s_epik_input>  (235) 
W0NIM11uMVtjSF1bY0hdW2NIXWMxW0NAXShbQ0gzXSkoW0NAXTIzW09IXSlbTkhdQyhbTkhdMyk9TltDSDJdW0NIMl0y

>  <s_epik_cmdline>  (235) 
J2VwaWtfcHl0aG9uJywgJy1waHQnLCAnMi4wJywgJy1waCcsICc3LjAnLCAnLXRuJywgJzgnLCAnLW1hJywgJzIwMCcsICctaW1hZScsICc8aW5maWxlLm1hZT4nLCAnLW9tYWUnLCAnPG91dGZpbGUubWFlPic=

>  <r_epik_Ionization_Penalty>  (235) 
0.000341864

>  <r_epik_Ionization_Penalty_Charging>  (235) 
8.66279e-07

>  <r_epik_Ionization_Penalty_Neutral>  (235) 
0.000340998

>  <r_epik_State_Penalty>  (235) 
0.000206764

>  <r_epik_Charging_Adjusted_Penalty>  (235) 
0.00020763

>  <i_epik_Tot_Q>  (235) 
1

>  <i_epik_Tot_abs_Q>  (235) 
1

>  <s_epik_Chemistry_Notes>  (235) 
This compound has an imine and may undergo hydrolysis.

>  <s_lp_Force_Field>  (235) 
OPLS3e

>  <r_lp_Energy>  (235) 
51.9083

>  <b_lp_Chiralities_Consistent>  (235) 
1

>  <s_lp_Variant>  (235) 
69:0-1

>  <s_i_glide_gridfile>  (235) 
pfpi4k_grid

>  <i_i_glide_lignum>  (235) 
19

>  <i_i_glide_rotatable_bonds>  (235) 
2

>  <r_i_docking_score>  (235) 
-3.94663

>  <r_i_glide_ligand_efficiency>  (235) 
-0.246664

>  <r_i_glide_ligand_efficiency_sa>  (235) 
-0.621556

>  <r_i_glide_ligand_efficiency_ln>  (235) 
-1.04613

>  <r_i_glide_gscore>  (235) 
-3.94663

>  <r_i_glide_lipo>  (235) 
-0.467697

>  <r_i_glide_hbond>  (235) 
-0.0718208

>  <r_i_glide_metal>  (235) 
-0

>  <r_i_glide_rewards>  (235) 
-1.95026

>  <r_i_glide_evdw>  (235) 
-13.8885

>  <r_i_glide_ecoul>  (235) 
-6.91618

>  <r_i_glide_erotb>  (235) 
0.344623

>  <r_i_glide_esite>  (235) 
-0.069622

>  <r_i_glide_emodel>  (235) 
-26.4088

>  <r_i_glide_energy>  (235) 
-20.8047

>  <r_i_glide_einternal>  (235) 
1.46167

>  <r_i_glide_intrahb_reward>  (235) 
-0

>  <i_i_glide_confnum>  (235) 
4

>  <i_i_glide_posenum>  (235) 
40

>  <r_i_glide_eff_state_penalty>  (235) 
0

>  <ligand_id>  (235) 
69

>  <original_smiles>  (235) 
Cn1cccc1C1(C)NC2=NCCC1(O)N2

>  <smiles>  (235) 
[H]OC12N([H])C(=[N+]([H])C([H])([H])C1([H])[H])N([H])C2(c1c([H])c([H])c([H])n1C([H])([H])[H])C([H])([H])[H]

$$$$
69:0:2
     RDKit          3D

 33 35  0  0  1  0  0  0  0  0999 V2000
    3.4577   -0.6419   -2.0678 C   0  0  0  0  0  0  0  0  0  0  0  0
    4.0007   -1.8713   -2.5454 N   0  0  0  0  0  0  0  0  0  0  0  0
    3.5359   -2.4865   -3.6979 C   0  0  0  0  0  0  0  0  0  0  0  0
    4.2150   -3.6372   -3.8934 C   0  0  0  0  0  0  0  0  0  0  0  0
    5.1149   -3.7591   -2.7799 C   0  0  0  0  0  0  0  0  0  0  0  0
    4.9959   -2.6930   -1.9606 C   0  0  0  0  0  0  0  0  0  0  0  0
    5.7683   -2.3773   -0.6537 C   0  0  1  0  0  0  0  0  0  0  0  0
    7.2405   -2.8446   -0.7987 C   0  0  0  0  0  0  0  0  0  0  0  0
    5.8125   -0.9507   -0.3406 N   0  0  0  0  0  0  0  0  0  0  0  0
    5.4441   -0.8086    0.9208 C   0  0  0  0  0  0  0  0  0  0  0  0
    4.2480   -0.2544    1.1213 N   0  0  0  0  0  0  0  0  0  0  0  0
    3.1423   -1.2266    1.3481 C   0  0  0  0  0  0  0  0  0  0  0  0
    3.5987   -2.6660    0.8492 C   0  0  0  0  0  0  0  0  0  0  0  0
    5.1605   -2.8826    0.7213 C   0  0  1  0  0  0  0  0  0  0  0  0
    5.5203   -4.2118    1.0185 O   0  0  0  0  0  0  0  0  0  0  0  0
    5.6938   -1.8991    1.6525 N   0  0  0  0  0  0  0  0  0  0  0  0
    2.5703   -0.4154   -2.6626 H   0  0  0  0  0  0  0  0  0  0  0  0
    4.1869    0.1706   -2.3035 H   0  0  0  0  0  0  0  0  0  0  0  0
    3.2181   -0.7338   -1.0295 H   0  0  0  0  0  0  0  0  0  0  0  0
    2.7310   -2.0346   -4.2712 H   0  0  0  0  0  0  0  0  0  0  0  0
    4.0895   -4.3195   -4.7120 H   0  0  0  0  0  0  0  0  0  0  0  0
    5.8067   -4.5872   -2.6336 H   0  0  0  0  0  0  0  0  0  0  0  0
    7.3173   -3.9205   -0.8938 H   0  0  0  0  0  0  0  0  0  0  0  0
    7.8633   -2.5706    0.0581 H   0  0  0  0  0  0  0  0  0  0  0  0
    7.7111   -2.4265   -1.6892 H   0  0  0  0  0  0  0  0  0  0  0  0
    5.5411   -0.3076   -1.0603 H   0  0  0  0  0  0  0  0  0  0  0  0
    2.9296   -1.2637    2.4008 H   0  0  0  0  0  0  0  0  0  0  0  0
    2.2577   -0.8888    0.8474 H   0  0  0  0  0  0  0  0  0  0  0  0
    3.1742   -3.3992    1.5202 H   0  0  0  0  0  0  0  0  0  0  0  0
    3.1178   -2.8576   -0.0978 H   0  0  0  0  0  0  0  0  0  0  0  0
    5.0178   -4.8418    0.5347 H   0  0  0  0  0  0  0  0  0  0  0  0
    5.4209   -1.9204    2.6220 H   0  0  0  0  0  0  0  0  0  0  0  0
    4.0221    0.6602    0.7253 H   0  0  0  0  0  0  0  0  0  0  0  0
  1  2  1  0
  1 17  1  0
  1 18  1  0
  1 19  1  0
  2  6  1  0
  2  3  1  0
  3  4  2  0
  3 20  1  0
  4  5  1  0
  4 21  1  0
  5  6  2  0
  5 22  1  0
  6  7  1  0
  7 14  1  0
  7  8  1  6
  7  9  1  0
  8 23  1  0
  8 24  1  0
  8 25  1  0
  9 10  1  0
  9 26  1  0
 10 16  1  0
 10 11  2  0
 11 12  1  0
 11 33  1  0
 12 13  1  0
 12 27  1  0
 12 28  1  0
 13 14  1  0
 13 29  1  0
 13 30  1  0
 14 15  1  1
 14 16  1  0
 15 31  1  0
 16 32  1  0
M  CHG  1  11   1
M  END
>  <i_m_ct_stereo_status>  (236) 
1

>  <s_m_source_file>  (236) 
/var/tmp/pbs.5076255.sched01/tmpthapbt4w/86pc0xbys0.sdf

>  <i_m_source_file_index>  (236) 
19

>  <i_lp_mmshare_version>  (236) 
48012

>  <i_f3d_flags>  (236) 
0

>  <s_epik_input>  (236) 
W0NIM11uMVtjSF1bY0hdW2NIXWMxW0NAXShbQ0gzXSkoW0NAXTIzW09IXSlbTkhdQyhbTkhdMyk9TltDSDJdW0NIMl0y

>  <s_epik_cmdline>  (236) 
J2VwaWtfcHl0aG9uJywgJy1waHQnLCAnMi4wJywgJy1waCcsICc3LjAnLCAnLXRuJywgJzgnLCAnLW1hJywgJzIwMCcsICctaW1hZScsICc8aW5maWxlLm1hZT4nLCAnLW9tYWUnLCAnPG91dGZpbGUubWFlPic=

>  <r_epik_Ionization_Penalty>  (236) 
0.000341864

>  <r_epik_Ionization_Penalty_Charging>  (236) 
8.66279e-07

>  <r_epik_Ionization_Penalty_Neutral>  (236) 
0.000340998

>  <r_epik_State_Penalty>  (236) 
0.000206764

>  <r_epik_Charging_Adjusted_Penalty>  (236) 
0.00020763

>  <i_epik_Tot_Q>  (236) 
1

>  <i_epik_Tot_abs_Q>  (236) 
1

>  <s_epik_Chemistry_Notes>  (236) 
This compound has an imine and may undergo hydrolysis.

>  <s_lp_Force_Field>  (236) 
OPLS3e

>  <r_lp_Energy>  (236) 
51.9083

>  <b_lp_Chiralities_Consistent>  (236) 
1

>  <s_lp_Variant>  (236) 
69:0-1

>  <s_i_glide_gridfile>  (236) 
pfpi4k_grid

>  <i_i_glide_lignum>  (236) 
19

>  <i_i_glide_rotatable_bonds>  (236) 
2

>  <r_i_docking_score>  (236) 
-3.25552

>  <r_i_glide_ligand_efficiency>  (236) 
-0.20347

>  <r_i_glide_ligand_efficiency_sa>  (236) 
-0.512713

>  <r_i_glide_ligand_efficiency_ln>  (236) 
-0.862942

>  <r_i_glide_gscore>  (236) 
-3.25552

>  <r_i_glide_lipo>  (236) 
-0.429726

>  <r_i_glide_hbond>  (236) 
0

>  <r_i_glide_metal>  (236) 
-0

>  <r_i_glide_rewards>  (236) 
-1.94707

>  <r_i_glide_evdw>  (236) 
-15.4382

>  <r_i_glide_ecoul>  (236) 
-2.68106

>  <r_i_glide_erotb>  (236) 
0.344623

>  <r_i_glide_esite>  (236) 
-0.0492844

>  <r_i_glide_emodel>  (236) 
-21.3062

>  <r_i_glide_energy>  (236) 
-18.1192

>  <r_i_glide_einternal>  (236) 
1.91596

>  <r_i_glide_intrahb_reward>  (236) 
-0

>  <i_i_glide_confnum>  (236) 
2

>  <i_i_glide_posenum>  (236) 
7

>  <r_i_glide_eff_state_penalty>  (236) 
0

>  <ligand_id>  (236) 
69

>  <original_smiles>  (236) 
Cn1cccc1C1(C)NC2=NCCC1(O)N2

>  <smiles>  (236) 
[H]OC12N([H])C(=[N+]([H])C([H])([H])C1([H])[H])N([H])C2(c1c([H])c([H])c([H])n1C([H])([H])[H])C([H])([H])[H]

$$$$
70:0:0
     RDKit          3D

 75 81  0  0  1  0  0  0  0  0999 V2000
    4.8359   -3.9383   -3.9538 C   0  0  0  0  0  0  0  0  0  0  0  0
    5.8077   -3.3841   -3.0771 O   0  0  0  0  0  0  0  0  0  0  0  0
    5.3186   -2.8048   -1.9383 C   0  0  0  0  0  0  0  0  0  0  0  0
    5.7207   -3.3503   -0.7649 C   0  0  0  0  0  0  0  0  0  0  0  0
    5.4820   -3.0001    0.7053 C   0  0  2  0  0  0  0  0  0  0  0  0
    5.1900   -4.2305    1.6488 C   0  0  2  0  0  0  0  0  0  0  0  0
    4.2684   -5.2690    0.9186 C   0  0  0  0  0  0  0  0  0  0  0  0
    4.0488   -6.5939    1.6585 C   0  0  2  0  0  0  0  0  0  0  0  0
    4.0471   -7.7641    0.8747 O   0  0  0  0  0  0  0  0  0  0  0  0
    3.4530   -8.7332    1.6848 C   0  0  0  0  0  0  0  0  0  0  0  0
    2.8333   -8.0923    2.7598 O   0  0  0  0  0  0  0  0  0  0  0  0
    2.7087   -6.7375    2.3836 C   0  0  2  0  0  0  0  0  0  0  0  0
    1.4760   -6.6303    1.4403 C   0  0  0  0  0  0  0  0  0  0  0  0
    2.5788   -5.7088    3.5322 C   0  0  1  0  0  0  0  0  0  0  0  0
    1.2724   -5.7018    4.3906 C   0  0  0  0  0  0  0  0  0  0  0  0
    1.7036   -5.4850    5.8671 C   0  0  0  0  0  0  0  0  0  0  0  0
    3.1013   -6.0736    5.7943 C   0  0  2  0  0  0  0  0  0  0  0  0
    2.8748   -7.6313    5.8558 C   0  0  0  0  0  0  0  0  0  0  0  0
    4.2176   -5.8924    6.7859 C   0  0  0  0  0  0  0  0  0  0  0  0
    4.1065   -5.6155    7.9766 O   0  0  0  0  0  0  0  0  0  0  0  0
    5.3397   -6.1482    6.0775 O   0  0  0  0  0  0  0  0  0  0  0  0
    5.0771   -6.2485    4.6614 C   0  0  0  0  0  0  0  0  0  0  0  0
    3.7587   -5.4393    4.5193 C   0  0  1  0  0  0  0  0  0  0  0  0
    4.1841   -3.8610    4.3628 C   0  0  2  0  0  0  0  0  0  0  0  0
    5.3236   -3.3937    5.3463 C   0  0  0  0  0  0  0  0  0  0  0  0
    3.0168   -2.7930    4.5373 C   0  0  1  0  0  0  0  0  0  0  0  0
    2.8257   -2.2809    5.8462 O   0  0  0  0  0  0  0  0  0  0  0  0
    3.2019   -1.6469    3.5049 C   0  0  1  0  0  0  0  0  0  0  0  0
    4.0843   -0.6623    4.0137 O   0  0  0  0  0  0  0  0  0  0  0  0
    3.7547   -2.4376    2.3126 C   0  0  2  0  0  0  0  0  0  0  0  0
    4.7074   -3.4406    2.9104 C   0  0  2  0  0  0  0  0  0  0  0  0
    4.4668   -1.8651    1.0539 C   0  0  1  0  0  0  0  0  0  0  0  0
    5.2207   -0.5343    1.3036 C   0  0  0  0  0  0  0  0  0  0  0  0
    3.4077   -1.6761   -0.0352 C   0  0  0  0  0  0  0  0  0  0  0  0
    3.9191   -0.9798   -1.1411 O   0  0  0  0  0  0  0  0  0  0  0  0
    4.5667   -1.5376   -2.1620 C   0  0  0  0  0  0  0  0  0  0  0  0
    4.5876   -0.9650   -3.2446 O   0  0  0  0  0  0  0  0  0  0  0  0
    5.3179   -4.4416   -4.7967 H   0  0  0  0  0  0  0  0  0  0  0  0
    4.1668   -3.1860   -4.3619 H   0  0  0  0  0  0  0  0  0  0  0  0
    4.2279   -4.6538   -3.4226 H   0  0  0  0  0  0  0  0  0  0  0  0
    6.3565   -4.2154   -0.8608 H   0  0  0  0  0  0  0  0  0  0  0  0
    6.4652   -2.6432    1.0170 H   0  0  0  0  0  0  0  0  0  0  0  0
    6.1341   -4.7284    1.8775 H   0  0  0  0  0  0  0  0  0  0  0  0
    3.3266   -4.8192    0.6079 H   0  0  0  0  0  0  0  0  0  0  0  0
    4.7508   -5.5675   -0.0137 H   0  0  0  0  0  0  0  0  0  0  0  0
    4.9062   -6.7613    2.2947 H   0  0  0  0  0  0  0  0  0  0  0  0
    2.7074   -9.2727    1.0916 H   0  0  0  0  0  0  0  0  0  0  0  0
    4.1935   -9.4486    2.0570 H   0  0  0  0  0  0  0  0  0  0  0  0
    1.2557   -5.5946    1.1935 H   0  0  0  0  0  0  0  0  0  0  0  0
    0.5904   -7.0655    1.9064 H   0  0  0  0  0  0  0  0  0  0  0  0
    1.6171   -7.1449    0.4916 H   0  0  0  0  0  0  0  0  0  0  0  0
    2.4620   -4.8153    2.9389 H   0  0  0  0  0  0  0  0  0  0  0  0
    0.5710   -4.9267    4.0768 H   0  0  0  0  0  0  0  0  0  0  0  0
    0.7372   -6.6466    4.2899 H   0  0  0  0  0  0  0  0  0  0  0  0
    1.6993   -4.4433    6.1776 H   0  0  0  0  0  0  0  0  0  0  0  0
    1.0436   -6.0129    6.5601 H   0  0  0  0  0  0  0  0  0  0  0  0
    2.2703   -8.0327    5.0512 H   0  0  0  0  0  0  0  0  0  0  0  0
    2.3378   -7.8944    6.7698 H   0  0  0  0  0  0  0  0  0  0  0  0
    3.7846   -8.2347    5.8859 H   0  0  0  0  0  0  0  0  0  0  0  0
    5.8910   -5.8324    4.0687 H   0  0  0  0  0  0  0  0  0  0  0  0
    4.9615   -7.2933    4.3659 H   0  0  0  0  0  0  0  0  0  0  0  0
    5.5834   -2.3441    5.2114 H   0  0  0  0  0  0  0  0  0  0  0  0
    6.2545   -3.9410    5.2093 H   0  0  0  0  0  0  0  0  0  0  0  0
    5.0483   -3.4628    6.3964 H   0  0  0  0  0  0  0  0  0  0  0  0
    2.0588   -3.2256    4.2743 H   0  0  0  0  0  0  0  0  0  0  0  0
    3.5911   -1.7624    6.0617 H   0  0  0  0  0  0  0  0  0  0  0  0
    2.2519   -1.1673    3.2609 H   0  0  0  0  0  0  0  0  0  0  0  0
    4.0876    0.0627    3.3996 H   0  0  0  0  0  0  0  0  0  0  0  0
    2.8940   -2.9888    1.9412 H   0  0  0  0  0  0  0  0  0  0  0  0
    5.6017   -2.8513    3.1269 H   0  0  0  0  0  0  0  0  0  0  0  0
    4.5272    0.2748    1.5297 H   0  0  0  0  0  0  0  0  0  0  0  0
    5.7952   -0.2215    0.4317 H   0  0  0  0  0  0  0  0  0  0  0  0
    5.9319   -0.6202    2.1249 H   0  0  0  0  0  0  0  0  0  0  0  0
    2.9107   -2.6058   -0.3222 H   0  0  0  0  0  0  0  0  0  0  0  0
    2.6329   -1.0292    0.3640 H   0  0  0  0  0  0  0  0  0  0  0  0
  1  2  1  0
  1 38  1  0
  1 39  1  0
  1 40  1  0
  2  3  1  0
  3 36  1  0
  3  4  2  0
  4  5  1  0
  4 41  1  0
  5 32  1  0
  5  6  1  0
  5 42  1  1
  6 31  1  0
  6  7  1  0
  6 43  1  1
  7  8  1  0
  7 44  1  0
  7 45  1  0
  8 12  1  0
  8  9  1  0
  8 46  1  1
  9 10  1  0
 10 11  1  0
 10 47  1  0
 10 48  1  0
 11 12  1  0
 12 13  1  6
 12 14  1  0
 13 49  1  0
 13 50  1  0
 13 51  1  0
 14 23  1  0
 14 15  1  0
 14 52  1  6
 15 16  1  0
 15 53  1  0
 15 54  1  0
 16 17  1  0
 16 55  1  0
 16 56  1  0
 17 23  1  0
 17 18  1  6
 17 19  1  0
 18 57  1  0
 18 58  1  0
 18 59  1  0
 19 20  2  0
 19 21  1  0
 21 22  1  0
 23 22  1  6
 22 60  1  0
 22 61  1  0
 23 24  1  0
 24 31  1  0
 24 25  1  1
 24 26  1  0
 25 62  1  0
 25 63  1  0
 25 64  1  0
 26 27  1  0
 26 28  1  0
 26 65  1  6
 27 66  1  0
 28 29  1  0
 28 30  1  0
 28 67  1  6
 29 68  1  0
 30 31  1  0
 30 32  1  0
 30 69  1  6
 31 70  1  1
 32 33  1  1
 32 34  1  0
 33 71  1  0
 33 72  1  0
 33 73  1  0
 34 35  1  0
 34 74  1  0
 34 75  1  0
 35 36  1  0
 36 37  2  0
M  END
>  <i_m_ct_stereo_status>  (237) 
1

>  <s_m_source_file>  (237) 
/var/tmp/pbs.5076255.sched01/tmpthapbt4w/86pc0xbys0.sdf

>  <i_m_source_file_index>  (237) 
20

>  <i_lp_mmshare_version>  (237) 
48012

>  <i_f3d_flags>  (237) 
0

>  <s_epik_input>  (237) 
W0NIM11PQyg9W0NIXTEpQyg9TylPW0NIMl1bQ0BAXShbQ0gzXSkoW0NASF0yW0NASF0zW0NAQF00KFtDSDNdKVtDQEBIXShbT0hdKVtDQEhdMltPSF0pW0NASF0xW0NAQEhdM1tDSDJdW0NASF0oT1tDSDJdTzUpW0NAXTUoW0NIM10pW0NASF0oW0NAQF00NjcpW0NIMl1bQ0gyXVtDQF02KFtDSDNdKUMoPU8pT1tDSDJdNw==

>  <s_epik_cmdline>  (237) 
J2VwaWtfcHl0aG9uJywgJy1waHQnLCAnMi4wJywgJy1waCcsICc3LjAnLCAnLXRuJywgJzgnLCAnLW1hJywgJzIwMCcsICctaW1hZScsICc8aW5maWxlLm1hZT4nLCAnLW9tYWUnLCAnPG91dGZpbGUubWFlPic=

>  <r_lp_tautomer_probability>  (237) 
1

>  <r_epik_Ionization_Penalty>  (237) 
1.6135e-07

>  <r_epik_Ionization_Penalty_Charging>  (237) 
0

>  <r_epik_Ionization_Penalty_Neutral>  (237) 
1.6135e-07

>  <r_epik_State_Penalty>  (237) 
-0

>  <r_epik_Charging_Adjusted_Penalty>  (237) 
0

>  <i_epik_Tot_Q>  (237) 
0

>  <i_epik_Tot_abs_Q>  (237) 
0

>  <s_epik_Chemistry_Notes>  (237) 
This compound has an ester and may undergo hydrolysis at high or low pH. This compound contains an acetal/aminal-like group ( X-CH(R)-Y where X, Y are N, S, or O) that may be acid/base labile, releasing an aldehyde.

>  <s_lp_Force_Field>  (237) 
OPLS3e

>  <r_lp_Energy>  (237) 
145.009

>  <b_lp_Chiralities_Consistent>  (237) 
1

>  <s_lp_Variant>  (237) 
70:0-1

>  <s_i_glide_gridfile>  (237) 
pfpi4k_grid

>  <i_i_glide_lignum>  (237) 
20

>  <i_i_glide_rotatable_bonds>  (237) 
3

>  <r_i_docking_score>  (237) 
-2.31206

>  <r_i_glide_ligand_efficiency>  (237) 
-0.062488

>  <r_i_glide_ligand_efficiency_sa>  (237) 
-0.208224

>  <r_i_glide_ligand_efficiency_ln>  (237) 
-0.501431

>  <r_i_glide_gscore>  (237) 
-2.31206

>  <r_i_glide_lipo>  (237) 
-0.513665

>  <r_i_glide_hbond>  (237) 
0

>  <r_i_glide_metal>  (237) 
-0

>  <r_i_glide_rewards>  (237) 
0

>  <r_i_glide_evdw>  (237) 
-27.227

>  <r_i_glide_ecoul>  (237) 
-2.48695

>  <r_i_glide_erotb>  (237) 
0

>  <r_i_glide_esite>  (237) 
-0.0640005

>  <r_i_glide_emodel>  (237) 
-31.7776

>  <r_i_glide_energy>  (237) 
-29.7139

>  <r_i_glide_einternal>  (237) 
3.24107

>  <r_i_glide_intrahb_reward>  (237) 
-0

>  <i_i_glide_confnum>  (237) 
2

>  <i_i_glide_posenum>  (237) 
17

>  <r_i_glide_eff_state_penalty>  (237) 
0

>  <ligand_id>  (237) 
70

>  <original_smiles>  (237) 
COC1=CC2C3CC4OCOC4(C)C4CCC5(C)C(=O)OCC45C4(C)C(O)C(O)C(C34)C2(C)COC1=O

>  <smiles>  (237) 
[H]OC1([H])C([H])(O[H])C2(C([H])([H])[H])C3([H])C([H])(C([H])([H])C4([H])OC([H])([H])OC4(C([H])([H])[H])C4([H])C([H])([H])C([H])([H])C5(C([H])([H])[H])C(=O)OC([H])([H])C452)C2([H])C([H])=C(OC([H])([H])[H])C(=O)OC([H])([H])C2(C([H])([H])[H])C13[H]

$$$$
70:0:1
     RDKit          3D

 75 81  0  0  1  0  0  0  0  0999 V2000
    7.8170   -3.4279   -1.4060 C   0  0  0  0  0  0  0  0  0  0  0  0
    6.4037   -3.4200   -1.5953 O   0  0  0  0  0  0  0  0  0  0  0  0
    5.6701   -2.9656   -0.5288 C   0  0  0  0  0  0  0  0  0  0  0  0
    5.7450   -3.6414    0.6451 C   0  0  0  0  0  0  0  0  0  0  0  0
    5.1609   -3.4237    2.0377 C   0  0  2  0  0  0  0  0  0  0  0  0
    4.6461   -4.7310    2.7510 C   0  0  2  0  0  0  0  0  0  0  0  0
    3.9080   -5.6555    1.7215 C   0  0  0  0  0  0  0  0  0  0  0  0
    3.5048   -7.0419    2.2361 C   0  0  2  0  0  0  0  0  0  0  0  0
    3.6605   -8.1193    1.3383 O   0  0  0  0  0  0  0  0  0  0  0  0
    2.8900   -9.1445    1.8939 C   0  0  0  0  0  0  0  0  0  0  0  0
    2.0457   -8.5938    2.8614 O   0  0  0  0  0  0  0  0  0  0  0  0
    2.0310   -7.2048    2.6161 C   0  0  2  0  0  0  0  0  0  0  0  0
    1.0546   -6.9579    1.4288 C   0  0  0  0  0  0  0  0  0  0  0  0
    1.6515   -6.2923    3.8074 C   0  0  1  0  0  0  0  0  0  0  0  0
    0.1827   -6.3233    4.3399 C   0  0  0  0  0  0  0  0  0  0  0  0
    0.2579   -6.2696    5.8880 C   0  0  0  0  0  0  0  0  0  0  0  0
    1.6229   -6.9041    6.0789 C   0  0  2  0  0  0  0  0  0  0  0  0
    1.3644   -8.4502    5.9175 C   0  0  0  0  0  0  0  0  0  0  0  0
    2.4759   -6.8665    7.3125 C   0  0  0  0  0  0  0  0  0  0  0  0
    2.0864   -6.6999    8.4692 O   0  0  0  0  0  0  0  0  0  0  0  0
    3.7292   -7.0924    6.8637 O   0  0  0  0  0  0  0  0  0  0  0  0
    3.8053   -7.0389    5.4211 C   0  0  0  0  0  0  0  0  0  0  0  0
    2.5690   -6.1688    5.0648 C   0  0  1  0  0  0  0  0  0  0  0  0
    3.0373   -4.5980    5.1818 C   0  0  2  0  0  0  0  0  0  0  0  0
    3.9246   -4.2782    6.4451 C   0  0  0  0  0  0  0  0  0  0  0  0
    1.8764   -3.5058    5.1930 C   0  0  1  0  0  0  0  0  0  0  0  0
    1.3876   -3.1044    6.4662 O   0  0  0  0  0  0  0  0  0  0  0  0
    2.3196   -2.2740    4.3568 C   0  0  1  0  0  0  0  0  0  0  0  0
    3.0727   -1.3911    5.1671 O   0  0  0  0  0  0  0  0  0  0  0  0
    3.1235   -2.9590    3.2465 C   0  0  2  0  0  0  0  0  0  0  0  0
    3.8933   -4.0538    3.9420 C   0  0  2  0  0  0  0  0  0  0  0  0
    4.1135   -2.2857    2.2516 C   0  0  1  0  0  0  0  0  0  0  0  0
    4.8093   -1.0222    2.8165 C   0  0  0  0  0  0  0  0  0  0  0  0
    3.3476   -1.9378    0.9670 C   0  0  0  0  0  0  0  0  0  0  0  0
    4.1193   -1.1645    0.0736 O   0  0  0  0  0  0  0  0  0  0  0  0
    4.9878   -1.6749   -0.8213 C   0  0  0  0  0  0  0  0  0  0  0  0
    5.2738   -1.0345   -1.8312 O   0  0  0  0  0  0  0  0  0  0  0  0
    8.3034   -3.7904   -2.3125 H   0  0  0  0  0  0  0  0  0  0  0  0
    8.1398   -4.0718   -0.5874 H   0  0  0  0  0  0  0  0  0  0  0  0
    8.1860   -2.4187   -1.2170 H   0  0  0  0  0  0  0  0  0  0  0  0
    6.3541   -4.5287    0.6302 H   0  0  0  0  0  0  0  0  0  0  0  0
    6.0474   -3.1359    2.6034 H   0  0  0  0  0  0  0  0  0  0  0  0
    5.5033   -5.2845    3.1372 H   0  0  0  0  0  0  0  0  0  0  0  0
    3.0726   -5.1423    1.2491 H   0  0  0  0  0  0  0  0  0  0  0  0
    4.5918   -5.8786    0.9022 H   0  0  0  0  0  0  0  0  0  0  0  0
    4.1862   -7.3071    3.0330 H   0  0  0  0  0  0  0  0  0  0  0  0
    2.2937   -9.5959    1.0968 H   0  0  0  0  0  0  0  0  0  0  0  0
    3.5130   -9.9196    2.3504 H   0  0  0  0  0  0  0  0  0  0  0  0
    0.9115   -5.8962    1.2416 H   0  0  0  0  0  0  0  0  0  0  0  0
    0.0780   -7.4020    1.6279 H   0  0  0  0  0  0  0  0  0  0  0  0
    1.4086   -7.3910    0.4943 H   0  0  0  0  0  0  0  0  0  0  0  0
    1.6874   -5.3394    3.3023 H   0  0  0  0  0  0  0  0  0  0  0  0
   -0.4095   -5.4884    3.9718 H   0  0  0  0  0  0  0  0  0  0  0  0
   -0.3307   -7.2288    4.0154 H   0  0  0  0  0  0  0  0  0  0  0  0
    0.1974   -5.2627    6.2947 H   0  0  0  0  0  0  0  0  0  0  0  0
   -0.5587   -6.8329    6.3433 H   0  0  0  0  0  0  0  0  0  0  0  0
    0.9596   -8.7451    4.9561 H   0  0  0  0  0  0  0  0  0  0  0  0
    0.6233   -8.7830    6.6479 H   0  0  0  0  0  0  0  0  0  0  0  0
    2.2315   -9.0894    6.0937 H   0  0  0  0  0  0  0  0  0  0  0  0
    4.7420   -6.5962    5.0821 H   0  0  0  0  0  0  0  0  0  0  0  0
    3.7477   -8.0433    4.9972 H   0  0  0  0  0  0  0  0  0  0  0  0
    4.2247   -3.2312    6.4881 H   0  0  0  0  0  0  0  0  0  0  0  0
    4.8592   -4.8392    6.4629 H   0  0  0  0  0  0  0  0  0  0  0  0
    3.4141   -4.4456    7.3913 H   0  0  0  0  0  0  0  0  0  0  0  0
    1.0012   -3.8731    4.6699 H   0  0  0  0  0  0  0  0  0  0  0  0
    2.1313   -2.8523    6.9990 H   0  0  0  0  0  0  0  0  0  0  0  0
    1.4618   -1.7336    3.9511 H   0  0  0  0  0  0  0  0  0  0  0  0
    2.4775   -1.0085    5.7996 H   0  0  0  0  0  0  0  0  0  0  0  0
    2.3658   -3.4384    2.6315 H   0  0  0  0  0  0  0  0  0  0  0  0
    4.7210   -3.5260    4.4226 H   0  0  0  0  0  0  0  0  0  0  0  0
    4.0957   -0.2142    2.9753 H   0  0  0  0  0  0  0  0  0  0  0  0
    5.5774   -0.6474    2.1402 H   0  0  0  0  0  0  0  0  0  0  0  0
    5.3030   -1.2237    3.7661 H   0  0  0  0  0  0  0  0  0  0  0  0
    2.9188   -2.8163    0.4825 H   0  0  0  0  0  0  0  0  0  0  0  0
    2.5024   -1.3113    1.2397 H   0  0  0  0  0  0  0  0  0  0  0  0
  1  2  1  0
  1 38  1  0
  1 39  1  0
  1 40  1  0
  2  3  1  0
  3 36  1  0
  3  4  2  0
  4  5  1  0
  4 41  1  0
  5 32  1  0
  5  6  1  0
  5 42  1  1
  6 31  1  0
  6  7  1  0
  6 43  1  1
  7  8  1  0
  7 44  1  0
  7 45  1  0
  8 12  1  0
  8  9  1  0
  8 46  1  1
  9 10  1  0
 10 11  1  0
 10 47  1  0
 10 48  1  0
 11 12  1  0
 12 13  1  6
 12 14  1  0
 13 49  1  0
 13 50  1  0
 13 51  1  0
 14 23  1  0
 14 15  1  0
 14 52  1  6
 15 16  1  0
 15 53  1  0
 15 54  1  0
 16 17  1  0
 16 55  1  0
 16 56  1  0
 17 23  1  0
 17 18  1  6
 17 19  1  0
 18 57  1  0
 18 58  1  0
 18 59  1  0
 19 20  2  0
 19 21  1  0
 21 22  1  0
 23 22  1  6
 22 60  1  0
 22 61  1  0
 23 24  1  0
 24 31  1  0
 24 25  1  1
 24 26  1  0
 25 62  1  0
 25 63  1  0
 25 64  1  0
 26 27  1  0
 26 28  1  0
 26 65  1  6
 27 66  1  0
 28 29  1  0
 28 30  1  0
 28 67  1  6
 29 68  1  0
 30 31  1  0
 30 32  1  0
 30 69  1  6
 31 70  1  1
 32 33  1  1
 32 34  1  0
 33 71  1  0
 33 72  1  0
 33 73  1  0
 34 35  1  0
 34 74  1  0
 34 75  1  0
 35 36  1  0
 36 37  2  0
M  END
>  <i_m_ct_stereo_status>  (238) 
1

>  <s_m_source_file>  (238) 
/var/tmp/pbs.5076255.sched01/tmpthapbt4w/86pc0xbys0.sdf

>  <i_m_source_file_index>  (238) 
20

>  <i_lp_mmshare_version>  (238) 
48012

>  <i_f3d_flags>  (238) 
0

>  <s_epik_input>  (238) 
W0NIM11PQyg9W0NIXTEpQyg9TylPW0NIMl1bQ0BAXShbQ0gzXSkoW0NASF0yW0NASF0zW0NAQF00KFtDSDNdKVtDQEBIXShbT0hdKVtDQEhdMltPSF0pW0NASF0xW0NAQEhdM1tDSDJdW0NASF0oT1tDSDJdTzUpW0NAXTUoW0NIM10pW0NASF0oW0NAQF00NjcpW0NIMl1bQ0gyXVtDQF02KFtDSDNdKUMoPU8pT1tDSDJdNw==

>  <s_epik_cmdline>  (238) 
J2VwaWtfcHl0aG9uJywgJy1waHQnLCAnMi4wJywgJy1waCcsICc3LjAnLCAnLXRuJywgJzgnLCAnLW1hJywgJzIwMCcsICctaW1hZScsICc8aW5maWxlLm1hZT4nLCAnLW9tYWUnLCAnPG91dGZpbGUubWFlPic=

>  <r_lp_tautomer_probability>  (238) 
1

>  <r_epik_Ionization_Penalty>  (238) 
1.6135e-07

>  <r_epik_Ionization_Penalty_Charging>  (238) 
0

>  <r_epik_Ionization_Penalty_Neutral>  (238) 
1.6135e-07

>  <r_epik_State_Penalty>  (238) 
-0

>  <r_epik_Charging_Adjusted_Penalty>  (238) 
0

>  <i_epik_Tot_Q>  (238) 
0

>  <i_epik_Tot_abs_Q>  (238) 
0

>  <s_epik_Chemistry_Notes>  (238) 
This compound has an ester and may undergo hydrolysis at high or low pH. This compound contains an acetal/aminal-like group ( X-CH(R)-Y where X, Y are N, S, or O) that may be acid/base labile, releasing an aldehyde.

>  <s_lp_Force_Field>  (238) 
OPLS3e

>  <r_lp_Energy>  (238) 
145.009

>  <b_lp_Chiralities_Consistent>  (238) 
1

>  <s_lp_Variant>  (238) 
70:0-1

>  <s_i_glide_gridfile>  (238) 
pfpi4k_grid

>  <i_i_glide_lignum>  (238) 
20

>  <i_i_glide_rotatable_bonds>  (238) 
3

>  <r_i_docking_score>  (238) 
-1.87222

>  <r_i_glide_ligand_efficiency>  (238) 
-0.0506004

>  <r_i_glide_ligand_efficiency_sa>  (238) 
-0.168612

>  <r_i_glide_ligand_efficiency_ln>  (238) 
-0.40604

>  <r_i_glide_gscore>  (238) 
-1.87222

>  <r_i_glide_lipo>  (238) 
-0.257192

>  <r_i_glide_hbond>  (238) 
0

>  <r_i_glide_metal>  (238) 
-0

>  <r_i_glide_rewards>  (238) 
0

>  <r_i_glide_evdw>  (238) 
-24.9399

>  <r_i_glide_ecoul>  (238) 
-2.10135

>  <r_i_glide_erotb>  (238) 
0

>  <r_i_glide_esite>  (238) 
-0.0528249

>  <r_i_glide_emodel>  (238) 
-29.9252

>  <r_i_glide_energy>  (238) 
-27.0413

>  <r_i_glide_einternal>  (238) 
0.36168

>  <r_i_glide_intrahb_reward>  (238) 
-0

>  <i_i_glide_confnum>  (238) 
2

>  <i_i_glide_posenum>  (238) 
1

>  <r_i_glide_eff_state_penalty>  (238) 
0

>  <ligand_id>  (238) 
70

>  <original_smiles>  (238) 
COC1=CC2C3CC4OCOC4(C)C4CCC5(C)C(=O)OCC45C4(C)C(O)C(O)C(C34)C2(C)COC1=O

>  <smiles>  (238) 
[H]OC1([H])C([H])(O[H])C2(C([H])([H])[H])C3([H])C([H])(C([H])([H])C4([H])OC([H])([H])OC4(C([H])([H])[H])C4([H])C([H])([H])C([H])([H])C5(C([H])([H])[H])C(=O)OC([H])([H])C452)C2([H])C([H])=C(OC([H])([H])[H])C(=O)OC([H])([H])C2(C([H])([H])[H])C13[H]

$$$$
71:0:0
     RDKit          3D

 51 55  0  0  1  0  0  0  0  0999 V2000
    2.5637   -9.6097    2.2276 C   0  0  0  0  0  0  0  0  0  0  0  0
    3.6137   -8.9309    3.1200 C   0  0  2  0  0  0  0  0  0  0  0  0
    3.0177   -7.9430    4.1201 C   0  0  0  0  0  0  0  0  0  0  0  0
    4.1993   -7.0701    4.5566 C   0  0  0  0  0  0  0  0  0  0  0  0
    5.1245   -6.9445    3.3346 C   0  0  2  0  0  0  0  0  0  0  0  0
    6.5975   -7.0086    3.7409 C   0  0  0  0  0  0  0  0  0  0  0  0
    4.8853   -5.7171    2.3994 C   0  0  2  0  0  0  0  0  0  0  0  0
    3.6634   -4.8054    2.6257 C   0  0  0  0  0  0  0  0  0  0  0  0
    3.4700   -3.7662    1.4865 C   0  0  1  0  0  0  0  0  0  0  0  0
    4.4631   -2.7331    1.4631 O   0  0  0  0  0  0  0  0  0  0  0  0
    4.5078   -2.2223    0.1247 C   0  0  1  0  0  0  0  0  0  0  0  0
    4.5947   -0.7155    0.0312 C   0  0  1  0  0  0  0  0  0  0  0  0
    4.7253   -0.0739    1.2894 O   0  0  0  0  0  0  0  0  0  0  0  0
    5.8057   -1.5404   -0.3338 C   0  0  1  0  0  0  0  0  0  0  0  0
    6.8503   -1.5019    0.6179 O   0  0  0  0  0  0  0  0  0  0  0  0
    3.6037   -3.0670   -0.7553 C   0  0  1  0  0  0  0  0  0  0  0  0
    4.0879   -3.1717   -2.2046 C   0  0  0  0  0  0  0  0  0  0  0  0
    3.4939   -4.3475    0.0480 C   0  0  2  0  0  0  0  0  0  0  0  0
    2.2800   -4.9659   -0.3174 O   0  0  0  0  0  0  0  0  0  0  0  0
    4.6451   -5.3563   -0.1238 C   0  0  0  0  0  0  0  0  0  0  0  0
    4.7199   -6.3145    1.0258 C   0  0  0  0  0  0  0  0  0  0  0  0
    4.5756   -7.6366    1.0744 C   0  0  0  0  0  0  0  0  0  0  0  0
    4.8133   -8.2034    2.4524 C   0  0  2  0  0  0  0  0  0  0  0  0
    2.0051   -8.9105    1.6078 H   0  0  0  0  0  0  0  0  0  0  0  0
    1.8493  -10.1441    2.8549 H   0  0  0  0  0  0  0  0  0  0  0  0
    3.0296  -10.3533    1.5922 H   0  0  0  0  0  0  0  0  0  0  0  0
    4.0532   -9.7161    3.7268 H   0  0  0  0  0  0  0  0  0  0  0  0
    2.2326   -7.3322    3.6665 H   0  0  0  0  0  0  0  0  0  0  0  0
    2.5693   -8.4538    4.9769 H   0  0  0  0  0  0  0  0  0  0  0  0
    3.8798   -6.1142    4.9554 H   0  0  0  0  0  0  0  0  0  0  0  0
    4.7269   -7.5765    5.3640 H   0  0  0  0  0  0  0  0  0  0  0  0
    7.2401   -6.9988    2.8603 H   0  0  0  0  0  0  0  0  0  0  0  0
    6.8169   -7.9218    4.2886 H   0  0  0  0  0  0  0  0  0  0  0  0
    6.8654   -6.1639    4.3649 H   0  0  0  0  0  0  0  0  0  0  0  0
    5.7625   -5.0852    2.3671 H   0  0  0  0  0  0  0  0  0  0  0  0
    2.7535   -5.4098    2.6432 H   0  0  0  0  0  0  0  0  0  0  0  0
    3.7136   -4.3019    3.5960 H   0  0  0  0  0  0  0  0  0  0  0  0
    2.5089   -3.2608    1.6403 H   0  0  0  0  0  0  0  0  0  0  0  0
    3.9884   -0.2204   -0.7251 H   0  0  0  0  0  0  0  0  0  0  0  0
    3.8806    0.3059    1.5159 H   0  0  0  0  0  0  0  0  0  0  0  0
    6.1546   -1.5593   -1.3752 H   0  0  0  0  0  0  0  0  0  0  0  0
    6.4698   -1.1126    1.4070 H   0  0  0  0  0  0  0  0  0  0  0  0
    2.6265   -2.5755   -0.7440 H   0  0  0  0  0  0  0  0  0  0  0  0
    5.0893   -3.5970   -2.2623 H   0  0  0  0  0  0  0  0  0  0  0  0
    4.1216   -2.1800   -2.6585 H   0  0  0  0  0  0  0  0  0  0  0  0
    3.4200   -3.7886   -2.8016 H   0  0  0  0  0  0  0  0  0  0  0  0
    2.4157   -5.3292   -1.1838 H   0  0  0  0  0  0  0  0  0  0  0  0
    4.6233   -5.8938   -1.0679 H   0  0  0  0  0  0  0  0  0  0  0  0
    5.5900   -4.8314   -0.1062 H   0  0  0  0  0  0  0  0  0  0  0  0
    4.4304   -8.2751    0.1943 H   0  0  0  0  0  0  0  0  0  0  0  0
    5.6685   -8.8945    2.3817 H   0  0  0  0  0  0  0  0  0  0  0  0
  1  2  1  0
  1 24  1  0
  1 25  1  0
  1 26  1  0
  2 23  1  0
  2  3  1  0
  2 27  1  1
  3  4  1  0
  3 28  1  0
  3 29  1  0
  4  5  1  0
  4 30  1  0
  4 31  1  0
  5 23  1  0
  5  6  1  1
  5  7  1  0
  6 32  1  0
  6 33  1  0
  6 34  1  0
  7 21  1  0
  7  8  1  0
  7 35  1  6
  8  9  1  0
  8 36  1  0
  8 37  1  0
  9 18  1  0
  9 10  1  0
  9 38  1  1
 11 10  1  1
 11 14  1  0
 11 12  1  0
 11 16  1  0
 12 13  1  0
 12 14  1  0
 12 39  1  6
 13 40  1  0
 14 15  1  0
 14 41  1  6
 15 42  1  0
 16 17  1  0
 16 18  1  0
 16 43  1  6
 17 44  1  0
 17 45  1  0
 17 46  1  0
 18 19  1  6
 18 20  1  0
 19 47  1  0
 20 21  1  0
 20 48  1  0
 20 49  1  0
 21 22  2  0
 22 23  1  0
 22 50  1  0
 23 51  1  6
M  END
>  <i_m_ct_stereo_status>  (239) 
1

>  <s_m_source_file>  (239) 
/var/tmp/pbs.5076255.sched01/tmpthapbt4w/86pc0xbys0.sdf

>  <i_m_source_file_index>  (239) 
21

>  <i_lp_mmshare_version>  (239) 
48012

>  <i_f3d_flags>  (239) 
0

>  <s_epik_input>  (239) 
W0NIMl0xW0NIMl1bQ0BASF0oW0NIM10pW0NAQEhdKFtDSF0yKVtDQEBdMShbQ0gzXSlbQ0BIXShbQ0gyXTMpQz0yW0NIMl1bQ0BdKFtPSF0pKFtDQEBIXTRbQ0gzXSlbQ0BASF0zT1tDQF00NVtDQEBIXShbT0hdKVtDQEhdNVtPSF0=

>  <s_epik_cmdline>  (239) 
J2VwaWtfcHl0aG9uJywgJy1waHQnLCAnMi4wJywgJy1waCcsICc3LjAnLCAnLXRuJywgJzgnLCAnLW1hJywgJzIwMCcsICctaW1hZScsICc8aW5maWxlLm1hZT4nLCAnLW9tYWUnLCAnPG91dGZpbGUubWFlPic=

>  <r_lp_tautomer_probability>  (239) 
1

>  <r_epik_Ionization_Penalty>  (239) 
2.2473e-07

>  <r_epik_Ionization_Penalty_Charging>  (239) 
0

>  <r_epik_Ionization_Penalty_Neutral>  (239) 
2.2473e-07

>  <r_epik_State_Penalty>  (239) 
-0

>  <r_epik_Charging_Adjusted_Penalty>  (239) 
0

>  <i_epik_Tot_Q>  (239) 
0

>  <i_epik_Tot_abs_Q>  (239) 
0

>  <s_lp_Force_Field>  (239) 
OPLS3e

>  <r_lp_Energy>  (239) 
18.4861

>  <b_lp_Chiralities_Consistent>  (239) 
1

>  <s_lp_Variant>  (239) 
71:0-1

>  <s_i_glide_gridfile>  (239) 
pfpi4k_grid

>  <i_i_glide_lignum>  (239) 
21

>  <i_i_glide_rotatable_bonds>  (239) 
3

>  <r_i_docking_score>  (239) 
-3.86937

>  <r_i_glide_ligand_efficiency>  (239) 
-0.168233

>  <r_i_glide_ligand_efficiency_sa>  (239) 
-0.478434

>  <r_i_glide_ligand_efficiency_ln>  (239) 
-0.935649

>  <r_i_glide_gscore>  (239) 
-3.86937

>  <r_i_glide_lipo>  (239) 
-0.195418

>  <r_i_glide_hbond>  (239) 
-0.32

>  <r_i_glide_metal>  (239) 
-0

>  <r_i_glide_rewards>  (239) 
-1.22439

>  <r_i_glide_evdw>  (239) 
-21.5944

>  <r_i_glide_ecoul>  (239) 
-6.99896

>  <r_i_glide_erotb>  (239) 
0

>  <r_i_glide_esite>  (239) 
0

>  <r_i_glide_emodel>  (239) 
-34.667

>  <r_i_glide_energy>  (239) 
-28.5934

>  <r_i_glide_einternal>  (239) 
0.343866

>  <r_i_glide_intrahb_reward>  (239) 
-0

>  <i_i_glide_confnum>  (239) 
2

>  <i_i_glide_posenum>  (239) 
30

>  <r_i_glide_eff_state_penalty>  (239) 
0

>  <ligand_id>  (239) 
71

>  <original_smiles>  (239) 
CC1CCC2(C)C3CC4OC5(C(O)C5O)C(C)C4(O)CC3=CC12

>  <smiles>  (239) 
[H]OC1([H])C([H])(O[H])C12OC1([H])C([H])([H])C3([H])C(=C([H])C4([H])C([H])(C([H])([H])[H])C([H])([H])C([H])([H])C34C([H])([H])[H])C([H])([H])C1(O[H])C2([H])C([H])([H])[H]

$$$$
71:0:1
     RDKit          3D

 51 55  0  0  1  0  0  0  0  0999 V2000
   -0.1477   -7.9834    2.5422 C   0  0  0  0  0  0  0  0  0  0  0  0
    0.8753   -7.4807    3.5618 C   0  0  2  0  0  0  0  0  0  0  0  0
    0.5399   -6.1328    4.1789 C   0  0  0  0  0  0  0  0  0  0  0  0
    1.8573   -5.6306    4.7670 C   0  0  0  0  0  0  0  0  0  0  0  0
    2.9672   -6.1567    3.8364 C   0  0  2  0  0  0  0  0  0  0  0  0
    4.1979   -6.5885    4.6482 C   0  0  0  0  0  0  0  0  0  0  0  0
    3.4172   -5.1831    2.6905 C   0  0  2  0  0  0  0  0  0  0  0  0
    2.6309   -3.8860    2.4072 C   0  0  0  0  0  0  0  0  0  0  0  0
    3.0786   -3.1856    1.0993 C   0  0  1  0  0  0  0  0  0  0  0  0
    4.3753   -2.6005    1.1641 O   0  0  0  0  0  0  0  0  0  0  0  0
    4.8788   -2.4755   -0.1741 C   0  0  1  0  0  0  0  0  0  0  0  0
    5.5284   -1.1512   -0.5243 C   0  0  1  0  0  0  0  0  0  0  0  0
    5.6477   -0.2662    0.5558 O   0  0  0  0  0  0  0  0  0  0  0  0
    6.3867   -2.4000   -0.3719 C   0  0  1  0  0  0  0  0  0  0  0  0
    7.1160   -2.4716    0.8325 O   0  0  0  0  0  0  0  0  0  0  0  0
    3.9184   -3.1608   -1.1019 C   0  0  1  0  0  0  0  0  0  0  0  0
    4.5950   -3.7898   -2.3345 C   0  0  0  0  0  0  0  0  0  0  0  0
    3.1579   -4.0868   -0.1534 C   0  0  2  0  0  0  0  0  0  0  0  0
    1.8904   -4.3424   -0.7178 O   0  0  0  0  0  0  0  0  0  0  0  0
    3.8371   -5.4385    0.1835 C   0  0  0  0  0  0  0  0  0  0  0  0
    3.2879   -6.0275    1.4562 C   0  0  0  0  0  0  0  0  0  0  0  0
    2.6692   -7.1830    1.6772 C   0  0  0  0  0  0  0  0  0  0  0  0
    2.3654   -7.4198    3.1244 C   0  0  2  0  0  0  0  0  0  0  0  0
   -0.2643   -7.3256    1.6715 H   0  0  0  0  0  0  0  0  0  0  0  0
   -1.1295   -8.0726    3.0182 H   0  0  0  0  0  0  0  0  0  0  0  0
    0.0980   -8.9885    2.1769 H   0  0  0  0  0  0  0  0  0  0  0  0
    0.8547   -8.1953    4.3824 H   0  0  0  0  0  0  0  0  0  0  0  0
    0.1801   -5.4359    3.4246 H   0  0  0  0  0  0  0  0  0  0  0  0
   -0.2322   -6.2233    4.9387 H   0  0  0  0  0  0  0  0  0  0  0  0
    1.8587   -4.5459    4.8930 H   0  0  0  0  0  0  0  0  0  0  0  0
    1.9797   -6.0546    5.7664 H   0  0  0  0  0  0  0  0  0  0  0  0
    4.9468   -7.0216    3.9807 H   0  0  0  0  0  0  0  0  0  0  0  0
    3.9302   -7.3489    5.3769 H   0  0  0  0  0  0  0  0  0  0  0  0
    4.6489   -5.7445    5.1704 H   0  0  0  0  0  0  0  0  0  0  0  0
    4.4677   -4.9171    2.7928 H   0  0  0  0  0  0  0  0  0  0  0  0
    1.5764   -4.1321    2.2863 H   0  0  0  0  0  0  0  0  0  0  0  0
    2.6876   -3.2031    3.2576 H   0  0  0  0  0  0  0  0  0  0  0  0
    2.3908   -2.3736    0.8979 H   0  0  0  0  0  0  0  0  0  0  0  0
    5.3553   -0.6773   -1.4950 H   0  0  0  0  0  0  0  0  0  0  0  0
    5.4596    0.6054    0.2299 H   0  0  0  0  0  0  0  0  0  0  0  0
    6.9165   -2.8321   -1.2358 H   0  0  0  0  0  0  0  0  0  0  0  0
    7.2103   -3.3811    1.0679 H   0  0  0  0  0  0  0  0  0  0  0  0
    3.2009   -2.3965   -1.4338 H   0  0  0  0  0  0  0  0  0  0  0  0
    5.3209   -4.5368   -2.0311 H   0  0  0  0  0  0  0  0  0  0  0  0
    5.1158   -3.0126   -2.8913 H   0  0  0  0  0  0  0  0  0  0  0  0
    3.8759   -4.2379   -2.9992 H   0  0  0  0  0  0  0  0  0  0  0  0
    2.0623   -4.8187   -1.5302 H   0  0  0  0  0  0  0  0  0  0  0  0
    3.8000   -6.1611   -0.6359 H   0  0  0  0  0  0  0  0  0  0  0  0
    4.8991   -5.2712    0.3598 H   0  0  0  0  0  0  0  0  0  0  0  0
    2.4396   -7.9109    0.9271 H   0  0  0  0  0  0  0  0  0  0  0  0
    2.8919   -8.3275    3.4218 H   0  0  0  0  0  0  0  0  0  0  0  0
  1  2  1  0
  1 24  1  0
  1 25  1  0
  1 26  1  0
  2 23  1  0
  2  3  1  0
  2 27  1  1
  3  4  1  0
  3 28  1  0
  3 29  1  0
  4  5  1  0
  4 30  1  0
  4 31  1  0
  5 23  1  0
  5  6  1  1
  5  7  1  0
  6 32  1  0
  6 33  1  0
  6 34  1  0
  7 21  1  0
  7  8  1  0
  7 35  1  1
  8  9  1  0
  8 36  1  0
  8 37  1  0
  9 18  1  0
  9 10  1  0
  9 38  1  6
 11 10  1  1
 11 14  1  0
 11 12  1  0
 11 16  1  0
 12 13  1  0
 12 14  1  0
 12 39  1  6
 13 40  1  0
 14 15  1  0
 14 41  1  6
 15 42  1  0
 16 17  1  0
 16 18  1  0
 16 43  1  6
 17 44  1  0
 17 45  1  0
 17 46  1  0
 18 19  1  6
 18 20  1  0
 19 47  1  0
 20 21  1  0
 20 48  1  0
 20 49  1  0
 21 22  2  0
 22 23  1  0
 22 50  1  0
 23 51  1  1
M  END
>  <i_m_ct_stereo_status>  (240) 
1

>  <s_m_source_file>  (240) 
/var/tmp/pbs.5076255.sched01/tmpthapbt4w/86pc0xbys0.sdf

>  <i_m_source_file_index>  (240) 
21

>  <i_lp_mmshare_version>  (240) 
48012

>  <i_f3d_flags>  (240) 
0

>  <s_epik_input>  (240) 
W0NIMl0xW0NIMl1bQ0BASF0oW0NIM10pW0NAQEhdKFtDSF0yKVtDQEBdMShbQ0gzXSlbQ0BIXShbQ0gyXTMpQz0yW0NIMl1bQ0BdKFtPSF0pKFtDQEBIXTRbQ0gzXSlbQ0BASF0zT1tDQF00NVtDQEBIXShbT0hdKVtDQEhdNVtPSF0=

>  <s_epik_cmdline>  (240) 
J2VwaWtfcHl0aG9uJywgJy1waHQnLCAnMi4wJywgJy1waCcsICc3LjAnLCAnLXRuJywgJzgnLCAnLW1hJywgJzIwMCcsICctaW1hZScsICc8aW5maWxlLm1hZT4nLCAnLW9tYWUnLCAnPG91dGZpbGUubWFlPic=

>  <r_lp_tautomer_probability>  (240) 
1

>  <r_epik_Ionization_Penalty>  (240) 
2.2473e-07

>  <r_epik_Ionization_Penalty_Charging>  (240) 
0

>  <r_epik_Ionization_Penalty_Neutral>  (240) 
2.2473e-07

>  <r_epik_State_Penalty>  (240) 
-0

>  <r_epik_Charging_Adjusted_Penalty>  (240) 
0

>  <i_epik_Tot_Q>  (240) 
0

>  <i_epik_Tot_abs_Q>  (240) 
0

>  <s_lp_Force_Field>  (240) 
OPLS3e

>  <r_lp_Energy>  (240) 
18.4861

>  <b_lp_Chiralities_Consistent>  (240) 
1

>  <s_lp_Variant>  (240) 
71:0-1

>  <s_i_glide_gridfile>  (240) 
pfpi4k_grid

>  <i_i_glide_lignum>  (240) 
21

>  <i_i_glide_rotatable_bonds>  (240) 
3

>  <r_i_docking_score>  (240) 
-3.50109

>  <r_i_glide_ligand_efficiency>  (240) 
-0.152221

>  <r_i_glide_ligand_efficiency_sa>  (240) 
-0.432897

>  <r_i_glide_ligand_efficiency_ln>  (240) 
-0.846595

>  <r_i_glide_gscore>  (240) 
-3.50109

>  <r_i_glide_lipo>  (240) 
-0.0385789

>  <r_i_glide_hbond>  (240) 
-0.304198

>  <r_i_glide_metal>  (240) 
-0

>  <r_i_glide_rewards>  (240) 
-1.22439

>  <r_i_glide_evdw>  (240) 
-20.0512

>  <r_i_glide_ecoul>  (240) 
-6.20909

>  <r_i_glide_erotb>  (240) 
0

>  <r_i_glide_esite>  (240) 
0

>  <r_i_glide_emodel>  (240) 
-31.6436

>  <r_i_glide_energy>  (240) 
-26.2603

>  <r_i_glide_einternal>  (240) 
1.09234

>  <r_i_glide_intrahb_reward>  (240) 
-0

>  <i_i_glide_confnum>  (240) 
2

>  <i_i_glide_posenum>  (240) 
2

>  <r_i_glide_eff_state_penalty>  (240) 
0

>  <ligand_id>  (240) 
71

>  <original_smiles>  (240) 
CC1CCC2(C)C3CC4OC5(C(O)C5O)C(C)C4(O)CC3=CC12

>  <smiles>  (240) 
[H]OC1([H])C([H])(O[H])C12OC1([H])C([H])([H])C3([H])C(=C([H])C4([H])C([H])(C([H])([H])[H])C([H])([H])C([H])([H])C34C([H])([H])[H])C([H])([H])C1(O[H])C2([H])C([H])([H])[H]

$$$$
71:0:2
     RDKit          3D

 51 55  0  0  1  0  0  0  0  0999 V2000
    3.0112    0.1596   -4.1242 C   0  0  0  0  0  0  0  0  0  0  0  0
    3.4220   -1.3199   -4.1062 C   0  0  2  0  0  0  0  0  0  0  0  0
    2.2840   -2.2254   -3.7486 C   0  0  0  0  0  0  0  0  0  0  0  0
    2.9604   -3.4927   -3.3683 C   0  0  0  0  0  0  0  0  0  0  0  0
    4.2181   -3.1085   -2.5951 C   0  0  2  0  0  0  0  0  0  0  0  0
    5.3694   -3.9857   -2.9775 C   0  0  0  0  0  0  0  0  0  0  0  0
    4.2038   -3.0353   -1.0384 C   0  0  2  0  0  0  0  0  0  0  0  0
    2.8416   -3.1693   -0.3578 C   0  0  0  0  0  0  0  0  0  0  0  0
    2.8620   -2.7706    1.1475 C   0  0  1  0  0  0  0  0  0  0  0  0
    3.5085   -3.7430    1.9870 O   0  0  0  0  0  0  0  0  0  0  0  0
    3.9544   -3.0586    3.1533 C   0  0  1  0  0  0  0  0  0  0  0  0
    3.7408   -3.7974    4.4775 C   0  0  1  0  0  0  0  0  0  0  0  0
    3.1709   -5.0860    4.3616 O   0  0  0  0  0  0  0  0  0  0  0  0
    5.1429   -3.6640    3.9223 C   0  0  1  0  0  0  0  0  0  0  0  0
    5.7280   -4.8144    3.3251 O   0  0  0  0  0  0  0  0  0  0  0  0
    3.7057   -1.5527    2.9811 C   0  0  1  0  0  0  0  0  0  0  0  0
    4.7266   -0.6424    3.6551 C   0  0  0  0  0  0  0  0  0  0  0  0
    3.5335   -1.4114    1.4722 C   0  0  2  0  0  0  0  0  0  0  0  0
    2.6409   -0.3315    1.2455 O   0  0  0  0  0  0  0  0  0  0  0  0
    4.8525   -1.2337    0.6766 C   0  0  0  0  0  0  0  0  0  0  0  0
    4.6818   -1.6344   -0.7661 C   0  0  0  0  0  0  0  0  0  0  0  0
    4.7919   -0.9033   -1.8793 C   0  0  0  0  0  0  0  0  0  0  0  0
    4.5431   -1.7015   -3.1370 C   0  0  2  0  0  0  0  0  0  0  0  0
    2.6074    0.3931   -3.1474 H   0  0  0  0  0  0  0  0  0  0  0  0
    2.2124    0.2929   -4.8631 H   0  0  0  0  0  0  0  0  0  0  0  0
    3.8285    0.8128   -4.3682 H   0  0  0  0  0  0  0  0  0  0  0  0
    3.7575   -1.5418   -5.1066 H   0  0  0  0  0  0  0  0  0  0  0  0
    1.7795   -1.9174   -2.8365 H   0  0  0  0  0  0  0  0  0  0  0  0
    1.5501   -2.4138   -4.5397 H   0  0  0  0  0  0  0  0  0  0  0  0
    2.2308   -4.0681   -2.7986 H   0  0  0  0  0  0  0  0  0  0  0  0
    3.2214   -4.0568   -4.2722 H   0  0  0  0  0  0  0  0  0  0  0  0
    6.3044   -3.6592   -2.5023 H   0  0  0  0  0  0  0  0  0  0  0  0
    5.5167   -4.0090   -4.0584 H   0  0  0  0  0  0  0  0  0  0  0  0
    5.1157   -4.9883   -2.6340 H   0  0  0  0  0  0  0  0  0  0  0  0
    4.8924   -3.7535   -0.5708 H   0  0  0  0  0  0  0  0  0  0  0  0
    2.2415   -2.4327   -0.8704 H   0  0  0  0  0  0  0  0  0  0  0  0
    2.3780   -4.1580   -0.5066 H   0  0  0  0  0  0  0  0  0  0  0  0
    1.8305   -2.6960    1.4999 H   0  0  0  0  0  0  0  0  0  0  0  0
    3.4037   -3.2262    5.3429 H   0  0  0  0  0  0  0  0  0  0  0  0
    3.6250   -5.5537    3.6655 H   0  0  0  0  0  0  0  0  0  0  0  0
    5.8491   -3.0168    4.4359 H   0  0  0  0  0  0  0  0  0  0  0  0
    5.0632   -5.3426    2.8861 H   0  0  0  0  0  0  0  0  0  0  0  0
    2.7238   -1.3595    3.4142 H   0  0  0  0  0  0  0  0  0  0  0  0
    5.7379   -0.8242    3.2837 H   0  0  0  0  0  0  0  0  0  0  0  0
    4.7310   -0.8395    4.7306 H   0  0  0  0  0  0  0  0  0  0  0  0
    4.4942    0.4162    3.5100 H   0  0  0  0  0  0  0  0  0  0  0  0
    2.1125   -0.5051    0.4601 H   0  0  0  0  0  0  0  0  0  0  0  0
    5.2871   -0.2410    0.7506 H   0  0  0  0  0  0  0  0  0  0  0  0
    5.5974   -1.9345    1.0436 H   0  0  0  0  0  0  0  0  0  0  0  0
    5.0918    0.1398   -1.9327 H   0  0  0  0  0  0  0  0  0  0  0  0
    5.4005   -1.7825   -3.7395 H   0  0  0  0  0  0  0  0  0  0  0  0
  1  2  1  0
  1 24  1  0
  1 25  1  0
  1 26  1  0
  2 23  1  0
  2  3  1  0
  2 27  1  6
  3  4  1  0
  3 28  1  0
  3 29  1  0
  4  5  1  0
  4 30  1  0
  4 31  1  0
  5 23  1  0
  5  6  1  1
  5  7  1  0
  6 32  1  0
  6 33  1  0
  6 34  1  0
  7 21  1  0
  7  8  1  0
  7 35  1  1
  8  9  1  0
  8 36  1  0
  8 37  1  0
  9 18  1  0
  9 10  1  0
  9 38  1  1
 11 10  1  6
 11 14  1  0
 11 12  1  0
 11 16  1  0
 12 13  1  0
 12 14  1  0
 12 39  1  1
 13 40  1  0
 14 15  1  0
 14 41  1  1
 15 42  1  0
 16 17  1  0
 16 18  1  0
 16 43  1  1
 17 44  1  0
 17 45  1  0
 17 46  1  0
 18 19  1  1
 18 20  1  0
 19 47  1  0
 20 21  1  0
 20 48  1  0
 20 49  1  0
 21 22  2  0
 22 23  1  0
 22 50  1  0
 23 51  1  6
M  END
>  <i_m_ct_stereo_status>  (241) 
1

>  <s_m_source_file>  (241) 
/var/tmp/pbs.5076255.sched01/tmpthapbt4w/86pc0xbys0.sdf

>  <i_m_source_file_index>  (241) 
21

>  <i_lp_mmshare_version>  (241) 
48012

>  <i_f3d_flags>  (241) 
0

>  <s_epik_input>  (241) 
W0NIMl0xW0NIMl1bQ0BASF0oW0NIM10pW0NAQEhdKFtDSF0yKVtDQEBdMShbQ0gzXSlbQ0BIXShbQ0gyXTMpQz0yW0NIMl1bQ0BdKFtPSF0pKFtDQEBIXTRbQ0gzXSlbQ0BASF0zT1tDQF00NVtDQEBIXShbT0hdKVtDQEhdNVtPSF0=

>  <s_epik_cmdline>  (241) 
J2VwaWtfcHl0aG9uJywgJy1waHQnLCAnMi4wJywgJy1waCcsICc3LjAnLCAnLXRuJywgJzgnLCAnLW1hJywgJzIwMCcsICctaW1hZScsICc8aW5maWxlLm1hZT4nLCAnLW9tYWUnLCAnPG91dGZpbGUubWFlPic=

>  <r_lp_tautomer_probability>  (241) 
1

>  <r_epik_Ionization_Penalty>  (241) 
2.2473e-07

>  <r_epik_Ionization_Penalty_Charging>  (241) 
0

>  <r_epik_Ionization_Penalty_Neutral>  (241) 
2.2473e-07

>  <r_epik_State_Penalty>  (241) 
-0

>  <r_epik_Charging_Adjusted_Penalty>  (241) 
0

>  <i_epik_Tot_Q>  (241) 
0

>  <i_epik_Tot_abs_Q>  (241) 
0

>  <s_lp_Force_Field>  (241) 
OPLS3e

>  <r_lp_Energy>  (241) 
18.4861

>  <b_lp_Chiralities_Consistent>  (241) 
1

>  <s_lp_Variant>  (241) 
71:0-1

>  <s_i_glide_gridfile>  (241) 
pfpi4k_grid

>  <i_i_glide_lignum>  (241) 
21

>  <i_i_glide_rotatable_bonds>  (241) 
3

>  <r_i_docking_score>  (241) 
-3.16994

>  <r_i_glide_ligand_efficiency>  (241) 
-0.137823

>  <r_i_glide_ligand_efficiency_sa>  (241) 
-0.391952

>  <r_i_glide_ligand_efficiency_ln>  (241) 
-0.76652

>  <r_i_glide_gscore>  (241) 
-3.16994

>  <r_i_glide_lipo>  (241) 
-0.626673

>  <r_i_glide_hbond>  (241) 
-0.16

>  <r_i_glide_metal>  (241) 
-0

>  <r_i_glide_rewards>  (241) 
-1.22439

>  <r_i_glide_evdw>  (241) 
-13.6055

>  <r_i_glide_ecoul>  (241) 
-3.19068

>  <r_i_glide_erotb>  (241) 
0

>  <r_i_glide_esite>  (241) 
0

>  <r_i_glide_emodel>  (241) 
-21.2411

>  <r_i_glide_energy>  (241) 
-16.7962

>  <r_i_glide_einternal>  (241) 
0.950636

>  <r_i_glide_intrahb_reward>  (241) 
-0

>  <i_i_glide_confnum>  (241) 
2

>  <i_i_glide_posenum>  (241) 
31

>  <r_i_glide_eff_state_penalty>  (241) 
0

>  <ligand_id>  (241) 
71

>  <original_smiles>  (241) 
CC1CCC2(C)C3CC4OC5(C(O)C5O)C(C)C4(O)CC3=CC12

>  <smiles>  (241) 
[H]OC1([H])C([H])(O[H])C12OC1([H])C([H])([H])C3([H])C(=C([H])C4([H])C([H])(C([H])([H])[H])C([H])([H])C([H])([H])C34C([H])([H])[H])C([H])([H])C1(O[H])C2([H])C([H])([H])[H]

$$$$
72:0:0
     RDKit          3D

 30 32  0  0  1  0  0  0  0  0999 V2000
    7.3734   -1.9457    0.1124 O   0  0  0  0  0  0  0  0  0  0  0  0
    6.2348   -2.0357   -0.3392 C   0  0  0  0  0  0  0  0  0  0  0  0
    5.9926   -2.5057   -1.5711 N   0  0  0  0  0  0  0  0  0  0  0  0
    4.7262   -2.5363   -2.0271 C   0  0  0  0  0  0  0  0  0  0  0  0
    4.2327   -3.0541   -3.5205 S   0  0  0  0  0  0  0  0  0  0  0  0
    3.6752   -1.9354   -0.8008 S   0  0  0  0  0  0  0  0  0  0  0  0
    5.0001   -1.6215    0.3193 C   0  0  0  0  0  0  0  0  0  0  0  0
    4.9505   -1.1240    1.5763 C   0  0  0  0  0  0  0  0  0  0  0  0
    3.7766   -0.6229    2.3141 C   0  0  0  0  0  0  0  0  0  0  0  0
    3.7491   -0.7835    3.7152 C   0  0  0  0  0  0  0  0  0  0  0  0
    2.6389   -0.3482    4.4696 C   0  0  0  0  0  0  0  0  0  0  0  0
    1.5256    0.2533    3.8403 C   0  0  0  0  0  0  0  0  0  0  0  0
    0.3678    0.7188    4.6223 C   0  0  0  0  0  0  0  0  0  0  0  0
   -0.3110    1.9085    4.2795 C   0  0  0  0  0  0  0  0  0  0  0  0
   -1.4072    2.3201    5.0592 C   0  0  0  0  0  0  0  0  0  0  0  0
   -1.7905    1.5213    6.1518 C   0  0  0  0  0  0  0  0  0  0  0  0
   -1.1746    0.3666    6.4809 N   0  0  0  0  0  0  0  0  0  0  0  0
   -0.1113   -0.0020    5.7372 C   0  0  0  0  0  0  0  0  0  0  0  0
    1.5508    0.4067    2.4362 C   0  0  0  0  0  0  0  0  0  0  0  0
    2.6581   -0.0270    1.6843 C   0  0  0  0  0  0  0  0  0  0  0  0
    6.7430   -2.8416   -2.1628 H   0  0  0  0  0  0  0  0  0  0  0  0
    5.8884   -1.0275    2.1089 H   0  0  0  0  0  0  0  0  0  0  0  0
    4.5897   -1.2429    4.2153 H   0  0  0  0  0  0  0  0  0  0  0  0
    2.6623   -0.4734    5.5440 H   0  0  0  0  0  0  0  0  0  0  0  0
    0.0086    2.5069    3.4377 H   0  0  0  0  0  0  0  0  0  0  0  0
   -1.9404    3.2291    4.8271 H   0  0  0  0  0  0  0  0  0  0  0  0
   -2.6270    1.8027    6.7754 H   0  0  0  0  0  0  0  0  0  0  0  0
    0.3675   -0.9184    6.0441 H   0  0  0  0  0  0  0  0  0  0  0  0
    0.7168    0.8529    1.9085 H   0  0  0  0  0  0  0  0  0  0  0  0
    2.6255    0.1192    0.6182 H   0  0  0  0  0  0  0  0  0  0  0  0
  1  2  2  0
  2  7  1  0
  2  3  1  0
  3  4  1  0
  3 21  1  0
  4  5  2  0
  4  6  1  0
  6  7  1  0
  7  8  2  3
  8  9  1  0
  8 22  1  0
  9 20  1  0
  9 10  2  0
 10 11  1  0
 10 23  1  0
 11 12  2  0
 11 24  1  0
 12 13  1  0
 12 19  1  0
 13 18  1  0
 13 14  2  0
 14 15  1  0
 14 25  1  0
 15 16  2  0
 15 26  1  0
 16 17  1  0
 16 27  1  0
 17 18  2  0
 18 28  1  0
 19 20  2  0
 19 29  1  0
 20 30  1  0
M  END
>  <i_m_ct_stereo_status>  (242) 
1

>  <s_m_source_file>  (242) 
/var/tmp/pbs.5076255.sched01/tmpthapbt4w/86pc0xbys0.sdf

>  <i_m_source_file_index>  (242) 
23

>  <i_lp_mmshare_version>  (242) 
48012

>  <i_f3d_flags>  (242) 
0

>  <s_epik_input>  (242) 
Tz1DMVtOSF1DKD1TKVNDXDE9W0NIXS9jMltjSF1bY0hdYyhbY0hdW2NIXTIpLWMzW2NIXVtjSF1bY0hdbltjSF0z

>  <s_epik_cmdline>  (242) 
J2VwaWtfcHl0aG9uJywgJy1waHQnLCAnMi4wJywgJy1waCcsICc3LjAnLCAnLXRuJywgJzgnLCAnLW1hJywgJzIwMCcsICctaW1hZScsICc8aW5maWxlLm1hZT4nLCAnLW9tYWUnLCAnPG91dGZpbGUubWFlPic=

>  <r_epik_Ionization_Penalty>  (242) 
0.397

>  <r_epik_Ionization_Penalty_Charging>  (242) 
0

>  <r_epik_Ionization_Penalty_Neutral>  (242) 
0.397

>  <r_epik_State_Penalty>  (242) 
0.395176

>  <r_epik_Charging_Adjusted_Penalty>  (242) 
0.395176

>  <i_epik_Tot_Q>  (242) 
0

>  <i_epik_Tot_abs_Q>  (242) 
0

>  <s_lp_Force_Field>  (242) 
OPLS3e

>  <r_lp_Energy>  (242) 
24.681

>  <b_lp_Chiralities_Consistent>  (242) 
1

>  <s_lp_Variant>  (242) 
72:0-1

>  <s_i_glide_gridfile>  (242) 
pfpi4k_grid

>  <i_i_glide_lignum>  (242) 
23

>  <i_i_glide_rotatable_bonds>  (242) 
2

>  <r_i_docking_score>  (242) 
-3.48726

>  <r_i_glide_ligand_efficiency>  (242) 
-0.174363

>  <r_i_glide_ligand_efficiency_sa>  (242) 
-0.473294

>  <r_i_glide_ligand_efficiency_ln>  (242) 
-0.872746

>  <r_i_glide_gscore>  (242) 
-3.48726

>  <r_i_glide_lipo>  (242) 
-0.155891

>  <r_i_glide_hbond>  (242) 
-0.157077

>  <r_i_glide_metal>  (242) 
-0

>  <r_i_glide_rewards>  (242) 
-1.66635

>  <r_i_glide_evdw>  (242) 
-28.4541

>  <r_i_glide_ecoul>  (242) 
-2.95781

>  <r_i_glide_erotb>  (242) 
0.412208

>  <r_i_glide_esite>  (242) 
-0.0537728

>  <r_i_glide_emodel>  (242) 
-38.3002

>  <r_i_glide_energy>  (242) 
-31.4119

>  <r_i_glide_einternal>  (242) 
0.278718

>  <r_i_glide_intrahb_reward>  (242) 
-0

>  <i_i_glide_confnum>  (242) 
4

>  <i_i_glide_posenum>  (242) 
32

>  <r_i_glide_eff_state_penalty>  (242) 
0

>  <ligand_id>  (242) 
72

>  <original_smiles>  (242) 
O=C1NC(=S)SC1=Cc1ccc(-c2cccnc2)cc1

>  <smiles>  (242) 
[H]C(=C1SC(=S)N([H])C1=O)c1c([H])c([H])c(-c2c([H])nc([H])c([H])c2[H])c([H])c1[H]

$$$$
72:0:1
     RDKit          3D

 30 32  0  0  1  0  0  0  0  0999 V2000
    5.7681   -0.6542    0.4906 O   0  0  0  0  0  0  0  0  0  0  0  0
    4.9940   -1.1481   -0.3140 C   0  0  0  0  0  0  0  0  0  0  0  0
    4.8756   -0.6888   -1.5661 N   0  0  0  0  0  0  0  0  0  0  0  0
    4.0320   -1.2783   -2.4233 C   0  0  0  0  0  0  0  0  0  0  0  0
    3.7482   -0.7947   -3.9814 S   0  0  0  0  0  0  0  0  0  0  0  0
    3.2653   -2.6204   -1.6259 S   0  0  0  0  0  0  0  0  0  0  0  0
    4.0924   -2.2627   -0.1014 C   0  0  0  0  0  0  0  0  0  0  0  0
    3.9171   -2.8390    1.1071 C   0  0  0  0  0  0  0  0  0  0  0  0
    3.0165   -3.9608    1.4552 C   0  0  0  0  0  0  0  0  0  0  0  0
    2.4125   -3.9462    2.7231 C   0  0  0  0  0  0  0  0  0  0  0  0
    1.5315   -4.9625    3.1038 C   0  0  0  0  0  0  0  0  0  0  0  0
    1.2274   -6.0100    2.2133 C   0  0  0  0  0  0  0  0  0  0  0  0
    0.3094   -7.1034    2.6197 C   0  0  0  0  0  0  0  0  0  0  0  0
    0.4713   -8.4141    2.1145 C   0  0  0  0  0  0  0  0  0  0  0  0
   -0.4622   -9.3957    2.4772 C   0  0  0  0  0  0  0  0  0  0  0  0
   -1.5704   -9.0265    3.2379 C   0  0  0  0  0  0  0  0  0  0  0  0
   -1.7208   -7.7890    3.7797 N   0  0  0  0  0  0  0  0  0  0  0  0
   -0.7622   -6.8841    3.5135 C   0  0  0  0  0  0  0  0  0  0  0  0
    1.7975   -5.9944    0.9246 C   0  0  0  0  0  0  0  0  0  0  0  0
    2.6971   -4.9901    0.5494 C   0  0  0  0  0  0  0  0  0  0  0  0
    5.3706    0.1434   -1.8530 H   0  0  0  0  0  0  0  0  0  0  0  0
    4.5167   -2.4786    1.9370 H   0  0  0  0  0  0  0  0  0  0  0  0
    2.6246   -3.1453    3.4103 H   0  0  0  0  0  0  0  0  0  0  0  0
    1.0790   -4.9308    4.0878 H   0  0  0  0  0  0  0  0  0  0  0  0
    1.2645   -8.6508    1.4206 H   0  0  0  0  0  0  0  0  0  0  0  0
   -0.3872  -10.3923    2.0914 H   0  0  0  0  0  0  0  0  0  0  0  0
   -2.3969   -9.7176    3.4312 H   0  0  0  0  0  0  0  0  0  0  0  0
   -0.9506   -5.9216    3.9435 H   0  0  0  0  0  0  0  0  0  0  0  0
    1.5408   -6.7567    0.2032 H   0  0  0  0  0  0  0  0  0  0  0  0
    3.1499   -5.0375   -0.4330 H   0  0  0  0  0  0  0  0  0  0  0  0
  1  2  2  0
  2  7  1  0
  2  3  1  0
  3  4  1  0
  3 21  1  0
  4  5  2  0
  4  6  1  0
  6  7  1  0
  7  8  2  3
  8  9  1  0
  8 22  1  0
  9 20  1  0
  9 10  2  0
 10 11  1  0
 10 23  1  0
 11 12  2  0
 11 24  1  0
 12 13  1  0
 12 19  1  0
 13 18  1  0
 13 14  2  0
 14 15  1  0
 14 25  1  0
 15 16  2  0
 15 26  1  0
 16 17  1  0
 16 27  1  0
 17 18  2  0
 18 28  1  0
 19 20  2  0
 19 29  1  0
 20 30  1  0
M  END
>  <i_m_ct_stereo_status>  (243) 
1

>  <s_m_source_file>  (243) 
/var/tmp/pbs.5076255.sched01/tmpthapbt4w/86pc0xbys0.sdf

>  <i_m_source_file_index>  (243) 
23

>  <i_lp_mmshare_version>  (243) 
48012

>  <i_f3d_flags>  (243) 
0

>  <s_epik_input>  (243) 
Tz1DMVtOSF1DKD1TKVNDXDE9W0NIXS9jMltjSF1bY0hdYyhbY0hdW2NIXTIpLWMzW2NIXVtjSF1bY0hdbltjSF0z

>  <s_epik_cmdline>  (243) 
J2VwaWtfcHl0aG9uJywgJy1waHQnLCAnMi4wJywgJy1waCcsICc3LjAnLCAnLXRuJywgJzgnLCAnLW1hJywgJzIwMCcsICctaW1hZScsICc8aW5maWxlLm1hZT4nLCAnLW9tYWUnLCAnPG91dGZpbGUubWFlPic=

>  <r_epik_Ionization_Penalty>  (243) 
0.397

>  <r_epik_Ionization_Penalty_Charging>  (243) 
0

>  <r_epik_Ionization_Penalty_Neutral>  (243) 
0.397

>  <r_epik_State_Penalty>  (243) 
0.395176

>  <r_epik_Charging_Adjusted_Penalty>  (243) 
0.395176

>  <i_epik_Tot_Q>  (243) 
0

>  <i_epik_Tot_abs_Q>  (243) 
0

>  <s_lp_Force_Field>  (243) 
OPLS3e

>  <r_lp_Energy>  (243) 
24.681

>  <b_lp_Chiralities_Consistent>  (243) 
1

>  <s_lp_Variant>  (243) 
72:0-1

>  <s_i_glide_gridfile>  (243) 
pfpi4k_grid

>  <i_i_glide_lignum>  (243) 
23

>  <i_i_glide_rotatable_bonds>  (243) 
2

>  <r_i_docking_score>  (243) 
-3.48567

>  <r_i_glide_ligand_efficiency>  (243) 
-0.174284

>  <r_i_glide_ligand_efficiency_sa>  (243) 
-0.473078

>  <r_i_glide_ligand_efficiency_ln>  (243) 
-0.872348

>  <r_i_glide_gscore>  (243) 
-3.48567

>  <r_i_glide_lipo>  (243) 
-0.0738549

>  <r_i_glide_hbond>  (243) 
-0.225469

>  <r_i_glide_metal>  (243) 
-0

>  <r_i_glide_rewards>  (243) 
-1.63585

>  <r_i_glide_evdw>  (243) 
-28.5617

>  <r_i_glide_ecoul>  (243) 
-2.83894

>  <r_i_glide_erotb>  (243) 
0.412208

>  <r_i_glide_esite>  (243) 
-0.108772

>  <r_i_glide_emodel>  (243) 
-37.8062

>  <r_i_glide_energy>  (243) 
-31.4007

>  <r_i_glide_einternal>  (243) 
0.705125

>  <r_i_glide_intrahb_reward>  (243) 
-0

>  <i_i_glide_confnum>  (243) 
2

>  <i_i_glide_posenum>  (243) 
2

>  <r_i_glide_eff_state_penalty>  (243) 
0

>  <ligand_id>  (243) 
72

>  <original_smiles>  (243) 
O=C1NC(=S)SC1=Cc1ccc(-c2cccnc2)cc1

>  <smiles>  (243) 
[H]C(=C1SC(=S)N([H])C1=O)c1c([H])c([H])c(-c2c([H])nc([H])c([H])c2[H])c([H])c1[H]

$$$$
72:0:2
     RDKit          3D

 30 32  0  0  1  0  0  0  0  0999 V2000
    5.8818   -1.4825   -0.8807 O   0  0  0  0  0  0  0  0  0  0  0  0
    5.1879   -2.2618   -0.2258 C   0  0  0  0  0  0  0  0  0  0  0  0
    5.3283   -3.5942   -0.3132 N   0  0  0  0  0  0  0  0  0  0  0  0
    4.5520   -4.3970    0.4353 C   0  0  0  0  0  0  0  0  0  0  0  0
    4.6240   -6.0482    0.4886 S   0  0  0  0  0  0  0  0  0  0  0  0
    3.4600   -3.4167    1.3483 S   0  0  0  0  0  0  0  0  0  0  0  0
    4.1519   -1.9065    0.7377 C   0  0  0  0  0  0  0  0  0  0  0  0
    3.7869   -0.6361    1.0210 C   0  0  0  0  0  0  0  0  0  0  0  0
    2.8021   -0.1971    2.0269 C   0  0  0  0  0  0  0  0  0  0  0  0
    2.5210   -0.9255    3.2035 C   0  0  0  0  0  0  0  0  0  0  0  0
    1.5245   -0.4998    4.0967 C   0  0  0  0  0  0  0  0  0  0  0  0
    0.7789    0.6706    3.8485 C   0  0  0  0  0  0  0  0  0  0  0  0
   -0.2547    1.1190    4.8019 C   0  0  0  0  0  0  0  0  0  0  0  0
   -0.5546    2.4899    4.9682 C   0  0  0  0  0  0  0  0  0  0  0  0
   -1.5382    2.8690    5.8985 C   0  0  0  0  0  0  0  0  0  0  0  0
   -2.1862    1.8609    6.6338 C   0  0  0  0  0  0  0  0  0  0  0  0
   -1.9240    0.5428    6.4847 N   0  0  0  0  0  0  0  0  0  0  0  0
   -0.9761    0.1990    5.5907 C   0  0  0  0  0  0  0  0  0  0  0  0
    1.0605    1.4074    2.6767 C   0  0  0  0  0  0  0  0  0  0  0  0
    2.0574    0.9700    1.7802 C   0  0  0  0  0  0  0  0  0  0  0  0
    5.9985   -4.0058   -0.9451 H   0  0  0  0  0  0  0  0  0  0  0  0
    4.3058    0.1642    0.5083 H   0  0  0  0  0  0  0  0  0  0  0  0
    3.0891   -1.8012    3.4698 H   0  0  0  0  0  0  0  0  0  0  0  0
    1.3704   -1.0940    4.9912 H   0  0  0  0  0  0  0  0  0  0  0  0
   -0.0283    3.2497    4.4047 H   0  0  0  0  0  0  0  0  0  0  0  0
   -1.7832    3.9083    6.0536 H   0  0  0  0  0  0  0  0  0  0  0  0
   -2.9505    2.1068    7.3579 H   0  0  0  0  0  0  0  0  0  0  0  0
   -0.7962   -0.8603    5.5132 H   0  0  0  0  0  0  0  0  0  0  0  0
    0.5082    2.3063    2.4261 H   0  0  0  0  0  0  0  0  0  0  0  0
    2.2356    1.5441    0.8884 H   0  0  0  0  0  0  0  0  0  0  0  0
  1  2  2  0
  2  7  1  0
  2  3  1  0
  3  4  1  0
  3 21  1  0
  4  5  2  0
  4  6  1  0
  6  7  1  0
  7  8  2  3
  8  9  1  0
  8 22  1  0
  9 20  1  0
  9 10  2  0
 10 11  1  0
 10 23  1  0
 11 12  2  0
 11 24  1  0
 12 13  1  0
 12 19  1  0
 13 18  1  0
 13 14  2  0
 14 15  1  0
 14 25  1  0
 15 16  2  0
 15 26  1  0
 16 17  1  0
 16 27  1  0
 17 18  2  0
 18 28  1  0
 19 20  2  0
 19 29  1  0
 20 30  1  0
M  END
>  <i_m_ct_stereo_status>  (244) 
1

>  <s_m_source_file>  (244) 
/var/tmp/pbs.5076255.sched01/tmpthapbt4w/86pc0xbys0.sdf

>  <i_m_source_file_index>  (244) 
23

>  <i_lp_mmshare_version>  (244) 
48012

>  <i_f3d_flags>  (244) 
0

>  <s_epik_input>  (244) 
Tz1DMVtOSF1DKD1TKVNDXDE9W0NIXS9jMltjSF1bY0hdYyhbY0hdW2NIXTIpLWMzW2NIXVtjSF1bY0hdbltjSF0z

>  <s_epik_cmdline>  (244) 
J2VwaWtfcHl0aG9uJywgJy1waHQnLCAnMi4wJywgJy1waCcsICc3LjAnLCAnLXRuJywgJzgnLCAnLW1hJywgJzIwMCcsICctaW1hZScsICc8aW5maWxlLm1hZT4nLCAnLW9tYWUnLCAnPG91dGZpbGUubWFlPic=

>  <r_epik_Ionization_Penalty>  (244) 
0.397

>  <r_epik_Ionization_Penalty_Charging>  (244) 
0

>  <r_epik_Ionization_Penalty_Neutral>  (244) 
0.397

>  <r_epik_State_Penalty>  (244) 
0.395176

>  <r_epik_Charging_Adjusted_Penalty>  (244) 
0.395176

>  <i_epik_Tot_Q>  (244) 
0

>  <i_epik_Tot_abs_Q>  (244) 
0

>  <s_lp_Force_Field>  (244) 
OPLS3e

>  <r_lp_Energy>  (244) 
24.681

>  <b_lp_Chiralities_Consistent>  (244) 
1

>  <s_lp_Variant>  (244) 
72:0-1

>  <s_i_glide_gridfile>  (244) 
pfpi4k_grid

>  <i_i_glide_lignum>  (244) 
23

>  <i_i_glide_rotatable_bonds>  (244) 
2

>  <r_i_docking_score>  (244) 
-3.20694

>  <r_i_glide_ligand_efficiency>  (244) 
-0.160347

>  <r_i_glide_ligand_efficiency_sa>  (244) 
-0.435249

>  <r_i_glide_ligand_efficiency_ln>  (244) 
-0.802592

>  <r_i_glide_gscore>  (244) 
-3.20694

>  <r_i_glide_lipo>  (244) 
-0.0329815

>  <r_i_glide_hbond>  (244) 
-0.217778

>  <r_i_glide_metal>  (244) 
-0

>  <r_i_glide_rewards>  (244) 
-1.59711

>  <r_i_glide_evdw>  (244) 
-22.9749

>  <r_i_glide_ecoul>  (244) 
-4.11531

>  <r_i_glide_erotb>  (244) 
0.412208

>  <r_i_glide_esite>  (244) 
-0.00523277

>  <r_i_glide_emodel>  (244) 
-32.8807

>  <r_i_glide_energy>  (244) 
-27.0903

>  <r_i_glide_einternal>  (244) 
1.20848

>  <r_i_glide_intrahb_reward>  (244) 
-0

>  <i_i_glide_confnum>  (244) 
4

>  <i_i_glide_posenum>  (244) 
6

>  <r_i_glide_eff_state_penalty>  (244) 
0

>  <ligand_id>  (244) 
72

>  <original_smiles>  (244) 
O=C1NC(=S)SC1=Cc1ccc(-c2cccnc2)cc1

>  <smiles>  (244) 
[H]C(=C1SC(=S)N([H])C1=O)c1c([H])c([H])c(-c2c([H])nc([H])c([H])c2[H])c([H])c1[H]

$$$$
72:1:0
     RDKit          3D

 30 32  0  0  1  0  0  0  0  0999 V2000
    1.8682    1.5398    1.8111 O   0  0  0  0  0  0  0  0  0  0  0  0
    0.8697    1.3940    2.5067 C   0  0  0  0  0  0  0  0  0  0  0  0
   -0.0389    2.3702    2.6393 N   0  0  0  0  0  0  0  0  0  0  0  0
   -1.0681    2.2245    3.4865 C   0  0  0  0  0  0  0  0  0  0  0  0
   -2.2027    3.3855    3.8370 S   0  0  0  0  0  0  0  0  0  0  0  0
   -0.9838    0.6386    4.1955 S   0  0  0  0  0  0  0  0  0  0  0  0
    0.5033    0.2364    3.3231 C   0  0  0  0  0  0  0  0  0  0  0  0
    1.1585   -0.9418    3.4462 C   0  0  0  0  0  0  0  0  0  0  0  0
    2.3716   -1.4363    2.7634 C   0  0  0  0  0  0  0  0  0  0  0  0
    2.6826   -1.0351    1.4514 C   0  0  0  0  0  0  0  0  0  0  0  0
    3.8911   -1.4135    0.8666 C   0  0  0  0  0  0  0  0  0  0  0  0
    4.7944   -2.2735    1.5381 C   0  0  0  0  0  0  0  0  0  0  0  0
    6.0355   -2.7202    0.8742 C   0  0  0  0  0  0  0  0  0  0  0  0
    6.6042   -3.9830    1.1419 C   0  0  0  0  0  0  0  0  0  0  0  0
    7.7864   -4.3674    0.4852 C   0  0  0  0  0  0  0  0  0  0  0  0
    8.3532   -3.4772   -0.4479 C   0  0  0  0  0  0  0  0  0  0  0  0
    7.8072   -2.2851   -0.7458 N   0  0  0  0  0  0  0  0  0  0  0  0
    6.6893   -1.9215   -0.0875 C   0  0  0  0  0  0  0  0  0  0  0  0
    4.4503   -2.7254    2.8358 C   0  0  0  0  0  0  0  0  0  0  0  0
    3.2584   -2.3024    3.4499 C   0  0  0  0  0  0  0  0  0  0  0  0
    0.0379    3.2421    2.1102 H   0  0  0  0  0  0  0  0  0  0  0  0
    0.7262   -1.6526    4.1363 H   0  0  0  0  0  0  0  0  0  0  0  0
    2.0136   -0.4058    0.8861 H   0  0  0  0  0  0  0  0  0  0  0  0
    4.1082   -1.0444   -0.1271 H   0  0  0  0  0  0  0  0  0  0  0  0
    6.1380   -4.6609    1.8449 H   0  0  0  0  0  0  0  0  0  0  0  0
    8.2393   -5.3299    0.6863 H   0  0  0  0  0  0  0  0  0  0  0  0
    9.2618   -3.7291   -0.9678 H   0  0  0  0  0  0  0  0  0  0  0  0
    6.3113   -0.9415   -0.3406 H   0  0  0  0  0  0  0  0  0  0  0  0
    5.1036   -3.4017    3.3719 H   0  0  0  0  0  0  0  0  0  0  0  0
    3.0337   -2.6406    4.4521 H   0  0  0  0  0  0  0  0  0  0  0  0
  1  2  2  0
  2  7  1  0
  2  3  1  0
  3  4  1  0
  3 21  1  0
  4  5  2  0
  4  6  1  0
  6  7  1  0
  7  8  2  3
  8  9  1  0
  8 22  1  0
  9 20  1  0
  9 10  2  0
 10 11  1  0
 10 23  1  0
 11 12  2  0
 11 24  1  0
 12 13  1  0
 12 19  1  0
 13 18  1  0
 13 14  2  0
 14 15  1  0
 14 25  1  0
 15 16  2  0
 15 26  1  0
 16 17  1  0
 16 27  1  0
 17 18  2  0
 18 28  1  0
 19 20  2  0
 19 29  1  0
 20 30  1  0
M  END
>  <i_m_ct_stereo_status>  (245) 
1

>  <s_m_source_file>  (245) 
/var/tmp/pbs.5076255.sched01/tmpthapbt4w/86pc0xbys0.sdf

>  <i_m_source_file_index>  (245) 
24

>  <i_lp_mmshare_version>  (245) 
48012

>  <i_f3d_flags>  (245) 
0

>  <s_epik_input>  (245) 
Tz1DMVtOSF1DKD1TKVNDXDE9W0NIXS9jMltjSF1bY0hdYyhbY0hdW2NIXTIpLWMzW2NIXVtjSF1bY0hdbltjSF0z

>  <s_epik_cmdline>  (245) 
J2VwaWtfcHl0aG9uJywgJy1waHQnLCAnMi4wJywgJy1waCcsICc3LjAnLCAnLXRuJywgJzgnLCAnLW1hJywgJzIwMCcsICctaW1hZScsICc8aW5maWxlLm1hZT4nLCAnLW9tYWUnLCAnPG91dGZpbGUubWFlPic=

>  <r_epik_Ionization_Penalty>  (245) 
0.397

>  <r_epik_Ionization_Penalty_Charging>  (245) 
0

>  <r_epik_Ionization_Penalty_Neutral>  (245) 
0.397

>  <r_epik_State_Penalty>  (245) 
0.395176

>  <r_epik_Charging_Adjusted_Penalty>  (245) 
0.395176

>  <i_epik_Tot_Q>  (245) 
0

>  <i_epik_Tot_abs_Q>  (245) 
0

>  <s_lp_Force_Field>  (245) 
OPLS3e

>  <r_lp_Energy>  (245) 
27.8208

>  <b_lp_Chiralities_Consistent>  (245) 
1

>  <s_lp_Variant>  (245) 
72:0-2

>  <s_i_glide_gridfile>  (245) 
pfpi4k_grid

>  <i_i_glide_lignum>  (245) 
24

>  <i_i_glide_rotatable_bonds>  (245) 
2

>  <r_i_docking_score>  (245) 
-4.35518

>  <r_i_glide_ligand_efficiency>  (245) 
-0.217759

>  <r_i_glide_ligand_efficiency_sa>  (245) 
-0.591089

>  <r_i_glide_ligand_efficiency_ln>  (245) 
-1.08996

>  <r_i_glide_gscore>  (245) 
-4.35518

>  <r_i_glide_lipo>  (245) 
-0.506699

>  <r_i_glide_hbond>  (245) 
-0.32

>  <r_i_glide_metal>  (245) 
-0

>  <r_i_glide_rewards>  (245) 
-1.37465

>  <r_i_glide_evdw>  (245) 
-25.2602

>  <r_i_glide_ecoul>  (245) 
-7.10486

>  <r_i_glide_erotb>  (245) 
0.412208

>  <r_i_glide_esite>  (245) 
-0.237306

>  <r_i_glide_emodel>  (245) 
-41.2412

>  <r_i_glide_energy>  (245) 
-32.365

>  <r_i_glide_einternal>  (245) 
1.13693

>  <r_i_glide_intrahb_reward>  (245) 
-0

>  <i_i_glide_confnum>  (245) 
3

>  <i_i_glide_posenum>  (245) 
37

>  <r_i_glide_eff_state_penalty>  (245) 
0

>  <ligand_id>  (245) 
72

>  <original_smiles>  (245) 
O=C1NC(=S)SC1=Cc1ccc(-c2cccnc2)cc1

>  <smiles>  (245) 
[H]C(=C1SC(=S)N([H])C1=O)c1c([H])c([H])c(-c2c([H])nc([H])c([H])c2[H])c([H])c1[H]

$$$$
72:1:1
     RDKit          3D

 30 32  0  0  1  0  0  0  0  0999 V2000
    1.9881    1.1457    1.5260 O   0  0  0  0  0  0  0  0  0  0  0  0
    1.0669    1.1251    2.3480 C   0  0  0  0  0  0  0  0  0  0  0  0
    0.2381    2.1701    2.5176 N   0  0  0  0  0  0  0  0  0  0  0  0
   -0.7762    2.0877    3.4054 C   0  0  0  0  0  0  0  0  0  0  0  0
   -1.8993    3.2750    3.7211 S   0  0  0  0  0  0  0  0  0  0  0  0
   -0.7308    0.5184    4.1463 S   0  0  0  0  0  0  0  0  0  0  0  0
    0.7147    0.0218    3.2480 C   0  0  0  0  0  0  0  0  0  0  0  0
    1.3542   -1.1629    3.4085 C   0  0  0  0  0  0  0  0  0  0  0  0
    2.6263   -1.6555    2.8414 C   0  0  0  0  0  0  0  0  0  0  0  0
    3.7172   -0.7912    2.6300 C   0  0  0  0  0  0  0  0  0  0  0  0
    4.8682   -1.2484    1.9730 C   0  0  0  0  0  0  0  0  0  0  0  0
    5.0007   -2.5996    1.5892 C   0  0  0  0  0  0  0  0  0  0  0  0
    6.2475   -3.0675    0.9500 C   0  0  0  0  0  0  0  0  0  0  0  0
    6.7093   -4.3889    1.1200 C   0  0  0  0  0  0  0  0  0  0  0  0
    7.9137   -4.7880    0.5133 C   0  0  0  0  0  0  0  0  0  0  0  0
    8.6123   -3.8397   -0.2531 C   0  0  0  0  0  0  0  0  0  0  0  0
    8.2041   -2.5698   -0.4186 N   0  0  0  0  0  0  0  0  0  0  0  0
    7.0499   -2.2057    0.1692 C   0  0  0  0  0  0  0  0  0  0  0  0
    3.9306   -3.4833    1.8586 C   0  0  0  0  0  0  0  0  0  0  0  0
    2.7490   -3.0138    2.4717 C   0  0  0  0  0  0  0  0  0  0  0  0
    0.3260    3.0271    1.9818 H   0  0  0  0  0  0  0  0  0  0  0  0
    0.9042   -1.8499    4.1061 H   0  0  0  0  0  0  0  0  0  0  0  0
    3.6974    0.2396    2.9568 H   0  0  0  0  0  0  0  0  0  0  0  0
    5.6535   -0.5367    1.7765 H   0  0  0  0  0  0  0  0  0  0  0  0
    6.1614   -5.0987    1.7233 H   0  0  0  0  0  0  0  0  0  0  0  0
    8.2787   -5.7969    0.6249 H   0  0  0  0  0  0  0  0  0  0  0  0
    9.5359   -4.1073   -0.7544 H   0  0  0  0  0  0  0  0  0  0  0  0
    6.7736   -1.1794    0.0019 H   0  0  0  0  0  0  0  0  0  0  0  0
    3.9972   -4.5312    1.5973 H   0  0  0  0  0  0  0  0  0  0  0  0
    1.9407   -3.7071    2.6524 H   0  0  0  0  0  0  0  0  0  0  0  0
  1  2  2  0
  2  7  1  0
  2  3  1  0
  3  4  1  0
  3 21  1  0
  4  5  2  0
  4  6  1  0
  6  7  1  0
  7  8  2  3
  8  9  1  0
  8 22  1  0
  9 20  1  0
  9 10  2  0
 10 11  1  0
 10 23  1  0
 11 12  2  0
 11 24  1  0
 12 13  1  0
 12 19  1  0
 13 18  1  0
 13 14  2  0
 14 15  1  0
 14 25  1  0
 15 16  2  0
 15 26  1  0
 16 17  1  0
 16 27  1  0
 17 18  2  0
 18 28  1  0
 19 20  2  0
 19 29  1  0
 20 30  1  0
M  END
>  <i_m_ct_stereo_status>  (246) 
1

>  <s_m_source_file>  (246) 
/var/tmp/pbs.5076255.sched01/tmpthapbt4w/86pc0xbys0.sdf

>  <i_m_source_file_index>  (246) 
24

>  <i_lp_mmshare_version>  (246) 
48012

>  <i_f3d_flags>  (246) 
0

>  <s_epik_input>  (246) 
Tz1DMVtOSF1DKD1TKVNDXDE9W0NIXS9jMltjSF1bY0hdYyhbY0hdW2NIXTIpLWMzW2NIXVtjSF1bY0hdbltjSF0z

>  <s_epik_cmdline>  (246) 
J2VwaWtfcHl0aG9uJywgJy1waHQnLCAnMi4wJywgJy1waCcsICc3LjAnLCAnLXRuJywgJzgnLCAnLW1hJywgJzIwMCcsICctaW1hZScsICc8aW5maWxlLm1hZT4nLCAnLW9tYWUnLCAnPG91dGZpbGUubWFlPic=

>  <r_epik_Ionization_Penalty>  (246) 
0.397

>  <r_epik_Ionization_Penalty_Charging>  (246) 
0

>  <r_epik_Ionization_Penalty_Neutral>  (246) 
0.397

>  <r_epik_State_Penalty>  (246) 
0.395176

>  <r_epik_Charging_Adjusted_Penalty>  (246) 
0.395176

>  <i_epik_Tot_Q>  (246) 
0

>  <i_epik_Tot_abs_Q>  (246) 
0

>  <s_lp_Force_Field>  (246) 
OPLS3e

>  <r_lp_Energy>  (246) 
27.8208

>  <b_lp_Chiralities_Consistent>  (246) 
1

>  <s_lp_Variant>  (246) 
72:0-2

>  <s_i_glide_gridfile>  (246) 
pfpi4k_grid

>  <i_i_glide_lignum>  (246) 
24

>  <i_i_glide_rotatable_bonds>  (246) 
2

>  <r_i_docking_score>  (246) 
-3.98247

>  <r_i_glide_ligand_efficiency>  (246) 
-0.199124

>  <r_i_glide_ligand_efficiency_sa>  (246) 
-0.540504

>  <r_i_glide_ligand_efficiency_ln>  (246) 
-0.996681

>  <r_i_glide_gscore>  (246) 
-3.98247

>  <r_i_glide_lipo>  (246) 
-0.509023

>  <r_i_glide_hbond>  (246) 
-0.189227

>  <r_i_glide_metal>  (246) 
-0

>  <r_i_glide_rewards>  (246) 
-1.37465

>  <r_i_glide_evdw>  (246) 
-27.5267

>  <r_i_glide_ecoul>  (246) 
-4.72074

>  <r_i_glide_erotb>  (246) 
0.412208

>  <r_i_glide_esite>  (246) 
-0.237336

>  <r_i_glide_emodel>  (246) 
-41.0691

>  <r_i_glide_energy>  (246) 
-32.2474

>  <r_i_glide_einternal>  (246) 
0.500988

>  <r_i_glide_intrahb_reward>  (246) 
-0

>  <i_i_glide_confnum>  (246) 
3

>  <i_i_glide_posenum>  (246) 
4

>  <r_i_glide_eff_state_penalty>  (246) 
0

>  <ligand_id>  (246) 
72

>  <original_smiles>  (246) 
O=C1NC(=S)SC1=Cc1ccc(-c2cccnc2)cc1

>  <smiles>  (246) 
[H]C(=C1SC(=S)N([H])C1=O)c1c([H])c([H])c(-c2c([H])nc([H])c([H])c2[H])c([H])c1[H]

$$$$
72:1:2
     RDKit          3D

 30 32  0  0  1  0  0  0  0  0999 V2000
    1.6890   -4.0910   -1.1187 O   0  0  0  0  0  0  0  0  0  0  0  0
    2.5913   -3.3062   -1.3736 C   0  0  0  0  0  0  0  0  0  0  0  0
    2.6243   -2.6494   -2.5452 N   0  0  0  0  0  0  0  0  0  0  0  0
    3.5016   -1.6513   -2.7129 C   0  0  0  0  0  0  0  0  0  0  0  0
    3.5978   -0.6642   -4.0436 S   0  0  0  0  0  0  0  0  0  0  0  0
    4.4961   -1.5283   -1.2970 S   0  0  0  0  0  0  0  0  0  0  0  0
    3.6832   -2.8668   -0.4979 C   0  0  0  0  0  0  0  0  0  0  0  0
    4.0044   -3.3337    0.7331 C   0  0  0  0  0  0  0  0  0  0  0  0
    3.4631   -4.5001    1.4463 C   0  0  0  0  0  0  0  0  0  0  0  0
    3.1734   -5.7110    0.7797 C   0  0  0  0  0  0  0  0  0  0  0  0
    2.5832   -6.7909    1.4647 C   0  0  0  0  0  0  0  0  0  0  0  0
    2.3243   -6.7104    2.8429 C   0  0  0  0  0  0  0  0  0  0  0  0
    1.7378   -7.8766    3.5618 C   0  0  0  0  0  0  0  0  0  0  0  0
    1.9602   -8.0622    4.9395 C   0  0  0  0  0  0  0  0  0  0  0  0
    1.3959   -9.1806    5.5841 C   0  0  0  0  0  0  0  0  0  0  0  0
    0.6472  -10.0868    4.8209 C   0  0  0  0  0  0  0  0  0  0  0  0
    0.4324   -9.9311    3.4977 N   0  0  0  0  0  0  0  0  0  0  0  0
    0.9682   -8.8457    2.8950 C   0  0  0  0  0  0  0  0  0  0  0  0
    2.6484   -5.5128    3.5209 C   0  0  0  0  0  0  0  0  0  0  0  0
    3.2132   -4.4161    2.8287 C   0  0  0  0  0  0  0  0  0  0  0  0
    1.9177   -2.8301   -3.2434 H   0  0  0  0  0  0  0  0  0  0  0  0
    4.8201   -2.8431    1.2420 H   0  0  0  0  0  0  0  0  0  0  0  0
    3.3868   -5.8321   -0.2676 H   0  0  0  0  0  0  0  0  0  0  0  0
    2.3619   -7.6710    0.8788 H   0  0  0  0  0  0  0  0  0  0  0  0
    2.5636   -7.3770    5.5177 H   0  0  0  0  0  0  0  0  0  0  0  0
    1.5499   -9.3499    6.6434 H   0  0  0  0  0  0  0  0  0  0  0  0
    0.2127  -10.9644    5.2794 H   0  0  0  0  0  0  0  0  0  0  0  0
    0.7469   -8.7787    1.8429 H   0  0  0  0  0  0  0  0  0  0  0  0
    2.4710   -5.4031    4.5844 H   0  0  0  0  0  0  0  0  0  0  0  0
    3.4434   -3.5066    3.3760 H   0  0  0  0  0  0  0  0  0  0  0  0
  1  2  2  0
  2  7  1  0
  2  3  1  0
  3  4  1  0
  3 21  1  0
  4  5  2  0
  4  6  1  0
  6  7  1  0
  7  8  2  3
  8  9  1  0
  8 22  1  0
  9 20  1  0
  9 10  2  0
 10 11  1  0
 10 23  1  0
 11 12  2  0
 11 24  1  0
 12 13  1  0
 12 19  1  0
 13 18  1  0
 13 14  2  0
 14 15  1  0
 14 25  1  0
 15 16  2  0
 15 26  1  0
 16 17  1  0
 16 27  1  0
 17 18  2  0
 18 28  1  0
 19 20  2  0
 19 29  1  0
 20 30  1  0
M  END
>  <i_m_ct_stereo_status>  (247) 
1

>  <s_m_source_file>  (247) 
/var/tmp/pbs.5076255.sched01/tmpthapbt4w/86pc0xbys0.sdf

>  <i_m_source_file_index>  (247) 
24

>  <i_lp_mmshare_version>  (247) 
48012

>  <i_f3d_flags>  (247) 
0

>  <s_epik_input>  (247) 
Tz1DMVtOSF1DKD1TKVNDXDE9W0NIXS9jMltjSF1bY0hdYyhbY0hdW2NIXTIpLWMzW2NIXVtjSF1bY0hdbltjSF0z

>  <s_epik_cmdline>  (247) 
J2VwaWtfcHl0aG9uJywgJy1waHQnLCAnMi4wJywgJy1waCcsICc3LjAnLCAnLXRuJywgJzgnLCAnLW1hJywgJzIwMCcsICctaW1hZScsICc8aW5maWxlLm1hZT4nLCAnLW9tYWUnLCAnPG91dGZpbGUubWFlPic=

>  <r_epik_Ionization_Penalty>  (247) 
0.397

>  <r_epik_Ionization_Penalty_Charging>  (247) 
0

>  <r_epik_Ionization_Penalty_Neutral>  (247) 
0.397

>  <r_epik_State_Penalty>  (247) 
0.395176

>  <r_epik_Charging_Adjusted_Penalty>  (247) 
0.395176

>  <i_epik_Tot_Q>  (247) 
0

>  <i_epik_Tot_abs_Q>  (247) 
0

>  <s_lp_Force_Field>  (247) 
OPLS3e

>  <r_lp_Energy>  (247) 
27.8208

>  <b_lp_Chiralities_Consistent>  (247) 
1

>  <s_lp_Variant>  (247) 
72:0-2

>  <s_i_glide_gridfile>  (247) 
pfpi4k_grid

>  <i_i_glide_lignum>  (247) 
24

>  <i_i_glide_rotatable_bonds>  (247) 
2

>  <r_i_docking_score>  (247) 
-3.39507

>  <r_i_glide_ligand_efficiency>  (247) 
-0.169754

>  <r_i_glide_ligand_efficiency_sa>  (247) 
-0.460782

>  <r_i_glide_ligand_efficiency_ln>  (247) 
-0.849675

>  <r_i_glide_gscore>  (247) 
-3.39507

>  <r_i_glide_lipo>  (247) 
-0.0175938

>  <r_i_glide_hbond>  (247) 
-0.00433941

>  <r_i_glide_metal>  (247) 
-0

>  <r_i_glide_rewards>  (247) 
-1.77826

>  <r_i_glide_evdw>  (247) 
-28.3277

>  <r_i_glide_ecoul>  (247) 
-3.47479

>  <r_i_glide_erotb>  (247) 
0.412208

>  <r_i_glide_esite>  (247) 
-0.0694889

>  <r_i_glide_emodel>  (247) 
-39.2023

>  <r_i_glide_energy>  (247) 
-31.8025

>  <r_i_glide_einternal>  (247) 
0.713579

>  <r_i_glide_intrahb_reward>  (247) 
-0

>  <i_i_glide_confnum>  (247) 
3

>  <i_i_glide_posenum>  (247) 
1

>  <r_i_glide_eff_state_penalty>  (247) 
0

>  <ligand_id>  (247) 
72

>  <original_smiles>  (247) 
O=C1NC(=S)SC1=Cc1ccc(-c2cccnc2)cc1

>  <smiles>  (247) 
[H]C(=C1SC(=S)N([H])C1=O)c1c([H])c([H])c(-c2c([H])nc([H])c([H])c2[H])c([H])c1[H]

$$$$
72:2:0
     RDKit          3D

 29 31  0  0  1  0  0  0  0  0999 V2000
    7.2981   -1.6003    0.2320 O   0  0  0  0  0  0  0  0  0  0  0  0
    6.2157   -1.8955   -0.2735 C   0  0  0  0  0  0  0  0  0  0  0  0
    5.9805   -1.8568   -1.6064 N   0  0  0  0  0  0  0  0  0  0  0  0
    4.7167   -2.1907   -1.9302 C   0  0  0  0  0  0  0  0  0  0  0  0
    4.1552   -2.2048   -3.4961 S   0  0  0  0  0  0  0  0  0  0  0  0
    3.7369   -2.5976   -0.5690 S   0  0  0  0  0  0  0  0  0  0  0  0
    5.0754   -2.2920    0.5432 C   0  0  0  0  0  0  0  0  0  0  0  0
    5.1168   -2.4077    1.8877 C   0  0  0  0  0  0  0  0  0  0  0  0
    3.9961   -2.7181    2.7853 C   0  0  0  0  0  0  0  0  0  0  0  0
    2.6872   -2.2553    2.5273 C   0  0  0  0  0  0  0  0  0  0  0  0
    1.6245   -2.5800    3.3887 C   0  0  0  0  0  0  0  0  0  0  0  0
    1.8410   -3.3735    4.5367 C   0  0  0  0  0  0  0  0  0  0  0  0
    0.7247   -3.7097    5.4409 C   0  0  0  0  0  0  0  0  0  0  0  0
    0.6639   -4.9545    6.1036 C   0  0  0  0  0  0  0  0  0  0  0  0
   -0.4240   -5.2360    6.9509 C   0  0  0  0  0  0  0  0  0  0  0  0
   -1.4202   -4.2548    7.1082 C   0  0  0  0  0  0  0  0  0  0  0  0
   -1.3845   -3.0567    6.4845 N   0  0  0  0  0  0  0  0  0  0  0  0
   -0.3307   -2.8009    5.6794 C   0  0  0  0  0  0  0  0  0  0  0  0
    3.1541   -3.8351    4.7955 C   0  0  0  0  0  0  0  0  0  0  0  0
    4.2212   -3.5114    3.9297 C   0  0  0  0  0  0  0  0  0  0  0  0
    6.0494   -2.1783    2.3874 H   0  0  0  0  0  0  0  0  0  0  0  0
    2.4791   -1.6303    1.6732 H   0  0  0  0  0  0  0  0  0  0  0  0
    0.6375   -2.2132    3.1425 H   0  0  0  0  0  0  0  0  0  0  0  0
    1.4360   -5.6969    5.9579 H   0  0  0  0  0  0  0  0  0  0  0  0
   -0.4917   -6.1826    7.4637 H   0  0  0  0  0  0  0  0  0  0  0  0
   -2.2748   -4.4368    7.7469 H   0  0  0  0  0  0  0  0  0  0  0  0
   -0.3498   -1.8336    5.2039 H   0  0  0  0  0  0  0  0  0  0  0  0
    3.3593   -4.4397    5.6689 H   0  0  0  0  0  0  0  0  0  0  0  0
    5.2152   -3.8752    4.1500 H   0  0  0  0  0  0  0  0  0  0  0  0
  1  2  2  0
  2  7  1  0
  2  3  1  0
  3  4  1  0
  4  5  2  0
  4  6  1  0
  6  7  1  0
  7  8  2  3
  8  9  1  0
  8 21  1  0
  9 20  1  0
  9 10  2  0
 10 11  1  0
 10 22  1  0
 11 12  2  0
 11 23  1  0
 12 13  1  0
 12 19  1  0
 13 18  1  0
 13 14  2  0
 14 15  1  0
 14 24  1  0
 15 16  2  0
 15 25  1  0
 16 17  1  0
 16 26  1  0
 17 18  2  0
 18 27  1  0
 19 20  2  0
 19 28  1  0
 20 29  1  0
M  CHG  1   3  -1
M  END
>  <i_m_ct_stereo_status>  (248) 
1

>  <s_m_source_file>  (248) 
/var/tmp/pbs.5076255.sched01/tmpthapbt4w/86pc0xbys0.sdf

>  <i_m_source_file_index>  (248) 
25

>  <i_lp_mmshare_version>  (248) 
48012

>  <i_f3d_flags>  (248) 
0

>  <s_epik_input>  (248) 
Tz1DMVtOSF1DKD1TKVNDXDE9W0NIXS9jMltjSF1bY0hdYyhbY0hdW2NIXTIpLWMzW2NIXVtjSF1bY0hdbltjSF0z

>  <s_epik_cmdline>  (248) 
J2VwaWtfcHl0aG9uJywgJy1waHQnLCAnMi4wJywgJy1waCcsICc3LjAnLCAnLXRuJywgJzgnLCAnLW1hJywgJzIwMCcsICctaW1hZScsICc8aW5maWxlLm1hZT4nLCAnLW9tYWUnLCAnPG91dGZpbGUubWFlPic=

>  <r_epik_Ionization_Penalty>  (248) 
0.429742

>  <r_epik_Ionization_Penalty_Charging>  (248) 
0.427277

>  <r_epik_Ionization_Penalty_Neutral>  (248) 
0.00246476

>  <r_epik_State_Penalty>  (248) 
0.430114

>  <r_epik_Charging_Adjusted_Penalty>  (248) 
0.857391

>  <i_epik_Tot_Q>  (248) 
-1

>  <i_epik_Tot_abs_Q>  (248) 
1

>  <s_lp_Force_Field>  (248) 
OPLS3e

>  <r_lp_Energy>  (248) 
32.4013

>  <b_lp_Chiralities_Consistent>  (248) 
1

>  <s_lp_Variant>  (248) 
72:0-3

>  <s_i_glide_gridfile>  (248) 
pfpi4k_grid

>  <i_i_glide_lignum>  (248) 
25

>  <i_i_glide_rotatable_bonds>  (248) 
2

>  <r_i_docking_score>  (248) 
-3.52082

>  <r_i_glide_ligand_efficiency>  (248) 
-0.176041

>  <r_i_glide_ligand_efficiency_sa>  (248) 
-0.477848

>  <r_i_glide_ligand_efficiency_ln>  (248) 
-0.881144

>  <r_i_glide_gscore>  (248) 
-3.52082

>  <r_i_glide_lipo>  (248) 
-0.183898

>  <r_i_glide_hbond>  (248) 
-0.170835

>  <r_i_glide_metal>  (248) 
-0

>  <r_i_glide_rewards>  (248) 
-1.63899

>  <r_i_glide_evdw>  (248) 
-24.3357

>  <r_i_glide_ecoul>  (248) 
-4.60038

>  <r_i_glide_erotb>  (248) 
0.414655

>  <r_i_glide_esite>  (248) 
-0.0349068

>  <r_i_glide_emodel>  (248) 
-36.8083

>  <r_i_glide_energy>  (248) 
-28.9361

>  <r_i_glide_einternal>  (248) 
0.962121

>  <r_i_glide_intrahb_reward>  (248) 
-0

>  <i_i_glide_confnum>  (248) 
3

>  <i_i_glide_posenum>  (248) 
9

>  <r_i_glide_eff_state_penalty>  (248) 
0

>  <ligand_id>  (248) 
72

>  <original_smiles>  (248) 
O=C1NC(=S)SC1=Cc1ccc(-c2cccnc2)cc1

>  <smiles>  (248) 
[H]C(=C1SC(=S)[N-]C1=O)c1c([H])c([H])c(-c2c([H])nc([H])c([H])c2[H])c([H])c1[H]

$$$$
72:2:1
     RDKit          3D

 29 31  0  0  1  0  0  0  0  0999 V2000
    7.2873   -1.4825    0.2079 O   0  0  0  0  0  0  0  0  0  0  0  0
    6.2165   -1.8436   -0.2773 C   0  0  0  0  0  0  0  0  0  0  0  0
    5.9764   -1.8638   -1.6074 N   0  0  0  0  0  0  0  0  0  0  0  0
    4.7252   -2.2553   -1.9116 C   0  0  0  0  0  0  0  0  0  0  0  0
    4.1728   -2.3510   -3.4774 S   0  0  0  0  0  0  0  0  0  0  0  0
    3.7561   -2.6305   -0.5288 S   0  0  0  0  0  0  0  0  0  0  0  0
    5.0946   -2.2518    0.5601 C   0  0  0  0  0  0  0  0  0  0  0  0
    5.1347   -2.2556    1.9102 C   0  0  0  0  0  0  0  0  0  0  0  0
    4.0721   -2.6941    2.8250 C   0  0  0  0  0  0  0  0  0  0  0  0
    3.2549   -3.8039    2.5280 C   0  0  0  0  0  0  0  0  0  0  0  0
    2.2268   -4.1925    3.4062 C   0  0  0  0  0  0  0  0  0  0  0  0
    1.9869   -3.4757    4.5978 C   0  0  0  0  0  0  0  0  0  0  0  0
    0.9111   -3.8910    5.5114 C   0  0  0  0  0  0  0  0  0  0  0  0
    0.7321   -5.2478    5.8559 C   0  0  0  0  0  0  0  0  0  0  0  0
   -0.3059   -5.6033    6.7348 C   0  0  0  0  0  0  0  0  0  0  0  0
   -1.1384   -4.5886    7.2397 C   0  0  0  0  0  0  0  0  0  0  0  0
   -0.9859   -3.2863    6.9211 N   0  0  0  0  0  0  0  0  0  0  0  0
    0.0189   -2.9566    6.0810 C   0  0  0  0  0  0  0  0  0  0  0  0
    2.8085   -2.3630    4.8958 C   0  0  0  0  0  0  0  0  0  0  0  0
    3.8443   -1.9790    4.0182 C   0  0  0  0  0  0  0  0  0  0  0  0
    6.0589   -1.9666    2.3909 H   0  0  0  0  0  0  0  0  0  0  0  0
    3.4223   -4.3810    1.6329 H   0  0  0  0  0  0  0  0  0  0  0  0
    1.6206   -5.0505    3.1557 H   0  0  0  0  0  0  0  0  0  0  0  0
    1.3877   -6.0098    5.4580 H   0  0  0  0  0  0  0  0  0  0  0  0
   -0.4565   -6.6339    7.0154 H   0  0  0  0  0  0  0  0  0  0  0  0
   -1.9503   -4.8267    7.9121 H   0  0  0  0  0  0  0  0  0  0  0  0
    0.1046   -1.9060    5.8481 H   0  0  0  0  0  0  0  0  0  0  0  0
    2.6502   -1.7979    5.8035 H   0  0  0  0  0  0  0  0  0  0  0  0
    4.4574   -1.1218    4.2596 H   0  0  0  0  0  0  0  0  0  0  0  0
  1  2  2  0
  2  7  1  0
  2  3  1  0
  3  4  1  0
  4  5  2  0
  4  6  1  0
  6  7  1  0
  7  8  2  3
  8  9  1  0
  8 21  1  0
  9 20  1  0
  9 10  2  0
 10 11  1  0
 10 22  1  0
 11 12  2  0
 11 23  1  0
 12 13  1  0
 12 19  1  0
 13 18  1  0
 13 14  2  0
 14 15  1  0
 14 24  1  0
 15 16  2  0
 15 25  1  0
 16 17  1  0
 16 26  1  0
 17 18  2  0
 18 27  1  0
 19 20  2  0
 19 28  1  0
 20 29  1  0
M  CHG  1   3  -1
M  END
>  <i_m_ct_stereo_status>  (249) 
1

>  <s_m_source_file>  (249) 
/var/tmp/pbs.5076255.sched01/tmpthapbt4w/86pc0xbys0.sdf

>  <i_m_source_file_index>  (249) 
25

>  <i_lp_mmshare_version>  (249) 
48012

>  <i_f3d_flags>  (249) 
0

>  <s_epik_input>  (249) 
Tz1DMVtOSF1DKD1TKVNDXDE9W0NIXS9jMltjSF1bY0hdYyhbY0hdW2NIXTIpLWMzW2NIXVtjSF1bY0hdbltjSF0z

>  <s_epik_cmdline>  (249) 
J2VwaWtfcHl0aG9uJywgJy1waHQnLCAnMi4wJywgJy1waCcsICc3LjAnLCAnLXRuJywgJzgnLCAnLW1hJywgJzIwMCcsICctaW1hZScsICc8aW5maWxlLm1hZT4nLCAnLW9tYWUnLCAnPG91dGZpbGUubWFlPic=

>  <r_epik_Ionization_Penalty>  (249) 
0.429742

>  <r_epik_Ionization_Penalty_Charging>  (249) 
0.427277

>  <r_epik_Ionization_Penalty_Neutral>  (249) 
0.00246476

>  <r_epik_State_Penalty>  (249) 
0.430114

>  <r_epik_Charging_Adjusted_Penalty>  (249) 
0.857391

>  <i_epik_Tot_Q>  (249) 
-1

>  <i_epik_Tot_abs_Q>  (249) 
1

>  <s_lp_Force_Field>  (249) 
OPLS3e

>  <r_lp_Energy>  (249) 
32.4013

>  <b_lp_Chiralities_Consistent>  (249) 
1

>  <s_lp_Variant>  (249) 
72:0-3

>  <s_i_glide_gridfile>  (249) 
pfpi4k_grid

>  <i_i_glide_lignum>  (249) 
25

>  <i_i_glide_rotatable_bonds>  (249) 
2

>  <r_i_docking_score>  (249) 
-3.28216

>  <r_i_glide_ligand_efficiency>  (249) 
-0.164108

>  <r_i_glide_ligand_efficiency_sa>  (249) 
-0.445458

>  <r_i_glide_ligand_efficiency_ln>  (249) 
-0.821416

>  <r_i_glide_gscore>  (249) 
-3.28216

>  <r_i_glide_lipo>  (249) 
-0.134503

>  <r_i_glide_hbond>  (249) 
-0.180701

>  <r_i_glide_metal>  (249) 
-0

>  <r_i_glide_rewards>  (249) 
-1.63256

>  <r_i_glide_evdw>  (249) 
-23.5732

>  <r_i_glide_ecoul>  (249) 
-3.56789

>  <r_i_glide_erotb>  (249) 
0.414655

>  <r_i_glide_esite>  (249) 
-0.0352108

>  <r_i_glide_emodel>  (249) 
-34.008

>  <r_i_glide_energy>  (249) 
-27.1411

>  <r_i_glide_einternal>  (249) 
1.85734

>  <r_i_glide_intrahb_reward>  (249) 
-0

>  <i_i_glide_confnum>  (249) 
4

>  <i_i_glide_posenum>  (249) 
6

>  <r_i_glide_eff_state_penalty>  (249) 
0

>  <ligand_id>  (249) 
72

>  <original_smiles>  (249) 
O=C1NC(=S)SC1=Cc1ccc(-c2cccnc2)cc1

>  <smiles>  (249) 
[H]C(=C1SC(=S)[N-]C1=O)c1c([H])c([H])c(-c2c([H])nc([H])c([H])c2[H])c([H])c1[H]

$$$$
72:2:2
     RDKit          3D

 29 31  0  0  1  0  0  0  0  0999 V2000
    7.3064   -1.7206    0.1581 O   0  0  0  0  0  0  0  0  0  0  0  0
    6.1935   -1.9530   -0.3151 C   0  0  0  0  0  0  0  0  0  0  0  0
    5.9146   -1.8472   -1.6354 N   0  0  0  0  0  0  0  0  0  0  0  0
    4.6370   -2.1435   -1.9347 C   0  0  0  0  0  0  0  0  0  0  0  0
    4.0272   -2.0761   -3.4800 S   0  0  0  0  0  0  0  0  0  0  0  0
    3.6931   -2.5990   -0.5643 S   0  0  0  0  0  0  0  0  0  0  0  0
    5.0643   -2.3501    0.5233 C   0  0  0  0  0  0  0  0  0  0  0  0
    5.1490   -2.5040    1.8629 C   0  0  0  0  0  0  0  0  0  0  0  0
    4.0844   -2.8429    2.8196 C   0  0  0  0  0  0  0  0  0  0  0  0
    4.4469   -3.4569    4.0339 C   0  0  0  0  0  0  0  0  0  0  0  0
    3.4666   -3.8233    4.9775 C   0  0  0  0  0  0  0  0  0  0  0  0
    2.0935   -3.5945    4.7237 C   0  0  0  0  0  0  0  0  0  0  0  0
    1.0600   -3.9660    5.7088 C   0  0  0  0  0  0  0  0  0  0  0  0
   -0.1370   -3.2270    5.8318 C   0  0  0  0  0  0  0  0  0  0  0  0
   -1.0986   -3.6155    6.7810 C   0  0  0  0  0  0  0  0  0  0  0  0
   -0.8307   -4.7387    7.5830 C   0  0  0  0  0  0  0  0  0  0  0  0
    0.3026   -5.4564    7.4857 N   0  0  0  0  0  0  0  0  0  0  0  0
    1.2178   -5.0748    6.5709 C   0  0  0  0  0  0  0  0  0  0  0  0
    1.7376   -2.9833    3.5030 C   0  0  0  0  0  0  0  0  0  0  0  0
    2.7166   -2.6066    2.5683 C   0  0  0  0  0  0  0  0  0  0  0  0
    6.1094   -2.3138    2.3188 H   0  0  0  0  0  0  0  0  0  0  0  0
    5.4854   -3.6489    4.2592 H   0  0  0  0  0  0  0  0  0  0  0  0
    3.7839   -4.2781    5.9042 H   0  0  0  0  0  0  0  0  0  0  0  0
   -0.3287   -2.3696    5.2030 H   0  0  0  0  0  0  0  0  0  0  0  0
   -2.0277   -3.0803    6.8739 H   0  0  0  0  0  0  0  0  0  0  0  0
   -1.5483   -5.0738    8.3172 H   0  0  0  0  0  0  0  0  0  0  0  0
    2.1060   -5.6846    6.5275 H   0  0  0  0  0  0  0  0  0  0  0  0
    0.7046   -2.7884    3.2564 H   0  0  0  0  0  0  0  0  0  0  0  0
    2.3798   -2.1158    1.6723 H   0  0  0  0  0  0  0  0  0  0  0  0
  1  2  2  0
  2  7  1  0
  2  3  1  0
  3  4  1  0
  4  5  2  0
  4  6  1  0
  6  7  1  0
  7  8  2  3
  8  9  1  0
  8 21  1  0
  9 20  1  0
  9 10  2  0
 10 11  1  0
 10 22  1  0
 11 12  2  0
 11 23  1  0
 12 13  1  0
 12 19  1  0
 13 18  1  0
 13 14  2  0
 14 15  1  0
 14 24  1  0
 15 16  2  0
 15 25  1  0
 16 17  1  0
 16 26  1  0
 17 18  2  0
 18 27  1  0
 19 20  2  0
 19 28  1  0
 20 29  1  0
M  CHG  1   3  -1
M  END
>  <i_m_ct_stereo_status>  (250) 
1

>  <s_m_source_file>  (250) 
/var/tmp/pbs.5076255.sched01/tmpthapbt4w/86pc0xbys0.sdf

>  <i_m_source_file_index>  (250) 
25

>  <i_lp_mmshare_version>  (250) 
48012

>  <i_f3d_flags>  (250) 
0

>  <s_epik_input>  (250) 
Tz1DMVtOSF1DKD1TKVNDXDE9W0NIXS9jMltjSF1bY0hdYyhbY0hdW2NIXTIpLWMzW2NIXVtjSF1bY0hdbltjSF0z

>  <s_epik_cmdline>  (250) 
J2VwaWtfcHl0aG9uJywgJy1waHQnLCAnMi4wJywgJy1waCcsICc3LjAnLCAnLXRuJywgJzgnLCAnLW1hJywgJzIwMCcsICctaW1hZScsICc8aW5maWxlLm1hZT4nLCAnLW9tYWUnLCAnPG91dGZpbGUubWFlPic=

>  <r_epik_Ionization_Penalty>  (250) 
0.429742

>  <r_epik_Ionization_Penalty_Charging>  (250) 
0.427277

>  <r_epik_Ionization_Penalty_Neutral>  (250) 
0.00246476

>  <r_epik_State_Penalty>  (250) 
0.430114

>  <r_epik_Charging_Adjusted_Penalty>  (250) 
0.857391

>  <i_epik_Tot_Q>  (250) 
-1

>  <i_epik_Tot_abs_Q>  (250) 
1

>  <s_lp_Force_Field>  (250) 
OPLS3e

>  <r_lp_Energy>  (250) 
32.4013

>  <b_lp_Chiralities_Consistent>  (250) 
1

>  <s_lp_Variant>  (250) 
72:0-3

>  <s_i_glide_gridfile>  (250) 
pfpi4k_grid

>  <i_i_glide_lignum>  (250) 
25

>  <i_i_glide_rotatable_bonds>  (250) 
2

>  <r_i_docking_score>  (250) 
-3.21052

>  <r_i_glide_ligand_efficiency>  (250) 
-0.160526

>  <r_i_glide_ligand_efficiency_sa>  (250) 
-0.435735

>  <r_i_glide_ligand_efficiency_ln>  (250) 
-0.803487

>  <r_i_glide_gscore>  (250) 
-3.21052

>  <r_i_glide_lipo>  (250) 
-0.115104

>  <r_i_glide_hbond>  (250) 
-0.157086

>  <r_i_glide_metal>  (250) 
-0

>  <r_i_glide_rewards>  (250) 
-1.64705

>  <r_i_glide_evdw>  (250) 
-24.247

>  <r_i_glide_ecoul>  (250) 
-3.04103

>  <r_i_glide_erotb>  (250) 
0.414655

>  <r_i_glide_esite>  (250) 
-0.0374363

>  <r_i_glide_emodel>  (250) 
-34.8386

>  <r_i_glide_energy>  (250) 
-27.288

>  <r_i_glide_einternal>  (250) 
0.120363

>  <r_i_glide_intrahb_reward>  (250) 
-0

>  <i_i_glide_confnum>  (250) 
6

>  <i_i_glide_posenum>  (250) 
31

>  <r_i_glide_eff_state_penalty>  (250) 
0

>  <ligand_id>  (250) 
72

>  <original_smiles>  (250) 
O=C1NC(=S)SC1=Cc1ccc(-c2cccnc2)cc1

>  <smiles>  (250) 
[H]C(=C1SC(=S)[N-]C1=O)c1c([H])c([H])c(-c2c([H])nc([H])c([H])c2[H])c([H])c1[H]

$$$$
72:3:0
     RDKit          3D

 29 31  0  0  1  0  0  0  0  0999 V2000
    5.8211    1.0358    5.8236 O   0  0  0  0  0  0  0  0  0  0  0  0
    6.6566    1.6642    6.4667 C   0  0  0  0  0  0  0  0  0  0  0  0
    7.6904    1.0319    7.0531 N   0  0  0  0  0  0  0  0  0  0  0  0
    8.6517    1.8528    7.5055 C   0  0  0  0  0  0  0  0  0  0  0  0
   10.0870    1.3082    8.1651 S   0  0  0  0  0  0  0  0  0  0  0  0
    8.2578    3.5206    7.2744 S   0  0  0  0  0  0  0  0  0  0  0  0
    6.6846    3.1375    6.5636 C   0  0  0  0  0  0  0  0  0  0  0  0
    5.7589    4.0569    6.2159 C   0  0  0  0  0  0  0  0  0  0  0  0
    4.3654    3.9443    5.7374 C   0  0  0  0  0  0  0  0  0  0  0  0
    3.8136    4.9720    4.9398 C   0  0  0  0  0  0  0  0  0  0  0  0
    2.4970    4.8595    4.4116 C   0  0  0  0  0  0  0  0  0  0  0  0
    1.7473    3.6820    4.6429 C   0  0  0  0  0  0  0  0  0  0  0  0
    0.3841    3.5244    4.1180 C   0  0  0  0  0  0  0  0  0  0  0  0
   -0.0807    2.2863    3.6319 C   0  0  0  0  0  0  0  0  0  0  0  0
   -1.3998    2.1844    3.1575 C   0  0  0  0  0  0  0  0  0  0  0  0
   -2.2117    3.3360    3.1916 C   0  0  0  0  0  0  0  0  0  0  0  0
   -1.8001    4.5255    3.6694 N   0  0  0  0  0  0  0  0  0  0  0  0
   -0.5261    4.6050    4.1178 C   0  0  0  0  0  0  0  0  0  0  0  0
    2.2953    2.6682    5.4450 C   0  0  0  0  0  0  0  0  0  0  0  0
    3.5543    2.8297    6.0350 C   0  0  0  0  0  0  0  0  0  0  0  0
    6.0670    5.0726    6.3565 H   0  0  0  0  0  0  0  0  0  0  0  0
    4.3730    5.8792    4.7182 H   0  0  0  0  0  0  0  0  0  0  0  0
    2.0726    5.6791    3.8251 H   0  0  0  0  0  0  0  0  0  0  0  0
    0.5708    1.4227    3.6183 H   0  0  0  0  0  0  0  0  0  0  0  0
   -1.7750    1.2557    2.7546 H   0  0  0  0  0  0  0  0  0  0  0  0
   -3.2200    3.2985    2.8148 H   0  0  0  0  0  0  0  0  0  0  0  0
   -0.2278    5.5689    4.5071 H   0  0  0  0  0  0  0  0  0  0  0  0
    1.7544    1.7596    5.6398 H   0  0  0  0  0  0  0  0  0  0  0  0
    3.8658    2.0597    6.7142 H   0  0  0  0  0  0  0  0  0  0  0  0
  1  2  2  0
  2  7  1  0
  2  3  1  0
  3  4  1  0
  4  5  2  0
  4  6  1  0
  6  7  1  0
  7  8  2  3
  8  9  1  0
  8 21  1  0
  9 20  1  0
  9 10  2  0
 10 11  1  0
 10 22  1  0
 11 12  2  0
 11 23  1  0
 12 13  1  0
 12 19  1  0
 13 18  1  0
 13 14  2  0
 14 15  1  0
 14 24  1  0
 15 16  2  0
 15 25  1  0
 16 17  1  0
 16 26  1  0
 17 18  2  0
 18 27  1  0
 19 20  2  0
 19 28  1  0
 20 29  1  0
M  CHG  1   3  -1
M  END
>  <i_m_ct_stereo_status>  (251) 
1

>  <s_m_source_file>  (251) 
/var/tmp/pbs.5076255.sched01/tmpthapbt4w/86pc0xbys0.sdf

>  <i_m_source_file_index>  (251) 
26

>  <i_lp_mmshare_version>  (251) 
48012

>  <i_f3d_flags>  (251) 
0

>  <s_epik_input>  (251) 
Tz1DMVtOSF1DKD1TKVNDXDE9W0NIXS9jMltjSF1bY0hdYyhbY0hdW2NIXTIpLWMzW2NIXVtjSF1bY0hdbltjSF0z

>  <s_epik_cmdline>  (251) 
J2VwaWtfcHl0aG9uJywgJy1waHQnLCAnMi4wJywgJy1waCcsICc3LjAnLCAnLXRuJywgJzgnLCAnLW1hJywgJzIwMCcsICctaW1hZScsICc8aW5maWxlLm1hZT4nLCAnLW9tYWUnLCAnPG91dGZpbGUubWFlPic=

>  <r_epik_Ionization_Penalty>  (251) 
0.429742

>  <r_epik_Ionization_Penalty_Charging>  (251) 
0.427277

>  <r_epik_Ionization_Penalty_Neutral>  (251) 
0.00246476

>  <r_epik_State_Penalty>  (251) 
0.430114

>  <r_epik_Charging_Adjusted_Penalty>  (251) 
0.857391

>  <i_epik_Tot_Q>  (251) 
-1

>  <i_epik_Tot_abs_Q>  (251) 
1

>  <s_lp_Force_Field>  (251) 
OPLS3e

>  <r_lp_Energy>  (251) 
35.8139

>  <b_lp_Chiralities_Consistent>  (251) 
1

>  <s_lp_Variant>  (251) 
72:0-4

>  <s_i_glide_gridfile>  (251) 
pfpi4k_grid

>  <i_i_glide_lignum>  (251) 
26

>  <i_i_glide_rotatable_bonds>  (251) 
2

>  <r_i_docking_score>  (251) 
-3.03965

>  <r_i_glide_ligand_efficiency>  (251) 
-0.151982

>  <r_i_glide_ligand_efficiency_sa>  (251) 
-0.412544

>  <r_i_glide_ligand_efficiency_ln>  (251) 
-0.760724

>  <r_i_glide_gscore>  (251) 
-3.03965

>  <r_i_glide_lipo>  (251) 
-0.0754856

>  <r_i_glide_hbond>  (251) 
-0.16

>  <r_i_glide_metal>  (251) 
-0

>  <r_i_glide_rewards>  (251) 
-1.75638

>  <r_i_glide_evdw>  (251) 
-21.4743

>  <r_i_glide_ecoul>  (251) 
-2.59146

>  <r_i_glide_erotb>  (251) 
0.414655

>  <r_i_glide_esite>  (251) 
0

>  <r_i_glide_emodel>  (251) 
-29.9015

>  <r_i_glide_energy>  (251) 
-24.0658

>  <r_i_glide_einternal>  (251) 
0.290429

>  <r_i_glide_intrahb_reward>  (251) 
-0

>  <i_i_glide_confnum>  (251) 
5

>  <i_i_glide_posenum>  (251) 
4

>  <r_i_glide_eff_state_penalty>  (251) 
0

>  <ligand_id>  (251) 
72

>  <original_smiles>  (251) 
O=C1NC(=S)SC1=Cc1ccc(-c2cccnc2)cc1

>  <smiles>  (251) 
[H]C(=C1SC(=S)[N-]C1=O)c1c([H])c([H])c(-c2c([H])nc([H])c([H])c2[H])c([H])c1[H]

$$$$
72:3:1
     RDKit          3D

 29 31  0  0  1  0  0  0  0  0999 V2000
   -0.8375   -3.1738    6.2802 O   0  0  0  0  0  0  0  0  0  0  0  0
   -0.3389   -2.0576    6.1459 C   0  0  0  0  0  0  0  0  0  0  0  0
   -1.0170   -0.9297    6.4371 N   0  0  0  0  0  0  0  0  0  0  0  0
   -0.3045    0.1911    6.3731 C   0  0  0  0  0  0  0  0  0  0  0  0
   -0.9599    1.6646    6.7828 S   0  0  0  0  0  0  0  0  0  0  0  0
    1.3324   -0.0869    5.8789 S   0  0  0  0  0  0  0  0  0  0  0  0
    1.0427   -1.8256    5.7204 C   0  0  0  0  0  0  0  0  0  0  0  0
    1.9622   -2.7296    5.2959 C   0  0  0  0  0  0  0  0  0  0  0  0
    1.8282   -4.1619    4.9987 C   0  0  0  0  0  0  0  0  0  0  0  0
    0.6369   -4.6877    4.4634 C   0  0  0  0  0  0  0  0  0  0  0  0
    0.4823   -6.0680    4.2842 C   0  0  0  0  0  0  0  0  0  0  0  0
    1.5421   -6.9598    4.5514 C   0  0  0  0  0  0  0  0  0  0  0  0
    1.3731   -8.4007    4.3073 C   0  0  0  0  0  0  0  0  0  0  0  0
    1.9593   -9.3635    5.1527 C   0  0  0  0  0  0  0  0  0  0  0  0
    1.7827  -10.7287    4.8790 C   0  0  0  0  0  0  0  0  0  0  0  0
    1.0156  -11.0943    3.7578 C   0  0  0  0  0  0  0  0  0  0  0  0
    0.4426  -10.1924    2.9339 N   0  0  0  0  0  0  0  0  0  0  0  0
    0.6195   -8.8876    3.2114 C   0  0  0  0  0  0  0  0  0  0  0  0
    2.7581   -6.4289    5.0399 C   0  0  0  0  0  0  0  0  0  0  0  0
    2.8978   -5.0446    5.2721 C   0  0  0  0  0  0  0  0  0  0  0  0
    2.9263   -2.3242    5.0814 H   0  0  0  0  0  0  0  0  0  0  0  0
   -0.1834   -4.0317    4.2078 H   0  0  0  0  0  0  0  0  0  0  0  0
   -0.4668   -6.4456    3.9465 H   0  0  0  0  0  0  0  0  0  0  0  0
    2.5354   -9.0570    6.0145 H   0  0  0  0  0  0  0  0  0  0  0  0
    2.2122  -11.4812    5.5277 H   0  0  0  0  0  0  0  0  0  0  0  0
    0.8487  -12.1341    3.5199 H   0  0  0  0  0  0  0  0  0  0  0  0
    0.1433   -8.2048    2.5260 H   0  0  0  0  0  0  0  0  0  0  0  0
    3.5994   -7.0861    5.2367 H   0  0  0  0  0  0  0  0  0  0  0  0
    3.8363   -4.6681    5.6602 H   0  0  0  0  0  0  0  0  0  0  0  0
  1  2  2  0
  2  7  1  0
  2  3  1  0
  3  4  1  0
  4  5  2  0
  4  6  1  0
  6  7  1  0
  7  8  2  3
  8  9  1  0
  8 21  1  0
  9 20  1  0
  9 10  2  0
 10 11  1  0
 10 22  1  0
 11 12  2  0
 11 23  1  0
 12 13  1  0
 12 19  1  0
 13 18  1  0
 13 14  2  0
 14 15  1  0
 14 24  1  0
 15 16  2  0
 15 25  1  0
 16 17  1  0
 16 26  1  0
 17 18  2  0
 18 27  1  0
 19 20  2  0
 19 28  1  0
 20 29  1  0
M  CHG  1   3  -1
M  END
>  <i_m_ct_stereo_status>  (252) 
1

>  <s_m_source_file>  (252) 
/var/tmp/pbs.5076255.sched01/tmpthapbt4w/86pc0xbys0.sdf

>  <i_m_source_file_index>  (252) 
26

>  <i_lp_mmshare_version>  (252) 
48012

>  <i_f3d_flags>  (252) 
0

>  <s_epik_input>  (252) 
Tz1DMVtOSF1DKD1TKVNDXDE9W0NIXS9jMltjSF1bY0hdYyhbY0hdW2NIXTIpLWMzW2NIXVtjSF1bY0hdbltjSF0z

>  <s_epik_cmdline>  (252) 
J2VwaWtfcHl0aG9uJywgJy1waHQnLCAnMi4wJywgJy1waCcsICc3LjAnLCAnLXRuJywgJzgnLCAnLW1hJywgJzIwMCcsICctaW1hZScsICc8aW5maWxlLm1hZT4nLCAnLW9tYWUnLCAnPG91dGZpbGUubWFlPic=

>  <r_epik_Ionization_Penalty>  (252) 
0.429742

>  <r_epik_Ionization_Penalty_Charging>  (252) 
0.427277

>  <r_epik_Ionization_Penalty_Neutral>  (252) 
0.00246476

>  <r_epik_State_Penalty>  (252) 
0.430114

>  <r_epik_Charging_Adjusted_Penalty>  (252) 
0.857391

>  <i_epik_Tot_Q>  (252) 
-1

>  <i_epik_Tot_abs_Q>  (252) 
1

>  <s_lp_Force_Field>  (252) 
OPLS3e

>  <r_lp_Energy>  (252) 
35.8139

>  <b_lp_Chiralities_Consistent>  (252) 
1

>  <s_lp_Variant>  (252) 
72:0-4

>  <s_i_glide_gridfile>  (252) 
pfpi4k_grid

>  <i_i_glide_lignum>  (252) 
26

>  <i_i_glide_rotatable_bonds>  (252) 
2

>  <r_i_docking_score>  (252) 
-2.67847

>  <r_i_glide_ligand_efficiency>  (252) 
-0.133924

>  <r_i_glide_ligand_efficiency_sa>  (252) 
-0.363524

>  <r_i_glide_ligand_efficiency_ln>  (252) 
-0.670333

>  <r_i_glide_gscore>  (252) 
-2.67847

>  <r_i_glide_lipo>  (252) 
-0.154266

>  <r_i_glide_hbond>  (252) 
-0.0662799

>  <r_i_glide_metal>  (252) 
-0

>  <r_i_glide_rewards>  (252) 
-1.38152

>  <r_i_glide_evdw>  (252) 
-17.8217

>  <r_i_glide_ecoul>  (252) 
-3.42795

>  <r_i_glide_erotb>  (252) 
0.414655

>  <r_i_glide_esite>  (252) 
-0.0857792

>  <r_i_glide_emodel>  (252) 
-26.3213

>  <r_i_glide_energy>  (252) 
-21.2497

>  <r_i_glide_einternal>  (252) 
0.663865

>  <r_i_glide_intrahb_reward>  (252) 
-0

>  <i_i_glide_confnum>  (252) 
3

>  <i_i_glide_posenum>  (252) 
1

>  <r_i_glide_eff_state_penalty>  (252) 
0

>  <ligand_id>  (252) 
72

>  <original_smiles>  (252) 
O=C1NC(=S)SC1=Cc1ccc(-c2cccnc2)cc1

>  <smiles>  (252) 
[H]C(=C1SC(=S)[N-]C1=O)c1c([H])c([H])c(-c2c([H])nc([H])c([H])c2[H])c([H])c1[H]

$$$$
72:3:2
     RDKit          3D

 29 31  0  0  1  0  0  0  0  0999 V2000
    1.7917   -2.5948    2.8220 O   0  0  0  0  0  0  0  0  0  0  0  0
    2.6472   -2.4228    1.9702 C   0  0  0  0  0  0  0  0  0  0  0  0
    3.3802   -3.4587    1.4782 N   0  0  0  0  0  0  0  0  0  0  0  0
    4.1544   -3.1093    0.4201 C   0  0  0  0  0  0  0  0  0  0  0  0
    5.0785   -4.2211   -0.3788 S   0  0  0  0  0  0  0  0  0  0  0  0
    4.0476   -1.4291    0.0129 S   0  0  0  0  0  0  0  0  0  0  0  0
    2.9369   -1.1264    1.3441 C   0  0  0  0  0  0  0  0  0  0  0  0
    2.4474    0.1052    1.6543 C   0  0  0  0  0  0  0  0  0  0  0  0
    1.6192    0.5735    2.7785 C   0  0  0  0  0  0  0  0  0  0  0  0
    0.7384    1.6624    2.5850 C   0  0  0  0  0  0  0  0  0  0  0  0
   -0.0952    2.1036    3.6272 C   0  0  0  0  0  0  0  0  0  0  0  0
   -0.1060    1.4407    4.8855 C   0  0  0  0  0  0  0  0  0  0  0  0
   -0.9552    1.8705    5.9958 C   0  0  0  0  0  0  0  0  0  0  0  0
   -0.6023    1.6411    7.3513 C   0  0  0  0  0  0  0  0  0  0  0  0
   -1.4487    2.0700    8.3815 C   0  0  0  0  0  0  0  0  0  0  0  0
   -2.6340    2.7523    8.0246 C   0  0  0  0  0  0  0  0  0  0  0  0
   -2.9860    2.9878    6.7489 N   0  0  0  0  0  0  0  0  0  0  0  0
   -2.1780    2.5612    5.7710 C   0  0  0  0  0  0  0  0  0  0  0  0
    0.7788    0.3445    5.0567 C   0  0  0  0  0  0  0  0  0  0  0  0
    1.6602   -0.0416    4.0470 C   0  0  0  0  0  0  0  0  0  0  0  0
    2.7693    0.9046    1.0032 H   0  0  0  0  0  0  0  0  0  0  0  0
    0.7088    2.1849    1.6381 H   0  0  0  0  0  0  0  0  0  0  0  0
   -0.7189    2.9712    3.4576 H   0  0  0  0  0  0  0  0  0  0  0  0
    0.3196    1.1381    7.6073 H   0  0  0  0  0  0  0  0  0  0  0  0
   -1.1990    1.9111    9.4176 H   0  0  0  0  0  0  0  0  0  0  0  0
   -3.3142    3.1065    8.7837 H   0  0  0  0  0  0  0  0  0  0  0  0
   -2.5114    2.7605    4.7651 H   0  0  0  0  0  0  0  0  0  0  0  0
    0.8024   -0.2119    5.9820 H   0  0  0  0  0  0  0  0  0  0  0  0
    2.3579   -0.8346    4.2646 H   0  0  0  0  0  0  0  0  0  0  0  0
  1  2  2  0
  2  7  1  0
  2  3  1  0
  3  4  1  0
  4  5  2  0
  4  6  1  0
  6  7  1  0
  7  8  2  3
  8  9  1  0
  8 21  1  0
  9 20  1  0
  9 10  2  0
 10 11  1  0
 10 22  1  0
 11 12  2  0
 11 23  1  0
 12 13  1  0
 12 19  1  0
 13 18  1  0
 13 14  2  0
 14 15  1  0
 14 24  1  0
 15 16  2  0
 15 25  1  0
 16 17  1  0
 16 26  1  0
 17 18  2  0
 18 27  1  0
 19 20  2  0
 19 28  1  0
 20 29  1  0
M  CHG  1   3  -1
M  END
>  <i_m_ct_stereo_status>  (253) 
1

>  <s_m_source_file>  (253) 
/var/tmp/pbs.5076255.sched01/tmpthapbt4w/86pc0xbys0.sdf

>  <i_m_source_file_index>  (253) 
26

>  <i_lp_mmshare_version>  (253) 
48012

>  <i_f3d_flags>  (253) 
0

>  <s_epik_input>  (253) 
Tz1DMVtOSF1DKD1TKVNDXDE9W0NIXS9jMltjSF1bY0hdYyhbY0hdW2NIXTIpLWMzW2NIXVtjSF1bY0hdbltjSF0z

>  <s_epik_cmdline>  (253) 
J2VwaWtfcHl0aG9uJywgJy1waHQnLCAnMi4wJywgJy1waCcsICc3LjAnLCAnLXRuJywgJzgnLCAnLW1hJywgJzIwMCcsICctaW1hZScsICc8aW5maWxlLm1hZT4nLCAnLW9tYWUnLCAnPG91dGZpbGUubWFlPic=

>  <r_epik_Ionization_Penalty>  (253) 
0.429742

>  <r_epik_Ionization_Penalty_Charging>  (253) 
0.427277

>  <r_epik_Ionization_Penalty_Neutral>  (253) 
0.00246476

>  <r_epik_State_Penalty>  (253) 
0.430114

>  <r_epik_Charging_Adjusted_Penalty>  (253) 
0.857391

>  <i_epik_Tot_Q>  (253) 
-1

>  <i_epik_Tot_abs_Q>  (253) 
1

>  <s_lp_Force_Field>  (253) 
OPLS3e

>  <r_lp_Energy>  (253) 
35.8139

>  <b_lp_Chiralities_Consistent>  (253) 
1

>  <s_lp_Variant>  (253) 
72:0-4

>  <s_i_glide_gridfile>  (253) 
pfpi4k_grid

>  <i_i_glide_lignum>  (253) 
26

>  <i_i_glide_rotatable_bonds>  (253) 
2

>  <r_i_docking_score>  (253) 
-2.13602

>  <r_i_glide_ligand_efficiency>  (253) 
-0.106801

>  <r_i_glide_ligand_efficiency_sa>  (253) 
-0.289903

>  <r_i_glide_ligand_efficiency_ln>  (253) 
-0.534575

>  <r_i_glide_gscore>  (253) 
-2.13602

>  <r_i_glide_lipo>  (253) 
-0.155492

>  <r_i_glide_hbond>  (253) 
0

>  <r_i_glide_metal>  (253) 
-0

>  <r_i_glide_rewards>  (253) 
-1.47888

>  <r_i_glide_evdw>  (253) 
-23.7091

>  <r_i_glide_ecoul>  (253) 
1.89739

>  <r_i_glide_erotb>  (253) 
0.414655

>  <r_i_glide_esite>  (253) 
-0.0154599

>  <r_i_glide_emodel>  (253) 
-26.0317

>  <r_i_glide_energy>  (253) 
-21.8117

>  <r_i_glide_einternal>  (253) 
0.0533807

>  <r_i_glide_intrahb_reward>  (253) 
-0

>  <i_i_glide_confnum>  (253) 
5

>  <i_i_glide_posenum>  (253) 
2

>  <r_i_glide_eff_state_penalty>  (253) 
0

>  <ligand_id>  (253) 
72

>  <original_smiles>  (253) 
O=C1NC(=S)SC1=Cc1ccc(-c2cccnc2)cc1

>  <smiles>  (253) 
[H]C(=C1SC(=S)[N-]C1=O)c1c([H])c([H])c(-c2c([H])nc([H])c([H])c2[H])c([H])c1[H]

$$$$
74:0:0
     RDKit          3D

 42 46  0  0  1  0  0  0  0  0999 V2000
    3.9785   -1.5596   -3.1524 C   0  0  0  0  0  0  0  0  0  0  0  0
    3.8923   -2.0910   -1.6979 C   0  0  2  0  0  0  0  0  0  0  0  0
    5.0240   -1.7381   -0.7320 C   0  0  2  0  0  0  0  0  0  0  0  0
    6.1390   -2.5783   -1.3612 C   0  0  0  0  0  0  0  0  0  0  0  0
    7.3299   -2.2675   -1.4129 O   0  0  0  0  0  0  0  0  0  0  0  0
    5.5320   -3.6679   -1.8100 O   0  0  0  0  0  0  0  0  0  0  0  0
    4.1350   -3.6010   -1.5204 C   0  0  1  0  0  0  0  0  0  0  0  0
    3.9566   -3.7939    0.0253 C   0  0  2  0  0  0  0  0  0  0  0  0
    4.6482   -5.0627    0.6159 C   0  0  0  0  0  0  0  0  0  0  0  0
    3.7422   -6.2481    0.9725 C   0  0  0  0  0  0  0  0  0  0  0  0
    2.2948   -5.8574    1.3046 C   0  0  2  0  0  0  0  0  0  0  0  0
    1.3821   -7.0919    1.4116 C   0  0  0  0  0  0  0  0  0  0  0  0
    1.9782   -5.1066    0.1659 O   0  0  0  0  0  0  0  0  0  0  0  0
    2.5865   -3.7619    0.3642 O   0  0  0  0  0  0  0  0  0  0  0  0
    2.0669   -5.1219    2.5078 O   0  0  0  0  0  0  0  0  0  0  0  0
    3.1490   -4.8816    3.4004 C   0  0  2  0  0  0  0  0  0  0  0  0
    2.8334   -3.9687    4.4465 O   0  0  0  0  0  0  0  0  0  0  0  0
    3.6394   -3.4516    3.3880 C   0  0  1  0  0  0  0  0  0  0  0  0
    5.0160   -3.3550    3.6796 O   0  0  0  0  0  0  0  0  0  0  0  0
    3.0018   -2.2363    2.7045 C   0  0  0  0  0  0  0  0  0  0  0  0
    3.7727   -1.5841    1.5225 C   0  0  0  0  0  0  0  0  0  0  0  0
    4.6118   -2.4713    0.5675 C   0  0  2  0  0  0  0  0  0  0  0  0
    4.8968   -1.8376   -3.6712 H   0  0  0  0  0  0  0  0  0  0  0  0
    3.9051   -0.4726   -3.1702 H   0  0  0  0  0  0  0  0  0  0  0  0
    3.1499   -1.9502   -3.7438 H   0  0  0  0  0  0  0  0  0  0  0  0
    2.9235   -1.8059   -1.2874 H   0  0  0  0  0  0  0  0  0  0  0  0
    5.2582   -0.6847   -0.6376 H   0  0  0  0  0  0  0  0  0  0  0  0
    3.5274   -4.2285   -2.1596 H   0  0  0  0  0  0  0  0  0  0  0  0
    5.4143   -5.4331   -0.0657 H   0  0  0  0  0  0  0  0  0  0  0  0
    5.1929   -4.8063    1.5175 H   0  0  0  0  0  0  0  0  0  0  0  0
    3.6950   -6.8848    0.0957 H   0  0  0  0  0  0  0  0  0  0  0  0
    4.1826   -6.8607    1.7594 H   0  0  0  0  0  0  0  0  0  0  0  0
    0.3442   -6.8275    1.6109 H   0  0  0  0  0  0  0  0  0  0  0  0
    1.7196   -7.7467    2.2176 H   0  0  0  0  0  0  0  0  0  0  0  0
    1.3963   -7.6651    0.4934 H   0  0  0  0  0  0  0  0  0  0  0  0
    3.7468   -5.7333    3.7343 H   0  0  0  0  0  0  0  0  0  0  0  0
    5.1953   -2.5002    4.0366 H   0  0  0  0  0  0  0  0  0  0  0  0
    1.9897   -2.4966    2.3876 H   0  0  0  0  0  0  0  0  0  0  0  0
    2.8365   -1.4700    3.4648 H   0  0  0  0  0  0  0  0  0  0  0  0
    3.0557   -0.9830    0.9507 H   0  0  0  0  0  0  0  0  0  0  0  0
    4.4611   -0.8609    1.9559 H   0  0  0  0  0  0  0  0  0  0  0  0
    5.5281   -2.7263    1.0998 H   0  0  0  0  0  0  0  0  0  0  0  0
  1  2  1  0
  1 23  1  0
  1 24  1  0
  1 25  1  0
  2  7  1  0
  2  3  1  0
  2 26  1  1
  3 22  1  0
  3  4  1  0
  3 27  1  1
  4  5  2  0
  4  6  1  0
  6  7  1  0
  7  8  1  0
  7 28  1  6
  8 14  1  6
  8 22  1  0
  8  9  1  0
  9 10  1  0
  9 29  1  0
  9 30  1  0
 10 11  1  0
 10 31  1  0
 10 32  1  0
 11 12  1  1
 11 13  1  0
 11 15  1  0
 12 33  1  0
 12 34  1  0
 12 35  1  0
 13 14  1  0
 15 16  1  0
 16 18  1  0
 16 17  1  0
 16 36  1  1
 17 18  1  0
 18 19  1  1
 18 20  1  0
 19 37  1  0
 20 21  1  0
 20 38  1  0
 20 39  1  0
 21 22  1  0
 21 40  1  0
 21 41  1  0
 22 42  1  1
M  END
>  <i_m_ct_stereo_status>  (254) 
1

>  <s_m_source_file>  (254) 
/var/tmp/pbs.5076255.sched01/tmpthapbt4w/86pc0xbys0.sdf

>  <i_m_source_file_index>  (254) 
28

>  <i_lp_mmshare_version>  (254) 
48012

>  <i_f3d_flags>  (254) 
0

>  <s_epik_input>  (254) 
W0NAQF0xMjNbQ0BIXTRbQ0BIXShbQ0gzXSlbQ0BIXShDKD1PKU80KVtDQEhdM1tDSDJdW0NIMl1bQ0BdNShbT0hdKVtDQEBIXShPNSlPW0NAQF0oW0NIM10pKE9PMilbQ0gyXVtDSDJdMQ==

>  <s_epik_cmdline>  (254) 
J2VwaWtfcHl0aG9uJywgJy1waHQnLCAnMi4wJywgJy1waCcsICc3LjAnLCAnLXRuJywgJzgnLCAnLW1hJywgJzIwMCcsICctaW1hZScsICc8aW5maWxlLm1hZT4nLCAnLW9tYWUnLCAnPG91dGZpbGUubWFlPic=

>  <r_lp_tautomer_probability>  (254) 
1

>  <r_epik_Ionization_Penalty>  (254) 
2.22227e-05

>  <r_epik_Ionization_Penalty_Charging>  (254) 
0

>  <r_epik_Ionization_Penalty_Neutral>  (254) 
2.22227e-05

>  <r_epik_State_Penalty>  (254) 
-0

>  <r_epik_Charging_Adjusted_Penalty>  (254) 
0

>  <i_epik_Tot_Q>  (254) 
0

>  <i_epik_Tot_abs_Q>  (254) 
0

>  <s_epik_Chemistry_Notes>  (254) 
This compound has an ester and may undergo hydrolysis at high or low pH. This compound contains an acetal/aminal-like group ( X-CH(R)-Y where X, Y are N, S, or O) that may be acid/base labile, releasing an aldehyde.

>  <s_lp_Force_Field>  (254) 
OPLS3e

>  <r_lp_Energy>  (254) 
45.1899

>  <b_lp_Chiralities_Consistent>  (254) 
1

>  <s_lp_Variant>  (254) 
74:0-1

>  <s_i_glide_gridfile>  (254) 
pfpi4k_grid

>  <i_i_glide_lignum>  (254) 
28

>  <i_i_glide_rotatable_bonds>  (254) 
1

>  <r_i_docking_score>  (254) 
-3.29845

>  <r_i_glide_ligand_efficiency>  (254) 
-0.149929

>  <r_i_glide_ligand_efficiency_sa>  (254) 
-0.420108

>  <r_i_glide_ligand_efficiency_ln>  (254) 
-0.806261

>  <r_i_glide_gscore>  (254) 
-3.29845

>  <r_i_glide_lipo>  (254) 
-0.197357

>  <r_i_glide_hbond>  (254) 
-0.210141

>  <r_i_glide_metal>  (254) 
-0

>  <r_i_glide_rewards>  (254) 
-1.27967

>  <r_i_glide_evdw>  (254) 
-23.3134

>  <r_i_glide_ecoul>  (254) 
-2.64982

>  <r_i_glide_erotb>  (254) 
0

>  <r_i_glide_esite>  (254) 
-0.0481377

>  <r_i_glide_emodel>  (254) 
-31.5171

>  <r_i_glide_energy>  (254) 
-25.9632

>  <r_i_glide_einternal>  (254) 
0.00683351

>  <r_i_glide_intrahb_reward>  (254) 
-0

>  <i_i_glide_confnum>  (254) 
1

>  <i_i_glide_posenum>  (254) 
18

>  <r_i_glide_eff_state_penalty>  (254) 
0

>  <ligand_id>  (254) 
74

>  <original_smiles>  (254) 
CC1C2C(=O)OC1C13CCC(C)(OO1)OC1OC1(O)CCC23

>  <smiles>  (254) 
[H]OC12OC1([H])OC1(C([H])([H])[H])OOC3(C([H])([H])C1([H])[H])C1([H])OC(=O)C([H])(C1([H])C([H])([H])[H])C3([H])C([H])([H])C2([H])[H]

$$$$
74:0:1
     RDKit          3D

 42 46  0  0  1  0  0  0  0  0999 V2000
    4.3232   -2.0059   -2.8184 C   0  0  0  0  0  0  0  0  0  0  0  0
    3.9482   -2.4035   -1.3646 C   0  0  2  0  0  0  0  0  0  0  0  0
    4.7251   -1.7410   -0.2253 C   0  0  2  0  0  0  0  0  0  0  0  0
    6.0776   -2.3965   -0.4543 C   0  0  0  0  0  0  0  0  0  0  0  0
    7.1694   -1.8575   -0.3187 O   0  0  0  0  0  0  0  0  0  0  0  0
    5.7935   -3.6352   -0.8518 O   0  0  0  0  0  0  0  0  0  0  0  0
    4.3723   -3.8112   -0.9100 C   0  0  1  0  0  0  0  0  0  0  0  0
    3.8217   -3.8748    0.5437 C   0  0  2  0  0  0  0  0  0  0  0  0
    4.5156   -4.9344    1.4612 C   0  0  0  0  0  0  0  0  0  0  0  0
    3.7247   -6.2210    1.7491 C   0  0  0  0  0  0  0  0  0  0  0  0
    2.1936   -6.0501    1.6890 C   0  0  2  0  0  0  0  0  0  0  0  0
    1.4984   -7.4201    1.7364 C   0  0  0  0  0  0  0  0  0  0  0  0
    2.0404   -5.4857    0.3972 O   0  0  0  0  0  0  0  0  0  0  0  0
    2.4061   -4.0376    0.5221 O   0  0  0  0  0  0  0  0  0  0  0  0
    1.5488   -5.2580    2.7031 O   0  0  0  0  0  0  0  0  0  0  0  0
    2.3389   -4.7322    3.7605 C   0  0  2  0  0  0  0  0  0  0  0  0
    1.6322   -3.7874    4.5689 O   0  0  0  0  0  0  0  0  0  0  0  0
    2.5973   -3.2366    3.6633 C   0  0  1  0  0  0  0  0  0  0  0  0
    3.8360   -2.8825    4.2431 O   0  0  0  0  0  0  0  0  0  0  0  0
    2.0018   -2.2317    2.6969 C   0  0  0  0  0  0  0  0  0  0  0  0
    2.9426   -1.5829    1.6494 C   0  0  0  0  0  0  0  0  0  0  0  0
    4.1127   -2.4128    1.0346 C   0  0  2  0  0  0  0  0  0  0  0  0
    5.3753   -2.1679   -3.0654 H   0  0  0  0  0  0  0  0  0  0  0  0
    4.1034   -0.9515   -3.0040 H   0  0  0  0  0  0  0  0  0  0  0  0
    3.7407   -2.5891   -3.5336 H   0  0  0  0  0  0  0  0  0  0  0  0
    2.8719   -2.2507   -1.2512 H   0  0  0  0  0  0  0  0  0  0  0  0
    4.7515   -0.6489   -0.2267 H   0  0  0  0  0  0  0  0  0  0  0  0
    4.0690   -4.6312   -1.5529 H   0  0  0  0  0  0  0  0  0  0  0  0
    5.4767   -5.2258    1.0402 H   0  0  0  0  0  0  0  0  0  0  0  0
    4.7676   -4.4940    2.4220 H   0  0  0  0  0  0  0  0  0  0  0  0
    3.9945   -6.9500    0.9826 H   0  0  0  0  0  0  0  0  0  0  0  0
    4.0391   -6.6611    2.7003 H   0  0  0  0  0  0  0  0  0  0  0  0
    0.4174   -7.3308    1.6378 H   0  0  0  0  0  0  0  0  0  0  0  0
    1.6992   -7.9199    2.6862 H   0  0  0  0  0  0  0  0  0  0  0  0
    1.8519   -8.0766    0.9433 H   0  0  0  0  0  0  0  0  0  0  0  0
    2.9438   -5.4327    4.3394 H   0  0  0  0  0  0  0  0  0  0  0  0
    3.7907   -1.9806    4.5043 H   0  0  0  0  0  0  0  0  0  0  0  0
    1.1576   -2.6942    2.1887 H   0  0  0  0  0  0  0  0  0  0  0  0
    1.5335   -1.4382    3.2791 H   0  0  0  0  0  0  0  0  0  0  0  0
    2.3094   -1.1780    0.8604 H   0  0  0  0  0  0  0  0  0  0  0  0
    3.3869   -0.7050    2.1187 H   0  0  0  0  0  0  0  0  0  0  0  0
    4.8906   -2.4328    1.7976 H   0  0  0  0  0  0  0  0  0  0  0  0
  1  2  1  0
  1 23  1  0
  1 24  1  0
  1 25  1  0
  2  7  1  0
  2  3  1  0
  2 26  1  1
  3 22  1  0
  3  4  1  0
  3 27  1  1
  4  5  2  0
  4  6  1  0
  6  7  1  0
  7  8  1  0
  7 28  1  6
  8 14  1  6
  8 22  1  0
  8  9  1  0
  9 10  1  0
  9 29  1  0
  9 30  1  0
 10 11  1  0
 10 31  1  0
 10 32  1  0
 11 12  1  6
 11 13  1  0
 11 15  1  0
 12 33  1  0
 12 34  1  0
 12 35  1  0
 13 14  1  0
 15 16  1  0
 16 18  1  0
 16 17  1  0
 16 36  1  1
 17 18  1  0
 18 19  1  1
 18 20  1  0
 19 37  1  0
 20 21  1  0
 20 38  1  0
 20 39  1  0
 21 22  1  0
 21 40  1  0
 21 41  1  0
 22 42  1  1
M  END
>  <i_m_ct_stereo_status>  (255) 
1

>  <s_m_source_file>  (255) 
/var/tmp/pbs.5076255.sched01/tmpthapbt4w/86pc0xbys0.sdf

>  <i_m_source_file_index>  (255) 
28

>  <i_lp_mmshare_version>  (255) 
48012

>  <i_f3d_flags>  (255) 
0

>  <s_epik_input>  (255) 
W0NAQF0xMjNbQ0BIXTRbQ0BIXShbQ0gzXSlbQ0BIXShDKD1PKU80KVtDQEhdM1tDSDJdW0NIMl1bQ0BdNShbT0hdKVtDQEBIXShPNSlPW0NAQF0oW0NIM10pKE9PMilbQ0gyXVtDSDJdMQ==

>  <s_epik_cmdline>  (255) 
J2VwaWtfcHl0aG9uJywgJy1waHQnLCAnMi4wJywgJy1waCcsICc3LjAnLCAnLXRuJywgJzgnLCAnLW1hJywgJzIwMCcsICctaW1hZScsICc8aW5maWxlLm1hZT4nLCAnLW9tYWUnLCAnPG91dGZpbGUubWFlPic=

>  <r_lp_tautomer_probability>  (255) 
1

>  <r_epik_Ionization_Penalty>  (255) 
2.22227e-05

>  <r_epik_Ionization_Penalty_Charging>  (255) 
0

>  <r_epik_Ionization_Penalty_Neutral>  (255) 
2.22227e-05

>  <r_epik_State_Penalty>  (255) 
-0

>  <r_epik_Charging_Adjusted_Penalty>  (255) 
0

>  <i_epik_Tot_Q>  (255) 
0

>  <i_epik_Tot_abs_Q>  (255) 
0

>  <s_epik_Chemistry_Notes>  (255) 
This compound has an ester and may undergo hydrolysis at high or low pH. This compound contains an acetal/aminal-like group ( X-CH(R)-Y where X, Y are N, S, or O) that may be acid/base labile, releasing an aldehyde.

>  <s_lp_Force_Field>  (255) 
OPLS3e

>  <r_lp_Energy>  (255) 
45.1899

>  <b_lp_Chiralities_Consistent>  (255) 
1

>  <s_lp_Variant>  (255) 
74:0-1

>  <s_i_glide_gridfile>  (255) 
pfpi4k_grid

>  <i_i_glide_lignum>  (255) 
28

>  <i_i_glide_rotatable_bonds>  (255) 
1

>  <r_i_docking_score>  (255) 
-3.2066

>  <r_i_glide_ligand_efficiency>  (255) 
-0.145754

>  <r_i_glide_ligand_efficiency_sa>  (255) 
-0.40841

>  <r_i_glide_ligand_efficiency_ln>  (255) 
-0.78381

>  <r_i_glide_gscore>  (255) 
-3.2066

>  <r_i_glide_lipo>  (255) 
-0.130055

>  <r_i_glide_hbond>  (255) 
-0.188703

>  <r_i_glide_metal>  (255) 
-0

>  <r_i_glide_rewards>  (255) 
-1.28154

>  <r_i_glide_evdw>  (255) 
-22.0431

>  <r_i_glide_ecoul>  (255) 
-3.10918

>  <r_i_glide_erotb>  (255) 
0

>  <r_i_glide_esite>  (255) 
-0.0377713

>  <r_i_glide_emodel>  (255) 
-30.6216

>  <r_i_glide_energy>  (255) 
-25.1523

>  <r_i_glide_einternal>  (255) 
0.00530022

>  <r_i_glide_intrahb_reward>  (255) 
-0

>  <i_i_glide_confnum>  (255) 
2

>  <i_i_glide_posenum>  (255) 
35

>  <r_i_glide_eff_state_penalty>  (255) 
0

>  <ligand_id>  (255) 
74

>  <original_smiles>  (255) 
CC1C2C(=O)OC1C13CCC(C)(OO1)OC1OC1(O)CCC23

>  <smiles>  (255) 
[H]OC12OC1([H])OC1(C([H])([H])[H])OOC3(C([H])([H])C1([H])[H])C1([H])OC(=O)C([H])(C1([H])C([H])([H])[H])C3([H])C([H])([H])C2([H])[H]

$$$$
74:0:2
     RDKit          3D

 42 46  0  0  1  0  0  0  0  0999 V2000
    3.4700   -2.9880   -3.0734 C   0  0  0  0  0  0  0  0  0  0  0  0
    3.5824   -2.6454   -1.5639 C   0  0  2  0  0  0  0  0  0  0  0  0
    4.7000   -1.6947   -1.1366 C   0  0  2  0  0  0  0  0  0  0  0  0
    5.8818   -2.6143   -1.3870 C   0  0  0  0  0  0  0  0  0  0  0  0
    6.9916   -2.2646   -1.7856 O   0  0  0  0  0  0  0  0  0  0  0  0
    5.4595   -3.8320   -1.0662 O   0  0  0  0  0  0  0  0  0  0  0  0
    4.0915   -3.7649   -0.6438 C   0  0  1  0  0  0  0  0  0  0  0  0
    4.0565   -3.0860    0.7581 C   0  0  2  0  0  0  0  0  0  0  0  0
    5.0090   -3.7215    1.8264 C   0  0  0  0  0  0  0  0  0  0  0  0
    4.3465   -4.6108    2.8940 C   0  0  0  0  0  0  0  0  0  0  0  0
    2.8794   -4.2483    3.1917 C   0  0  2  0  0  0  0  0  0  0  0  0
    2.2320   -5.3319    4.0639 C   0  0  0  0  0  0  0  0  0  0  0  0
    2.3327   -4.3090    1.8812 O   0  0  0  0  0  0  0  0  0  0  0  0
    2.7101   -3.0120    1.2269 O   0  0  0  0  0  0  0  0  0  0  0  0
    2.6125   -2.9991    3.8518 O   0  0  0  0  0  0  0  0  0  0  0  0
    3.7090   -2.2049    4.2641 C   0  0  2  0  0  0  0  0  0  0  0  0
    3.2881   -0.9152    4.7107 O   0  0  0  0  0  0  0  0  0  0  0  0
    3.9093   -0.9488    3.4189 C   0  0  1  0  0  0  0  0  0  0  0  0
    5.2688   -0.5631    3.4156 O   0  0  0  0  0  0  0  0  0  0  0  0
    3.0312   -0.4093    2.3017 C   0  0  0  0  0  0  0  0  0  0  0  0
    3.5966   -0.4460    0.8584 C   0  0  0  0  0  0  0  0  0  0  0  0
    4.5092   -1.6295    0.4047 C   0  0  2  0  0  0  0  0  0  0  0  0
    4.3860   -3.3988   -3.5050 H   0  0  0  0  0  0  0  0  0  0  0  0
    3.2024   -2.1064   -3.6588 H   0  0  0  0  0  0  0  0  0  0  0  0
    2.6877   -3.7311   -3.2372 H   0  0  0  0  0  0  0  0  0  0  0  0
    2.6114   -2.2759   -1.2336 H   0  0  0  0  0  0  0  0  0  0  0  0
    4.7358   -0.7365   -1.6549 H   0  0  0  0  0  0  0  0  0  0  0  0
    3.5748   -4.7211   -0.7153 H   0  0  0  0  0  0  0  0  0  0  0  0
    5.7809   -4.3138    1.3387 H   0  0  0  0  0  0  0  0  0  0  0  0
    5.5575   -2.9436    2.3533 H   0  0  0  0  0  0  0  0  0  0  0  0
    4.3513   -5.6351    2.5125 H   0  0  0  0  0  0  0  0  0  0  0  0
    4.9492   -4.6280    3.8075 H   0  0  0  0  0  0  0  0  0  0  0  0
    1.1781   -5.1274    4.2448 H   0  0  0  0  0  0  0  0  0  0  0  0
    2.7248   -5.3846    5.0367 H   0  0  0  0  0  0  0  0  0  0  0  0
    2.3113   -6.3166    3.6024 H   0  0  0  0  0  0  0  0  0  0  0  0
    4.4610   -2.6655    4.9193 H   0  0  0  0  0  0  0  0  0  0  0  0
    5.7892   -1.3082    3.6623 H   0  0  0  0  0  0  0  0  0  0  0  0
    2.0691   -0.9204    2.3385 H   0  0  0  0  0  0  0  0  0  0  0  0
    2.7861    0.6220    2.5519 H   0  0  0  0  0  0  0  0  0  0  0  0
    2.7457   -0.3494    0.1867 H   0  0  0  0  0  0  0  0  0  0  0  0
    4.1685    0.4719    0.7246 H   0  0  0  0  0  0  0  0  0  0  0  0
    5.4882   -1.4232    0.8366 H   0  0  0  0  0  0  0  0  0  0  0  0
  1  2  1  0
  1 23  1  0
  1 24  1  0
  1 25  1  0
  2  7  1  0
  2  3  1  0
  2 26  1  1
  3 22  1  0
  3  4  1  0
  3 27  1  6
  4  5  2  0
  4  6  1  0
  6  7  1  0
  7  8  1  0
  7 28  1  1
  8 14  1  1
  8 22  1  0
  8  9  1  0
  9 10  1  0
  9 29  1  0
  9 30  1  0
 10 11  1  0
 10 31  1  0
 10 32  1  0
 11 12  1  1
 11 13  1  0
 11 15  1  0
 12 33  1  0
 12 34  1  0
 12 35  1  0
 13 14  1  0
 15 16  1  0
 16 18  1  0
 16 17  1  0
 16 36  1  1
 17 18  1  0
 18 19  1  1
 18 20  1  0
 19 37  1  0
 20 21  1  0
 20 38  1  0
 20 39  1  0
 21 22  1  0
 21 40  1  0
 21 41  1  0
 22 42  1  1
M  END
>  <i_m_ct_stereo_status>  (256) 
1

>  <s_m_source_file>  (256) 
/var/tmp/pbs.5076255.sched01/tmpthapbt4w/86pc0xbys0.sdf

>  <i_m_source_file_index>  (256) 
28

>  <i_lp_mmshare_version>  (256) 
48012

>  <i_f3d_flags>  (256) 
0

>  <s_epik_input>  (256) 
W0NAQF0xMjNbQ0BIXTRbQ0BIXShbQ0gzXSlbQ0BIXShDKD1PKU80KVtDQEhdM1tDSDJdW0NIMl1bQ0BdNShbT0hdKVtDQEBIXShPNSlPW0NAQF0oW0NIM10pKE9PMilbQ0gyXVtDSDJdMQ==

>  <s_epik_cmdline>  (256) 
J2VwaWtfcHl0aG9uJywgJy1waHQnLCAnMi4wJywgJy1waCcsICc3LjAnLCAnLXRuJywgJzgnLCAnLW1hJywgJzIwMCcsICctaW1hZScsICc8aW5maWxlLm1hZT4nLCAnLW9tYWUnLCAnPG91dGZpbGUubWFlPic=

>  <r_lp_tautomer_probability>  (256) 
1

>  <r_epik_Ionization_Penalty>  (256) 
2.22227e-05

>  <r_epik_Ionization_Penalty_Charging>  (256) 
0

>  <r_epik_Ionization_Penalty_Neutral>  (256) 
2.22227e-05

>  <r_epik_State_Penalty>  (256) 
-0

>  <r_epik_Charging_Adjusted_Penalty>  (256) 
0

>  <i_epik_Tot_Q>  (256) 
0

>  <i_epik_Tot_abs_Q>  (256) 
0

>  <s_epik_Chemistry_Notes>  (256) 
This compound has an ester and may undergo hydrolysis at high or low pH. This compound contains an acetal/aminal-like group ( X-CH(R)-Y where X, Y are N, S, or O) that may be acid/base labile, releasing an aldehyde.

>  <s_lp_Force_Field>  (256) 
OPLS3e

>  <r_lp_Energy>  (256) 
45.1899

>  <b_lp_Chiralities_Consistent>  (256) 
1

>  <s_lp_Variant>  (256) 
74:0-1

>  <s_i_glide_gridfile>  (256) 
pfpi4k_grid

>  <i_i_glide_lignum>  (256) 
28

>  <i_i_glide_rotatable_bonds>  (256) 
1

>  <r_i_docking_score>  (256) 
-2.98269

>  <r_i_glide_ligand_efficiency>  (256) 
-0.135577

>  <r_i_glide_ligand_efficiency_sa>  (256) 
-0.379891

>  <r_i_glide_ligand_efficiency_ln>  (256) 
-0.729077

>  <r_i_glide_gscore>  (256) 
-2.98269

>  <r_i_glide_lipo>  (256) 
-0.0891377

>  <r_i_glide_hbond>  (256) 
-0.16

>  <r_i_glide_metal>  (256) 
-0

>  <r_i_glide_rewards>  (256) 
-1.29257

>  <r_i_glide_evdw>  (256) 
-23.0124

>  <r_i_glide_ecoul>  (256) 
-1.83099

>  <r_i_glide_erotb>  (256) 
0

>  <r_i_glide_esite>  (256) 
-0.0157111

>  <r_i_glide_emodel>  (256) 
-29.6984

>  <r_i_glide_energy>  (256) 
-24.8434

>  <r_i_glide_einternal>  (256) 
0.467564

>  <r_i_glide_intrahb_reward>  (256) 
-0

>  <i_i_glide_confnum>  (256) 
1

>  <i_i_glide_posenum>  (256) 
12

>  <r_i_glide_eff_state_penalty>  (256) 
0

>  <ligand_id>  (256) 
74

>  <original_smiles>  (256) 
CC1C2C(=O)OC1C13CCC(C)(OO1)OC1OC1(O)CCC23

>  <smiles>  (256) 
[H]OC12OC1([H])OC1(C([H])([H])[H])OOC3(C([H])([H])C1([H])[H])C1([H])OC(=O)C([H])(C1([H])C([H])([H])[H])C3([H])C([H])([H])C2([H])[H]

$$$$
75:0:0
     RDKit          3D

 48 54  0  0  1  0  0  0  0  0999 V2000
    3.1645    0.0204   -4.4892 C   0  0  0  0  0  0  0  0  0  0  0  0
    3.7089   -0.5297   -3.2921 O   0  0  0  0  0  0  0  0  0  0  0  0
    4.2096   -1.7753   -3.3052 C   0  0  0  0  0  0  0  0  0  0  0  0
    4.2077   -2.4940   -4.2956 O   0  0  0  0  0  0  0  0  0  0  0  0
    4.7967   -2.1900   -2.0129 C   0  0  0  0  0  0  0  0  0  0  0  0
    5.8310   -3.0591   -1.9942 C   0  0  0  0  0  0  0  0  0  0  0  0
    6.4632   -3.4500   -0.6686 C   0  0  1  0  0  0  0  0  0  0  0  0
    6.5550   -2.0283    0.0603 C   0  0  0  0  0  0  0  0  0  0  0  0
    5.1295   -1.4834    0.5040 C   0  0  1  0  0  0  0  0  0  0  0  0
    4.1522   -1.7268   -0.6824 C   0  0  2  0  0  0  0  0  0  0  0  0
    3.3466   -2.8947   -0.1162 C   0  0  2  0  0  0  0  0  0  0  0  0
    3.0041   -2.5926    1.3713 C   0  0  1  0  0  0  0  0  0  0  0  0
    2.5481   -3.9607    2.0823 C   0  0  1  0  0  0  0  0  0  0  0  0
    3.7115   -4.8890    2.5443 C   0  0  1  0  0  0  0  0  0  0  0  0
    2.9291   -5.9841    3.2505 C   0  0  0  0  0  0  0  0  0  0  0  0
    3.3585   -7.1125    3.4605 O   0  0  0  0  0  0  0  0  0  0  0  0
    1.7703   -5.4473    3.6976 N   0  0  0  0  0  0  0  0  0  0  0  0
    0.9059   -6.0839    4.7018 C   0  0  0  0  0  0  0  0  0  0  0  0
   -0.3678   -6.6632    4.0802 C   0  0  0  0  0  0  0  0  0  0  0  0
   -1.2532   -7.0321    4.8705 O   0  0  0  0  0  0  0  0  0  0  0  0
   -0.4924   -6.6492    2.8271 O   0  0  0  0  0  0  0  0  0  0  0  0
    1.6171   -4.1703    3.2720 C   0  0  0  0  0  0  0  0  0  0  0  0
    0.8294   -3.3304    3.7004 O   0  0  0  0  0  0  0  0  0  0  0  0
    5.0370   -4.9943    1.6315 C   0  0  1  0  0  0  0  0  0  0  0  0
    5.5292   -4.6254    0.0152 C   0  0  1  0  0  0  0  0  0  0  0  0
    4.2252   -4.1058    0.1611 C   0  0  1  0  0  0  0  0  0  0  0  0
    5.1182   -3.5921    1.4464 C   0  0  1  0  0  0  0  0  0  0  0  0
    4.4711   -2.2858    1.7058 C   0  0  1  0  0  0  0  0  0  0  0  0
    2.7946    1.0283   -4.3193 H   0  0  0  0  0  0  0  0  0  0  0  0
    2.3235   -0.5663   -4.8587 H   0  0  0  0  0  0  0  0  0  0  0  0
    3.9067    0.0930   -5.2842 H   0  0  0  0  0  0  0  0  0  0  0  0
    6.2823   -3.4462   -2.9015 H   0  0  0  0  0  0  0  0  0  0  0  0
    7.4666   -3.8192   -0.8595 H   0  0  0  0  0  0  0  0  0  0  0  0
    7.2687   -2.0281    0.8847 H   0  0  0  0  0  0  0  0  0  0  0  0
    6.9841   -1.3290   -0.6429 H   0  0  0  0  0  0  0  0  0  0  0  0
    5.1855   -0.4176    0.7310 H   0  0  0  0  0  0  0  0  0  0  0  0
    3.5053   -0.8594   -0.8237 H   0  0  0  0  0  0  0  0  0  0  0  0
    2.4767   -3.1373   -0.7285 H   0  0  0  0  0  0  0  0  0  0  0  0
    2.3114   -1.7562    1.4960 H   0  0  0  0  0  0  0  0  0  0  0  0
    4.1075   -4.4049    3.4431 H   0  0  0  0  0  0  0  0  0  0  0  0
    0.6276   -5.3673    5.4746 H   0  0  0  0  0  0  0  0  0  0  0  0
    1.4271   -6.8824    5.2293 H   0  0  0  0  0  0  0  0  0  0  0  0
    1.9603   -4.4845    1.3200 H   0  0  0  0  0  0  0  0  0  0  0  0
    5.8661   -5.4370    2.1694 H   0  0  0  0  0  0  0  0  0  0  0  0
    5.5235   -5.5407   -0.5705 H   0  0  0  0  0  0  0  0  0  0  0  0
    3.5986   -5.0183    0.0514 H   0  0  0  0  0  0  0  0  0  0  0  0
    6.1859   -3.5702    1.7561 H   0  0  0  0  0  0  0  0  0  0  0  0
    4.6573   -1.8933    2.7032 H   0  0  0  0  0  0  0  0  0  0  0  0
  1  2  1  0
  1 29  1  0
  1 30  1  0
  1 31  1  0
  2  3  1  0
  3  4  2  0
  3  5  1  0
  5 10  1  0
  5  6  2  0
  6  7  1  0
  6 32  1  0
  7 25  1  0
  7  8  1  0
  7 33  1  6
  8  9  1  0
  8 34  1  0
  8 35  1  0
  9 28  1  0
  9 10  1  0
  9 36  1  1
 10 11  1  0
 10 37  1  6
 11 26  1  0
 11 12  1  0
 11 38  1  6
 12 28  1  0
 12 39  1  6
 12 13  1  0
 13 14  1  0
 13 43  1  6
 13 22  1  0
 14 15  1  0
 14 24  1  0
 14 40  1  1
 15 16  2  0
 15 17  1  0
 17 22  1  0
 17 18  1  0
 18 19  1  0
 18 41  1  0
 18 42  1  0
 19 20  2  0
 19 21  1  0
 22 23  2  0
 24 27  1  0
 24 25  1  0
 24 44  1  1
 25 26  1  0
 25 45  1  6
 26 27  1  0
 26 46  1  1
 27 28  1  0
 27 47  1  6
 28 48  1  1
M  CHG  1  21  -1
M  END
>  <i_m_ct_stereo_status>  (257) 
1

>  <s_m_source_file>  (257) 
/var/tmp/pbs.5076255.sched01/tmpthapbt4w/86pc0xbys0.sdf

>  <i_m_source_file_index>  (257) 
29

>  <i_lp_mmshare_version>  (257) 
48012

>  <i_f3d_flags>  (257) 
0

>  <s_epik_input>  (257) 
W0NIM11PQyg9TylDKD1bQ0hdMSlbQ0BIXShbQ0BIXShbQ0gyXTIpW0NAQEhdM1tDQEBIXTRbQ0BASF01NilbQ0BASF01W0NASF0zYyhjN1tDQEhdNFtDQEBIXTZbQ0BASF0xMiljKFtPSF0pbihjN1tPSF0pW0NIMl1DKD1PKVtPSF0=

>  <s_epik_cmdline>  (257) 
J2VwaWtfcHl0aG9uJywgJy1waHQnLCAnMi4wJywgJy1waCcsICc3LjAnLCAnLXRuJywgJzgnLCAnLW1hJywgJzIwMCcsICctaW1hZScsICc8aW5maWxlLm1hZT4nLCAnLW9tYWUnLCAnPG91dGZpbGUubWFlPic=

>  <r_lp_tautomer_probability>  (257) 
1

>  <r_epik_Ionization_Penalty>  (257) 
0.000270677

>  <r_epik_Ionization_Penalty_Charging>  (257) 
0.000270676

>  <r_epik_Ionization_Penalty_Neutral>  (257) 
8.11787e-10

>  <r_epik_State_Penalty>  (257) 
-0

>  <r_epik_Charging_Adjusted_Penalty>  (257) 
0.000270676

>  <i_epik_Tot_Q>  (257) 
-1

>  <i_epik_Tot_abs_Q>  (257) 
1

>  <s_epik_Chemistry_Notes>  (257) 
This compound has an ester and may undergo hydrolysis at high or low pH.

>  <s_lp_Force_Field>  (257) 
OPLS3e

>  <r_lp_Energy>  (257) 
283.644

>  <b_lp_Chiralities_Consistent>  (257) 
1

>  <s_lp_Variant>  (257) 
75:0-1

>  <s_i_glide_gridfile>  (257) 
pfpi4k_grid

>  <i_i_glide_lignum>  (257) 
29

>  <i_i_glide_rotatable_bonds>  (257) 
4

>  <r_i_docking_score>  (257) 
-3.96842

>  <r_i_glide_ligand_efficiency>  (257) 
-0.141729

>  <r_i_glide_ligand_efficiency_sa>  (257) 
-0.430373

>  <r_i_glide_ligand_efficiency_ln>  (257) 
-0.916028

>  <r_i_glide_gscore>  (257) 
-3.96842

>  <r_i_glide_lipo>  (257) 
-0.606545

>  <r_i_glide_hbond>  (257) 
-0.519202

>  <r_i_glide_metal>  (257) 
-0

>  <r_i_glide_rewards>  (257) 
-0.976672

>  <r_i_glide_evdw>  (257) 
-31.6193

>  <r_i_glide_ecoul>  (257) 
-3.24828

>  <r_i_glide_erotb>  (257) 
0.265643

>  <r_i_glide_esite>  (257) 
-0.0634326

>  <r_i_glide_emodel>  (257) 
-45.4163

>  <r_i_glide_energy>  (257) 
-34.8676

>  <r_i_glide_einternal>  (257) 
4.31666

>  <r_i_glide_intrahb_reward>  (257) 
-0

>  <i_i_glide_confnum>  (257) 
2

>  <i_i_glide_posenum>  (257) 
2

>  <r_i_glide_eff_state_penalty>  (257) 
0

>  <ligand_id>  (257) 
75

>  <original_smiles>  (257) 
COC(=O)C1=CC2CC3C1C1C4c5c(c(O)n(CC(=O)O)c5O)C5C2C1C5C34

>  <smiles>  (257) 
[H]C1=C(C(=O)OC([H])([H])[H])C2([H])C3([H])C([H])([H])C1([H])C1([H])C4([H])C5([H])C(=O)N(C([H])([H])C(=O)[O-])C(=O)C5([H])C5([H])C2([H])C1([H])C4([H])C35[H]

$$$$
75:0:1
     RDKit          3D

 48 54  0  0  1  0  0  0  0  0999 V2000
    3.8019    0.3425   -4.1710 C   0  0  0  0  0  0  0  0  0  0  0  0
    4.1658   -0.3248   -2.9711 O   0  0  0  0  0  0  0  0  0  0  0  0
    4.1891   -1.6665   -2.9342 C   0  0  0  0  0  0  0  0  0  0  0  0
    4.0429   -2.3686   -3.9381 O   0  0  0  0  0  0  0  0  0  0  0  0
    4.4340   -2.2069   -1.5697 C   0  0  0  0  0  0  0  0  0  0  0  0
    4.4068   -3.5446   -1.3632 C   0  0  0  0  0  0  0  0  0  0  0  0
    4.7400   -4.1056    0.0092 C   0  0  1  0  0  0  0  0  0  0  0  0
    6.0537   -3.2640    0.3742 C   0  0  0  0  0  0  0  0  0  0  0  0
    5.7129   -1.7451    0.7023 C   0  0  1  0  0  0  0  0  0  0  0  0
    4.6989   -1.2550   -0.3716 C   0  0  2  0  0  0  0  0  0  0  0  0
    3.4391   -1.2043    0.4802 C   0  0  2  0  0  0  0  0  0  0  0  0
    3.7544   -0.5617    1.8565 C   0  0  1  0  0  0  0  0  0  0  0  0
    2.5420   -0.9014    2.8461 C   0  0  1  0  0  0  0  0  0  0  0  0
    2.6216   -2.3095    3.5081 C   0  0  1  0  0  0  0  0  0  0  0  0
    1.4529   -2.2375    4.4737 C   0  0  0  0  0  0  0  0  0  0  0  0
    0.8882   -3.2118    4.9610 O   0  0  0  0  0  0  0  0  0  0  0  0
    1.2562   -0.9310    4.7818 N   0  0  0  0  0  0  0  0  0  0  0  0
    0.4549   -0.4761    5.9334 C   0  0  0  0  0  0  0  0  0  0  0  0
   -1.0531   -0.4828    5.6285 C   0  0  0  0  0  0  0  0  0  0  0  0
   -1.7937    0.0453    6.4839 O   0  0  0  0  0  0  0  0  0  0  0  0
   -1.4562   -1.0370    4.5842 O   0  0  0  0  0  0  0  0  0  0  0  0
    2.0269   -0.1105    4.0273 C   0  0  0  0  0  0  0  0  0  0  0  0
    2.2630    1.0749    4.2129 O   0  0  0  0  0  0  0  0  0  0  0  0
    3.1521   -3.5550    2.6354 C   0  0  1  0  0  0  0  0  0  0  0  0
    3.4093   -3.9502    0.9634 C   0  0  1  0  0  0  0  0  0  0  0  0
    3.0599   -2.5859    0.9994 C   0  0  1  0  0  0  0  0  0  0  0  0
    4.2536   -2.8434    2.1231 C   0  0  1  0  0  0  0  0  0  0  0  0
    4.9367   -1.5204    2.0759 C   0  0  1  0  0  0  0  0  0  0  0  0
    3.8397    1.4174   -4.0128 H   0  0  0  0  0  0  0  0  0  0  0  0
    2.7938    0.0873   -4.4870 H   0  0  0  0  0  0  0  0  0  0  0  0
    4.4941    0.1178   -4.9842 H   0  0  0  0  0  0  0  0  0  0  0  0
    4.2122   -4.2519   -2.1555 H   0  0  0  0  0  0  0  0  0  0  0  0
    5.0104   -5.1549   -0.1066 H   0  0  0  0  0  0  0  0  0  0  0  0
    6.6352   -3.7296    1.1731 H   0  0  0  0  0  0  0  0  0  0  0  0
    6.7262   -3.2940   -0.4796 H   0  0  0  0  0  0  0  0  0  0  0  0
    6.6187   -1.1367    0.6834 H   0  0  0  0  0  0  0  0  0  0  0  0
    4.9816   -0.2542   -0.6790 H   0  0  0  0  0  0  0  0  0  0  0  0
    2.6138   -0.7144   -0.0260 H   0  0  0  0  0  0  0  0  0  0  0  0
    4.0198    0.4974    1.7830 H   0  0  0  0  0  0  0  0  0  0  0  0
    3.4126   -2.2276    4.2581 H   0  0  0  0  0  0  0  0  0  0  0  0
    0.7211    0.5383    6.2381 H   0  0  0  0  0  0  0  0  0  0  0  0
    0.6457   -1.0925    6.8124 H   0  0  0  0  0  0  0  0  0  0  0  0
    1.6416   -0.8362    2.2339 H   0  0  0  0  0  0  0  0  0  0  0  0
    3.4055   -4.4200    3.2462 H   0  0  0  0  0  0  0  0  0  0  0  0
    2.5803   -4.5560    0.6208 H   0  0  0  0  0  0  0  0  0  0  0  0
    1.9621   -2.6298    1.1346 H   0  0  0  0  0  0  0  0  0  0  0  0
    4.9605   -3.6537    2.4029 H   0  0  0  0  0  0  0  0  0  0  0  0
    5.5505   -1.3207    2.9537 H   0  0  0  0  0  0  0  0  0  0  0  0
  1  2  1  0
  1 29  1  0
  1 30  1  0
  1 31  1  0
  2  3  1  0
  3  4  2  0
  3  5  1  0
  5 10  1  0
  5  6  2  0
  6  7  1  0
  6 32  1  0
  7 25  1  0
  7  8  1  0
  7 33  1  6
  8  9  1  0
  8 34  1  0
  8 35  1  0
  9 28  1  0
  9 10  1  0
  9 36  1  1
 10 11  1  0
 10 37  1  6
 11 26  1  0
 11 12  1  0
 11 38  1  6
 12 28  1  0
 12 39  1  6
 12 13  1  0
 13 14  1  0
 13 43  1  6
 13 22  1  0
 14 15  1  0
 14 24  1  0
 14 40  1  1
 15 16  2  0
 15 17  1  0
 17 22  1  0
 17 18  1  0
 18 19  1  0
 18 41  1  0
 18 42  1  0
 19 20  2  0
 19 21  1  0
 22 23  2  0
 24 27  1  0
 24 25  1  0
 24 44  1  1
 25 26  1  0
 25 45  1  6
 26 27  1  0
 26 46  1  1
 27 28  1  0
 27 47  1  6
 28 48  1  1
M  CHG  1  21  -1
M  END
>  <i_m_ct_stereo_status>  (258) 
1

>  <s_m_source_file>  (258) 
/var/tmp/pbs.5076255.sched01/tmpthapbt4w/86pc0xbys0.sdf

>  <i_m_source_file_index>  (258) 
29

>  <i_lp_mmshare_version>  (258) 
48012

>  <i_f3d_flags>  (258) 
0

>  <s_epik_input>  (258) 
W0NIM11PQyg9TylDKD1bQ0hdMSlbQ0BIXShbQ0BIXShbQ0gyXTIpW0NAQEhdM1tDQEBIXTRbQ0BASF01NilbQ0BASF01W0NASF0zYyhjN1tDQEhdNFtDQEBIXTZbQ0BASF0xMiljKFtPSF0pbihjN1tPSF0pW0NIMl1DKD1PKVtPSF0=

>  <s_epik_cmdline>  (258) 
J2VwaWtfcHl0aG9uJywgJy1waHQnLCAnMi4wJywgJy1waCcsICc3LjAnLCAnLXRuJywgJzgnLCAnLW1hJywgJzIwMCcsICctaW1hZScsICc8aW5maWxlLm1hZT4nLCAnLW9tYWUnLCAnPG91dGZpbGUubWFlPic=

>  <r_lp_tautomer_probability>  (258) 
1

>  <r_epik_Ionization_Penalty>  (258) 
0.000270677

>  <r_epik_Ionization_Penalty_Charging>  (258) 
0.000270676

>  <r_epik_Ionization_Penalty_Neutral>  (258) 
8.11787e-10

>  <r_epik_State_Penalty>  (258) 
-0

>  <r_epik_Charging_Adjusted_Penalty>  (258) 
0.000270676

>  <i_epik_Tot_Q>  (258) 
-1

>  <i_epik_Tot_abs_Q>  (258) 
1

>  <s_epik_Chemistry_Notes>  (258) 
This compound has an ester and may undergo hydrolysis at high or low pH.

>  <s_lp_Force_Field>  (258) 
OPLS3e

>  <r_lp_Energy>  (258) 
283.644

>  <b_lp_Chiralities_Consistent>  (258) 
1

>  <s_lp_Variant>  (258) 
75:0-1

>  <s_i_glide_gridfile>  (258) 
pfpi4k_grid

>  <i_i_glide_lignum>  (258) 
29

>  <i_i_glide_rotatable_bonds>  (258) 
4

>  <r_i_docking_score>  (258) 
-3.68946

>  <r_i_glide_ligand_efficiency>  (258) 
-0.131766

>  <r_i_glide_ligand_efficiency_sa>  (258) 
-0.400121

>  <r_i_glide_ligand_efficiency_ln>  (258) 
-0.851636

>  <r_i_glide_gscore>  (258) 
-3.68946

>  <r_i_glide_lipo>  (258) 
-0.350688

>  <r_i_glide_hbond>  (258) 
-0.381905

>  <r_i_glide_metal>  (258) 
-0

>  <r_i_glide_rewards>  (258) 
-0.837121

>  <r_i_glide_evdw>  (258) 
-31.2009

>  <r_i_glide_ecoul>  (258) 
-5.16419

>  <r_i_glide_erotb>  (258) 
0.265643

>  <r_i_glide_esite>  (258) 
-0.0507148

>  <r_i_glide_emodel>  (258) 
-46.7905

>  <r_i_glide_energy>  (258) 
-36.3651

>  <r_i_glide_einternal>  (258) 
2.98272

>  <r_i_glide_intrahb_reward>  (258) 
-0

>  <i_i_glide_confnum>  (258) 
3

>  <i_i_glide_posenum>  (258) 
1

>  <r_i_glide_eff_state_penalty>  (258) 
0

>  <ligand_id>  (258) 
75

>  <original_smiles>  (258) 
COC(=O)C1=CC2CC3C1C1C4c5c(c(O)n(CC(=O)O)c5O)C5C2C1C5C34

>  <smiles>  (258) 
[H]C1=C(C(=O)OC([H])([H])[H])C2([H])C3([H])C([H])([H])C1([H])C1([H])C4([H])C5([H])C(=O)N(C([H])([H])C(=O)[O-])C(=O)C5([H])C5([H])C2([H])C1([H])C4([H])C35[H]

$$$$
75:0:2
     RDKit          3D

 48 54  0  0  1  0  0  0  0  0999 V2000
    3.5147    0.2673   -4.4870 C   0  0  0  0  0  0  0  0  0  0  0  0
    3.9732   -0.3694   -3.3006 O   0  0  0  0  0  0  0  0  0  0  0  0
    4.2025   -1.6953   -3.3008 C   0  0  0  0  0  0  0  0  0  0  0  0
    4.1337   -2.3874   -4.3150 O   0  0  0  0  0  0  0  0  0  0  0  0
    4.5458   -2.2336   -1.9551 C   0  0  0  0  0  0  0  0  0  0  0  0
    4.6696   -3.5730   -1.7840 C   0  0  0  0  0  0  0  0  0  0  0  0
    5.0765   -4.1318   -0.4290 C   0  0  1  0  0  0  0  0  0  0  0  0
    6.3042   -3.1620   -0.0700 C   0  0  0  0  0  0  0  0  0  0  0  0
    5.8077   -1.6946    0.3035 C   0  0  1  0  0  0  0  0  0  0  0  0
    4.7335   -1.2863   -0.7439 C   0  0  2  0  0  0  0  0  0  0  0  0
    3.4898   -1.3894    0.1251 C   0  0  2  0  0  0  0  0  0  0  0  0
    3.7543   -0.7477    1.5150 C   0  0  1  0  0  0  0  0  0  0  0  0
    2.6004   -1.2277    2.5163 C   0  0  1  0  0  0  0  0  0  0  0  0
    2.8345   -2.6454    3.1459 C   0  0  1  0  0  0  0  0  0  0  0  0
    1.6722   -2.7080    4.1233 C   0  0  0  0  0  0  0  0  0  0  0  0
    1.1972   -3.7488    4.5704 O   0  0  0  0  0  0  0  0  0  0  0  0
    1.3582   -1.4315    4.4742 N   0  0  0  0  0  0  0  0  0  0  0  0
    0.5331   -1.0973    5.6425 C   0  0  0  0  0  0  0  0  0  0  0  0
   -0.9535   -1.2311    5.3122 C   0  0  0  0  0  0  0  0  0  0  0  0
   -1.3811   -0.6417    4.2986 O   0  0  0  0  0  0  0  0  0  0  0  0
   -1.6497   -1.9293    6.0777 O   0  0  0  0  0  0  0  0  0  0  0  0
    2.0262   -0.5160    3.7299 C   0  0  0  0  0  0  0  0  0  0  0  0
    2.1332    0.6928    3.9350 O   0  0  0  0  0  0  0  0  0  0  0  0
    3.4693   -3.8087    2.2330 C   0  0  1  0  0  0  0  0  0  0  0  0
    3.7490   -4.1428    0.5469 C   0  0  1  0  0  0  0  0  0  0  0  0
    3.2663   -2.8121    0.6196 C   0  0  1  0  0  0  0  0  0  0  0  0
    4.4908   -2.9666    1.7242 C   0  0  1  0  0  0  0  0  0  0  0  0
    5.0323   -1.5841    1.6938 C   0  0  1  0  0  0  0  0  0  0  0  0
    3.3945    1.3361   -4.3153 H   0  0  0  0  0  0  0  0  0  0  0  0
    2.5507   -0.1333   -4.7974 H   0  0  0  0  0  0  0  0  0  0  0  0
    4.2165    0.1554   -5.3135 H   0  0  0  0  0  0  0  0  0  0  0  0
    4.5312   -4.2729   -2.5941 H   0  0  0  0  0  0  0  0  0  0  0  0
    5.4512   -5.1463   -0.5739 H   0  0  0  0  0  0  0  0  0  0  0  0
    6.9458   -3.5799    0.7065 H   0  0  0  0  0  0  0  0  0  0  0  0
    6.9690   -3.1034   -0.9343 H   0  0  0  0  0  0  0  0  0  0  0  0
    6.6443   -0.9958    0.2834 H   0  0  0  0  0  0  0  0  0  0  0  0
    4.9018   -0.2544   -1.0445 H   0  0  0  0  0  0  0  0  0  0  0  0
    2.6200   -0.9693   -0.3653 H   0  0  0  0  0  0  0  0  0  0  0  0
    3.9056    0.3312    1.4653 H   0  0  0  0  0  0  0  0  0  0  0  0
    3.6252   -2.5003    3.8905 H   0  0  0  0  0  0  0  0  0  0  0  0
    0.7145   -0.0728    5.9792 H   0  0  0  0  0  0  0  0  0  0  0  0
    0.7913   -1.7300    6.4955 H   0  0  0  0  0  0  0  0  0  0  0  0
    1.6900   -1.2342    1.9103 H   0  0  0  0  0  0  0  0  0  0  0  0
    3.8241   -4.6461    2.8377 H   0  0  0  0  0  0  0  0  0  0  0  0
    2.9877   -4.8304    0.1788 H   0  0  0  0  0  0  0  0  0  0  0  0
    2.1746   -2.9460    0.7551 H   0  0  0  0  0  0  0  0  0  0  0  0
    5.3026   -3.6825    1.9590 H   0  0  0  0  0  0  0  0  0  0  0  0
    5.6395   -1.3295    2.5613 H   0  0  0  0  0  0  0  0  0  0  0  0
  1  2  1  0
  1 29  1  0
  1 30  1  0
  1 31  1  0
  2  3  1  0
  3  4  2  0
  3  5  1  0
  5 10  1  0
  5  6  2  0
  6  7  1  0
  6 32  1  0
  7 25  1  0
  7  8  1  0
  7 33  1  6
  8  9  1  0
  8 34  1  0
  8 35  1  0
  9 28  1  0
  9 10  1  0
  9 36  1  1
 10 11  1  0
 10 37  1  6
 11 26  1  0
 11 12  1  0
 11 38  1  6
 12 28  1  0
 12 39  1  6
 12 13  1  0
 13 14  1  0
 13 43  1  6
 13 22  1  0
 14 15  1  0
 14 24  1  0
 14 40  1  1
 15 16  2  0
 15 17  1  0
 17 22  1  0
 17 18  1  0
 18 19  1  0
 18 41  1  0
 18 42  1  0
 19 20  2  0
 19 21  1  0
 22 23  2  0
 24 27  1  0
 24 25  1  0
 24 44  1  1
 25 26  1  0
 25 45  1  6
 26 27  1  0
 26 46  1  1
 27 28  1  0
 27 47  1  6
 28 48  1  1
M  CHG  1  21  -1
M  END
>  <i_m_ct_stereo_status>  (259) 
1

>  <s_m_source_file>  (259) 
/var/tmp/pbs.5076255.sched01/tmpthapbt4w/86pc0xbys0.sdf

>  <i_m_source_file_index>  (259) 
29

>  <i_lp_mmshare_version>  (259) 
48012

>  <i_f3d_flags>  (259) 
0

>  <s_epik_input>  (259) 
W0NIM11PQyg9TylDKD1bQ0hdMSlbQ0BIXShbQ0BIXShbQ0gyXTIpW0NAQEhdM1tDQEBIXTRbQ0BASF01NilbQ0BASF01W0NASF0zYyhjN1tDQEhdNFtDQEBIXTZbQ0BASF0xMiljKFtPSF0pbihjN1tPSF0pW0NIMl1DKD1PKVtPSF0=

>  <s_epik_cmdline>  (259) 
J2VwaWtfcHl0aG9uJywgJy1waHQnLCAnMi4wJywgJy1waCcsICc3LjAnLCAnLXRuJywgJzgnLCAnLW1hJywgJzIwMCcsICctaW1hZScsICc8aW5maWxlLm1hZT4nLCAnLW9tYWUnLCAnPG91dGZpbGUubWFlPic=

>  <r_lp_tautomer_probability>  (259) 
1

>  <r_epik_Ionization_Penalty>  (259) 
0.000270677

>  <r_epik_Ionization_Penalty_Charging>  (259) 
0.000270676

>  <r_epik_Ionization_Penalty_Neutral>  (259) 
8.11787e-10

>  <r_epik_State_Penalty>  (259) 
-0

>  <r_epik_Charging_Adjusted_Penalty>  (259) 
0.000270676

>  <i_epik_Tot_Q>  (259) 
-1

>  <i_epik_Tot_abs_Q>  (259) 
1

>  <s_epik_Chemistry_Notes>  (259) 
This compound has an ester and may undergo hydrolysis at high or low pH.

>  <s_lp_Force_Field>  (259) 
OPLS3e

>  <r_lp_Energy>  (259) 
283.644

>  <b_lp_Chiralities_Consistent>  (259) 
1

>  <s_lp_Variant>  (259) 
75:0-1

>  <s_i_glide_gridfile>  (259) 
pfpi4k_grid

>  <i_i_glide_lignum>  (259) 
29

>  <i_i_glide_rotatable_bonds>  (259) 
4

>  <r_i_docking_score>  (259) 
-3.67557

>  <r_i_glide_ligand_efficiency>  (259) 
-0.13127

>  <r_i_glide_ligand_efficiency_sa>  (259) 
-0.398614

>  <r_i_glide_ligand_efficiency_ln>  (259) 
-0.84843

>  <r_i_glide_gscore>  (259) 
-3.67557

>  <r_i_glide_lipo>  (259) 
-0.390966

>  <r_i_glide_hbond>  (259) 
-0.321061

>  <r_i_glide_metal>  (259) 
-0

>  <r_i_glide_rewards>  (259) 
-0.984933

>  <r_i_glide_evdw>  (259) 
-31.6884

>  <r_i_glide_ecoul>  (259) 
-4.15145

>  <r_i_glide_erotb>  (259) 
0.265643

>  <r_i_glide_esite>  (259) 
-0.0371187

>  <r_i_glide_emodel>  (259) 
-46.5518

>  <r_i_glide_energy>  (259) 
-35.8398

>  <r_i_glide_einternal>  (259) 
2.53332

>  <r_i_glide_intrahb_reward>  (259) 
-0

>  <i_i_glide_confnum>  (259) 
2

>  <i_i_glide_posenum>  (259) 
32

>  <r_i_glide_eff_state_penalty>  (259) 
0

>  <ligand_id>  (259) 
75

>  <original_smiles>  (259) 
COC(=O)C1=CC2CC3C1C1C4c5c(c(O)n(CC(=O)O)c5O)C5C2C1C5C34

>  <smiles>  (259) 
[H]C1=C(C(=O)OC([H])([H])[H])C2([H])C3([H])C([H])([H])C1([H])C1([H])C4([H])C5([H])C(=O)N(C([H])([H])C(=O)[O-])C(=O)C5([H])C5([H])C2([H])C1([H])C4([H])C35[H]

$$$$
76:0:0
     RDKit          3D

 69 76  0  0  1  0  0  0  0  0999 V2000
    0.4002    0.6344    8.1280 C   0  0  0  0  0  0  0  0  0  0  0  0
    0.3682   -0.1771    6.8274 C   0  0  0  0  0  0  0  0  0  0  0  0
   -0.4155   -1.1266    6.7808 O   0  0  0  0  0  0  0  0  0  0  0  0
    1.3051    0.1832    5.6247 C   0  0  2  0  0  0  0  0  0  0  0  0
    0.5561   -0.2935    4.3034 C   0  0  0  0  0  0  0  0  0  0  0  0
   -0.3054    0.7721    3.5980 C   0  0  1  0  0  0  0  0  0  0  0  0
   -1.5984    1.1516    4.3607 C   0  0  0  0  0  0  0  0  0  0  0  0
   -2.2094    2.5332    4.0470 C   0  0  0  0  0  0  0  0  0  0  0  0
   -2.0301    3.5431    5.1922 C   0  0  0  0  0  0  0  0  0  0  0  0
   -0.6336    3.5936    5.8341 C   0  0  0  0  0  0  0  0  0  0  0  0
    0.5019    3.7855    4.8340 C   0  0  0  0  0  0  0  0  0  0  0  0
    0.6292    4.9266    4.3854 O   0  0  0  0  0  0  0  0  0  0  0  0
    1.3223    2.5434    4.4443 C   0  0  1  0  0  0  0  0  0  0  0  0
    0.6569    1.8904    3.2327 C   0  0  0  0  0  0  0  0  0  0  0  0
    2.8486    2.7583    4.2799 C   0  0  1  0  0  0  0  0  0  0  0  0
    3.4073    4.0994    4.4846 N   0  0  0  0  0  0  0  0  0  0  0  0
    3.7486    4.6460    5.6618 C   0  0  0  0  0  0  0  0  0  0  0  0
    4.3036    5.7407    5.7600 O   0  0  0  0  0  0  0  0  0  0  0  0
    3.4343    3.8478    6.9155 C   0  0  0  0  0  0  0  0  0  0  0  0
    3.7811    2.3646    6.7094 C   0  0  0  0  0  0  0  0  0  0  0  0
    3.1491    1.7672    5.4171 C   0  0  2  0  0  0  0  0  0  0  0  0
    3.6027    0.3498    5.0095 C   0  0  1  0  0  0  0  0  0  0  0  0
    5.1189    0.0316    5.0502 C   0  0  0  0  0  0  0  0  0  0  0  0
    5.4081   -1.2313    5.8758 C   0  0  2  0  0  0  0  0  0  0  0  0
    5.0176   -2.4984    5.0996 C   0  0  0  0  0  0  0  0  0  0  0  0
    3.6312   -2.4669    4.4012 C   0  0  1  0  0  0  0  0  0  0  0  0
    3.2060   -3.8810    3.9832 C   0  0  0  0  0  0  0  0  0  0  0  0
    2.5509   -1.9410    5.1813 O   0  0  0  0  0  0  0  0  0  0  0  0
    2.6685   -0.6270    5.7508 C   0  0  2  0  0  0  0  0  0  0  0  0
    3.2330   -0.8410    7.1636 C   0  0  1  0  0  0  0  0  0  0  0  0
    3.6997   -2.1581    7.7535 C   0  0  0  0  0  0  0  0  0  0  0  0
    4.7131   -1.1575    7.2191 C   0  0  1  0  0  0  0  0  0  0  0  0
    1.6949    1.6441    5.5858 N   0  0  0  0  0  0  0  0  0  0  0  0
    0.4912    1.6994    7.9266 H   0  0  0  0  0  0  0  0  0  0  0  0
    1.2045    0.3393    8.7962 H   0  0  0  0  0  0  0  0  0  0  0  0
   -0.5215    0.4658    8.6909 H   0  0  0  0  0  0  0  0  0  0  0  0
    1.2789   -0.6438    3.5642 H   0  0  0  0  0  0  0  0  0  0  0  0
   -0.0593   -1.1867    4.4422 H   0  0  0  0  0  0  0  0  0  0  0  0
   -0.6383    0.3619    2.6443 H   0  0  0  0  0  0  0  0  0  0  0  0
   -2.3231    0.3835    4.1081 H   0  0  0  0  0  0  0  0  0  0  0  0
   -1.5029    1.0480    5.4378 H   0  0  0  0  0  0  0  0  0  0  0  0
   -1.8416    2.9441    3.1090 H   0  0  0  0  0  0  0  0  0  0  0  0
   -3.2821    2.4252    3.8850 H   0  0  0  0  0  0  0  0  0  0  0  0
   -2.2946    4.5315    4.8186 H   0  0  0  0  0  0  0  0  0  0  0  0
   -2.7523    3.3197    5.9796 H   0  0  0  0  0  0  0  0  0  0  0  0
   -0.5967    4.4367    6.5192 H   0  0  0  0  0  0  0  0  0  0  0  0
   -0.4674    2.7105    6.4373 H   0  0  0  0  0  0  0  0  0  0  0  0
    1.4192    1.4448    2.5982 H   0  0  0  0  0  0  0  0  0  0  0  0
    0.2045    2.6263    2.5681 H   0  0  0  0  0  0  0  0  0  0  0  0
    3.2035    2.3392    3.3446 H   0  0  0  0  0  0  0  0  0  0  0  0
    3.7002    4.6060    3.6576 H   0  0  0  0  0  0  0  0  0  0  0  0
    3.9804    4.2572    7.7655 H   0  0  0  0  0  0  0  0  0  0  0  0
    2.3748    3.9735    7.1291 H   0  0  0  0  0  0  0  0  0  0  0  0
    4.8680    2.2896    6.7072 H   0  0  0  0  0  0  0  0  0  0  0  0
    3.4521    1.8507    7.6032 H   0  0  0  0  0  0  0  0  0  0  0  0
    3.3421    0.2381    3.9625 H   0  0  0  0  0  0  0  0  0  0  0  0
    5.4735   -0.1221    4.0297 H   0  0  0  0  0  0  0  0  0  0  0  0
    5.7047    0.8689    5.4151 H   0  0  0  0  0  0  0  0  0  0  0  0
    6.4776   -1.2703    6.0859 H   0  0  0  0  0  0  0  0  0  0  0  0
    5.7623   -2.6450    4.3196 H   0  0  0  0  0  0  0  0  0  0  0  0
    5.1186   -3.3732    5.7461 H   0  0  0  0  0  0  0  0  0  0  0  0
    3.7072   -1.8761    3.4880 H   0  0  0  0  0  0  0  0  0  0  0  0
    3.9657   -4.3564    3.3601 H   0  0  0  0  0  0  0  0  0  0  0  0
    2.2748   -3.8537    3.4161 H   0  0  0  0  0  0  0  0  0  0  0  0
    3.0446   -4.5184    4.8554 H   0  0  0  0  0  0  0  0  0  0  0  0
    3.0067   -0.0843    7.8855 H   0  0  0  0  0  0  0  0  0  0  0  0
    3.6359   -2.2290    8.8339 H   0  0  0  0  0  0  0  0  0  0  0  0
    3.5001   -3.0741    7.2118 H   0  0  0  0  0  0  0  0  0  0  0  0
    5.2430   -0.5718    7.9609 H   0  0  0  0  0  0  0  0  0  0  0  0
  1  2  1  0
  1 34  1  0
  1 35  1  0
  1 36  1  0
  2  3  2  0
  4  2  1  1
  4 29  1  0
  4 33  1  0
  4  5  1  0
  5  6  1  0
  5 37  1  0
  5 38  1  0
  6 14  1  0
  6  7  1  0
  6 39  1  6
  7  8  1  0
  7 40  1  0
  7 41  1  0
  8  9  1  0
  8 42  1  0
  8 43  1  0
  9 10  1  0
  9 44  1  0
  9 45  1  0
 10 11  1  0
 10 46  1  0
 10 47  1  0
 11 12  2  0
 13 11  1  1
 13 33  1  0
 13 14  1  0
 13 15  1  0
 14 48  1  0
 14 49  1  0
 15 21  1  0
 15 16  1  0
 15 50  1  6
 16 17  1  0
 16 51  1  0
 17 18  2  0
 17 19  1  0
 19 20  1  0
 19 52  1  0
 19 53  1  0
 21 20  1  1
 20 54  1  0
 20 55  1  0
 21 22  1  0
 21 33  1  0
 22 29  1  0
 22 23  1  0
 22 56  1  6
 23 24  1  0
 23 57  1  0
 23 58  1  0
 24 32  1  0
 24 25  1  0
 24 59  1  1
 25 26  1  0
 25 60  1  0
 25 61  1  0
 26 27  1  0
 26 28  1  0
 26 62  1  6
 27 63  1  0
 27 64  1  0
 27 65  1  0
 29 28  1  6
 29 30  1  0
 30 32  1  0
 30 31  1  0
 30 66  1  1
 31 32  1  0
 31 67  1  0
 31 68  1  0
 32 69  1  1
M  END
>  <i_m_ct_stereo_status>  (260) 
1

>  <s_m_source_file>  (260) 
/var/tmp/pbs.5076255.sched01/tmpthapbt4w/86pc0xbys0.sdf

>  <i_m_source_file_index>  (260) 
30

>  <i_lp_mmshare_version>  (260) 
48012

>  <i_f3d_flags>  (260) 
0

>  <s_epik_input>  (260) 
W05IXTFDKD1PKVtDSDJdW0NIMl1bQ0BAXTIoW0NASF0xW0NAQF0zNDUpW0NAQEhdNltDQEBdNyhbQ0BASF04W0NAQEhdKFtDSDJdOClbQ0BIXShbQ0gyXTYpW0NIMl1bQ0BIXShPNylbQ0gzXSlbQ0BdKE4yNSkoQyg9TylbQ0gzXSlbQ0gyXVtDQEhdKFtDSDJdNClbQ0gyXVtDSDJdW0NIMl1bQ0gyXUMzPU8=

>  <s_epik_cmdline>  (260) 
J2VwaWtfcHl0aG9uJywgJy1waHQnLCAnMi4wJywgJy1waCcsICc3LjAnLCAnLXRuJywgJzgnLCAnLW1hJywgJzIwMCcsICctaW1hZScsICc8aW5maWxlLm1hZT4nLCAnLW9tYWUnLCAnPG91dGZpbGUubWFlPic=

>  <r_lp_tautomer_probability>  (260) 
0.9999

>  <r_epik_Ionization_Penalty>  (260) 
0.0242567

>  <r_epik_Ionization_Penalty_Charging>  (260) 
0

>  <r_epik_Ionization_Penalty_Neutral>  (260) 
0.0242567

>  <r_epik_State_Penalty>  (260) 
0.0196798

>  <r_epik_Charging_Adjusted_Penalty>  (260) 
0.0196798

>  <i_epik_Tot_Q>  (260) 
0

>  <i_epik_Tot_abs_Q>  (260) 
0

>  <s_lp_Force_Field>  (260) 
OPLS3e

>  <r_lp_Energy>  (260) 
83.3867

>  <b_lp_Chiralities_Consistent>  (260) 
1

>  <s_lp_Variant>  (260) 
76:0-1

>  <s_i_glide_gridfile>  (260) 
pfpi4k_grid

>  <i_i_glide_lignum>  (260) 
30

>  <i_i_glide_rotatable_bonds>  (260) 
1

>  <r_i_docking_score>  (260) 
-1.92518

>  <r_i_glide_ligand_efficiency>  (260) 
-0.0583389

>  <r_i_glide_ligand_efficiency_sa>  (260) 
-0.187124

>  <r_i_glide_ligand_efficiency_ln>  (260) 
-0.428151

>  <r_i_glide_gscore>  (260) 
-1.92518

>  <r_i_glide_lipo>  (260) 
-0.108606

>  <r_i_glide_hbond>  (260) 
-4.82488e-05

>  <r_i_glide_metal>  (260) 
-0

>  <r_i_glide_rewards>  (260) 
-0.323279

>  <r_i_glide_evdw>  (260) 
-22.0129

>  <r_i_glide_ecoul>  (260) 
-2.27751

>  <r_i_glide_erotb>  (260) 
0

>  <r_i_glide_esite>  (260) 
-0.0509804

>  <r_i_glide_emodel>  (260) 
-25.5321

>  <r_i_glide_energy>  (260) 
-24.2904

>  <r_i_glide_einternal>  (260) 
1.78987

>  <r_i_glide_intrahb_reward>  (260) 
-0

>  <i_i_glide_confnum>  (260) 
2

>  <i_i_glide_posenum>  (260) 
5

>  <r_i_glide_eff_state_penalty>  (260) 
0

>  <ligand_id>  (260) 
76

>  <original_smiles>  (260) 
CC(=O)C12CC3CCCCC(=O)C4(C3)C3NC(=O)CCC3(C3CC5CC(C)OC31C1CC51)N42

>  <smiles>  (260) 
[H]N1C(=O)C([H])([H])C([H])([H])C23N4C5(C(=O)C([H])([H])C([H])([H])C([H])([H])C([H])([H])C([H])(C5([H])[H])C([H])([H])C4(C(=O)C([H])([H])[H])C45OC([H])(C([H])([H])[H])C([H])([H])C([H])(C([H])([H])C42[H])C2([H])C([H])([H])C25[H])C13[H]

$$$$
76:1:0
     RDKit          3D

 70 77  0  0  1  0  0  0  0  0999 V2000
    1.7302   -4.4445   -0.7889 C   0  0  0  0  0  0  0  0  0  0  0  0
    2.0866   -5.3676    0.3781 C   0  0  0  0  0  0  0  0  0  0  0  0
    1.3078   -6.3059    0.5279 O   0  0  0  0  0  0  0  0  0  0  0  0
    3.4005   -5.2286    1.2111 C   0  0  2  0  0  0  0  0  0  0  0  0
    4.6082   -5.4966    0.2242 C   0  0  0  0  0  0  0  0  0  0  0  0
    5.3438   -4.2761   -0.3998 C   0  0  1  0  0  0  0  0  0  0  0  0
    4.5727   -3.4212   -1.4185 C   0  0  0  0  0  0  0  0  0  0  0  0
    5.2211   -2.1832   -2.0093 C   0  0  0  0  0  0  0  0  0  0  0  0
    4.6681   -0.8989   -1.3437 C   0  0  0  0  0  0  0  0  0  0  0  0
    4.9693   -0.7060    0.1602 C   0  0  0  0  0  0  0  0  0  0  0  0
    4.0969   -1.5725    1.1071 C   0  0  0  0  0  0  0  0  0  0  0  0
    2.9896   -1.1779    1.4137 O   0  0  0  0  0  0  0  0  0  0  0  0
    4.6851   -2.8964    1.6294 C   0  0  1  0  0  0  0  0  0  0  0  0
    5.8330   -3.4710    0.7769 C   0  0  0  0  0  0  0  0  0  0  0  0
    4.9621   -2.9446    3.1355 C   0  0  1  0  0  0  0  0  0  0  0  0
    4.8688   -1.7066    3.9137 N   0  0  0  0  0  0  0  0  0  0  0  0
    4.0766   -1.5367    4.9900 C   0  0  0  0  0  0  0  0  0  0  0  0
    4.1367   -0.5286    5.6729 O   0  0  0  0  0  0  0  0  0  0  0  0
    3.1194   -2.6613    5.3841 C   0  0  0  0  0  0  0  0  0  0  0  0
    2.6489   -3.4622    4.1664 C   0  0  0  0  0  0  0  0  0  0  0  0
    3.8391   -3.9629    3.3291 C   0  0  2  0  0  0  0  0  0  0  0  0
    4.2394   -5.4492    3.4943 C   0  0  1  0  0  0  0  0  0  0  0  0
    4.2065   -6.0497    4.9241 C   0  0  0  0  0  0  0  0  0  0  0  0
    3.4908   -7.4167    4.9888 C   0  0  2  0  0  0  0  0  0  0  0  0
    4.2751   -8.5391    4.2770 C   0  0  0  0  0  0  0  0  0  0  0  0
    4.8396   -8.2086    2.8743 C   0  0  1  0  0  0  0  0  0  0  0  0
    5.2357   -9.4880    2.1277 C   0  0  0  0  0  0  0  0  0  0  0  0
    3.9431   -7.4966    2.0240 O   0  0  0  0  0  0  0  0  0  0  0  0
    3.4084   -6.2384    2.4543 C   0  0  2  0  0  0  0  0  0  0  0  0
    2.0461   -6.5650    3.1091 C   0  0  1  0  0  0  0  0  0  0  0  0
    1.4798   -7.9550    3.2694 C   0  0  0  0  0  0  0  0  0  0  0  0
    2.0895   -7.2428    4.4503 C   0  0  1  0  0  0  0  0  0  0  0  0
    3.5604   -3.8701    1.8811 N   0  0  2  0  0  0  0  0  0  0  0  0
    2.4518   -4.5209   -1.5684 H   0  0  0  0  0  0  0  0  0  0  0  0
    1.5695   -3.4283   -0.4173 H   0  0  0  0  0  0  0  0  0  0  0  0
    0.8134   -4.8139   -1.2542 H   0  0  0  0  0  0  0  0  0  0  0  0
    5.3708   -6.0609    0.7520 H   0  0  0  0  0  0  0  0  0  0  0  0
    4.2948   -6.1936   -0.5449 H   0  0  0  0  0  0  0  0  0  0  0  0
    6.2180   -4.6590   -0.9238 H   0  0  0  0  0  0  0  0  0  0  0  0
    4.2867   -4.0494   -2.2421 H   0  0  0  0  0  0  0  0  0  0  0  0
    3.6793   -3.0241   -0.9769 H   0  0  0  0  0  0  0  0  0  0  0  0
    6.3125   -2.2707   -1.9861 H   0  0  0  0  0  0  0  0  0  0  0  0
    4.8934   -2.1527   -3.0589 H   0  0  0  0  0  0  0  0  0  0  0  0
    5.0930   -0.0793   -1.9086 H   0  0  0  0  0  0  0  0  0  0  0  0
    3.5889   -0.7865   -1.5013 H   0  0  0  0  0  0  0  0  0  0  0  0
    6.0305   -0.7863    0.3619 H   0  0  0  0  0  0  0  0  0  0  0  0
    4.7367    0.3197    0.4163 H   0  0  0  0  0  0  0  0  0  0  0  0
    6.4424   -4.1423    1.3785 H   0  0  0  0  0  0  0  0  0  0  0  0
    6.5447   -2.7224    0.4347 H   0  0  0  0  0  0  0  0  0  0  0  0
    5.8793   -3.4817    3.3079 H   0  0  0  0  0  0  0  0  0  0  0  0
    5.5676   -0.9839    3.7632 H   0  0  0  0  0  0  0  0  0  0  0  0
    3.6307   -3.2884    6.1131 H   0  0  0  0  0  0  0  0  0  0  0  0
    2.2738   -2.2213    5.9141 H   0  0  0  0  0  0  0  0  0  0  0  0
    1.9687   -4.2536    4.4806 H   0  0  0  0  0  0  0  0  0  0  0  0
    2.0512   -2.7677    3.5711 H   0  0  0  0  0  0  0  0  0  0  0  0
    5.2628   -5.5426    3.1400 H   0  0  0  0  0  0  0  0  0  0  0  0
    5.2246   -6.1524    5.2800 H   0  0  0  0  0  0  0  0  0  0  0  0
    3.7310   -5.3736    5.6276 H   0  0  0  0  0  0  0  0  0  0  0  0
    3.3896   -7.6941    6.0419 H   0  0  0  0  0  0  0  0  0  0  0  0
    5.1213   -8.7882    4.9093 H   0  0  0  0  0  0  0  0  0  0  0  0
    3.6712   -9.4477    4.2636 H   0  0  0  0  0  0  0  0  0  0  0  0
    5.7507   -7.6228    2.9869 H   0  0  0  0  0  0  0  0  0  0  0  0
    5.9420  -10.0858    2.7035 H   0  0  0  0  0  0  0  0  0  0  0  0
    5.7031   -9.2558    1.1729 H   0  0  0  0  0  0  0  0  0  0  0  0
    4.3710  -10.1184    1.9203 H   0  0  0  0  0  0  0  0  0  0  0  0
    1.2944   -5.7939    3.0378 H   0  0  0  0  0  0  0  0  0  0  0  0
    0.3984   -8.0512    3.2949 H   0  0  0  0  0  0  0  0  0  0  0  0
    2.0168   -8.7963    2.8520 H   0  0  0  0  0  0  0  0  0  0  0  0
    1.3927   -6.8289    5.1667 H   0  0  0  0  0  0  0  0  0  0  0  0
    2.7201   -3.3106    1.7719 H   0  0  0  0  0  0  0  0  0  0  0  0
  1  2  1  0
  1 34  1  0
  1 35  1  0
  1 36  1  0
  2  3  2  0
  4  2  1  6
  4 29  1  0
  4 33  1  0
  4  5  1  0
  5  6  1  0
  5 37  1  0
  5 38  1  0
  6 14  1  0
  6  7  1  0
  6 39  1  6
  7  8  1  0
  7 40  1  0
  7 41  1  0
  8  9  1  0
  8 42  1  0
  8 43  1  0
  9 10  1  0
  9 44  1  0
  9 45  1  0
 10 11  1  0
 10 46  1  0
 10 47  1  0
 11 12  2  0
 13 11  1  6
 13 33  1  0
 13 14  1  0
 13 15  1  0
 14 48  1  0
 14 49  1  0
 15 21  1  0
 15 16  1  0
 15 50  1  6
 16 17  1  0
 16 51  1  0
 17 18  2  0
 17 19  1  0
 19 20  1  0
 19 52  1  0
 19 53  1  0
 21 20  1  1
 20 54  1  0
 20 55  1  0
 21 22  1  0
 21 33  1  0
 22 29  1  0
 22 23  1  0
 22 56  1  6
 23 24  1  0
 23 57  1  0
 23 58  1  0
 24 32  1  0
 24 25  1  0
 24 59  1  1
 25 26  1  0
 25 60  1  0
 25 61  1  0
 26 27  1  0
 26 28  1  0
 26 62  1  1
 27 63  1  0
 27 64  1  0
 27 65  1  0
 29 28  1  6
 29 30  1  0
 30 32  1  0
 30 31  1  0
 30 66  1  1
 31 32  1  0
 31 67  1  0
 31 68  1  0
 32 69  1  1
 33 70  1  1
M  CHG  1  33   1
M  END
>  <i_m_ct_stereo_status>  (261) 
1

>  <s_m_source_file>  (261) 
/var/tmp/pbs.5076255.sched01/tmpthapbt4w/86pc0xbys0.sdf

>  <i_m_source_file_index>  (261) 
31

>  <i_lp_mmshare_version>  (261) 
48012

>  <i_f3d_flags>  (261) 
0

>  <s_epik_input>  (261) 
W05IXTFDKD1PKVtDSDJdW0NIMl1bQ0BAXTIoW0NASF0xW0NAQF0zNDUpW0NAQEhdNltDQEBdNyhbQ0BASF04W0NAQEhdKFtDSDJdOClbQ0BIXShbQ0gyXTYpW0NIMl1bQ0BIXShPNylbQ0gzXSlbQ0BdKE4yNSkoQyg9TylbQ0gzXSlbQ0gyXVtDQEhdKFtDSDJdNClbQ0gyXVtDSDJdW0NIMl1bQ0gyXUMzPU8=

>  <s_epik_cmdline>  (261) 
J2VwaWtfcHl0aG9uJywgJy1waHQnLCAnMi4wJywgJy1waCcsICc3LjAnLCAnLXRuJywgJzgnLCAnLW1hJywgJzIwMCcsICctaW1hZScsICc8aW5maWxlLm1hZT4nLCAnLW9tYWUnLCAnPG91dGZpbGUubWFlPic=

>  <r_lp_tautomer_probability>  (261) 
0.9999

>  <r_epik_Ionization_Penalty>  (261) 
1.90545

>  <r_epik_Ionization_Penalty_Charging>  (261) 
1.90545

>  <r_epik_Ionization_Penalty_Neutral>  (261) 
7.82624e-08

>  <r_epik_State_Penalty>  (261) 
2.02707

>  <r_epik_Charging_Adjusted_Penalty>  (261) 
3.93252

>  <i_epik_Tot_Q>  (261) 
1

>  <i_epik_Tot_abs_Q>  (261) 
1

>  <s_lp_Force_Field>  (261) 
OPLS3e

>  <r_lp_Energy>  (261) 
80.1738

>  <b_lp_Chiralities_Consistent>  (261) 
1

>  <s_lp_Variant>  (261) 
76:0-2

>  <s_i_glide_gridfile>  (261) 
pfpi4k_grid

>  <i_i_glide_lignum>  (261) 
31

>  <i_i_glide_rotatable_bonds>  (261) 
1

>  <r_i_docking_score>  (261) 
-2.39791

>  <r_i_glide_ligand_efficiency>  (261) 
-0.072664

>  <r_i_glide_ligand_efficiency_sa>  (261) 
-0.233072

>  <r_i_glide_ligand_efficiency_ln>  (261) 
-0.533283

>  <r_i_glide_gscore>  (261) 
-2.39791

>  <r_i_glide_lipo>  (261) 
-0.326158

>  <r_i_glide_hbond>  (261) 
-0.106898

>  <r_i_glide_metal>  (261) 
-0

>  <r_i_glide_rewards>  (261) 
-0.316407

>  <r_i_glide_evdw>  (261) 
-19.8357

>  <r_i_glide_ecoul>  (261) 
-3.83417

>  <r_i_glide_erotb>  (261) 
0

>  <r_i_glide_esite>  (261) 
-0.0815398

>  <r_i_glide_emodel>  (261) 
-23.9263

>  <r_i_glide_energy>  (261) 
-23.6698

>  <r_i_glide_einternal>  (261) 
2.5708

>  <r_i_glide_intrahb_reward>  (261) 
-0

>  <i_i_glide_confnum>  (261) 
1

>  <i_i_glide_posenum>  (261) 
19

>  <r_i_glide_eff_state_penalty>  (261) 
0

>  <ligand_id>  (261) 
76

>  <original_smiles>  (261) 
CC(=O)C12CC3CCCCC(=O)C4(C3)C3NC(=O)CCC3(C3CC5CC(C)OC31C1CC51)N42

>  <smiles>  (261) 
[H]N1C(=O)C([H])([H])C([H])([H])C23C1([H])C14C(=O)C([H])([H])C([H])([H])C([H])([H])C([H])([H])C([H])(C1([H])[H])C([H])([H])C(C(=O)C([H])([H])[H])(C15OC([H])(C([H])([H])[H])C([H])([H])C([H])(C([H])([H])C12[H])C1([H])C([H])([H])C15[H])[N+]43[H]

$$$$
76:1:1
     RDKit          3D

 70 77  0  0  1  0  0  0  0  0999 V2000
    2.6516   -3.4476    3.7065 C   0  0  0  0  0  0  0  0  0  0  0  0
    2.0813   -4.8959    3.7467 C   0  0  0  0  0  0  0  0  0  0  0  0
    0.9759   -5.0962    4.2616 O   0  0  0  0  0  0  0  0  0  0  0  0
    2.7838   -6.1068    3.0599 C   0  0  2  0  0  0  0  0  0  0  0  0
    2.1329   -6.3058    1.6359 C   0  0  0  0  0  0  0  0  0  0  0  0
    2.8642   -5.6887    0.4236 C   0  0  1  0  0  0  0  0  0  0  0  0
    2.8642   -4.1316    0.3301 C   0  0  0  0  0  0  0  0  0  0  0  0
    3.6855   -3.5168   -0.8282 C   0  0  0  0  0  0  0  0  0  0  0  0
    5.0729   -2.9756   -0.3675 C   0  0  0  0  0  0  0  0  0  0  0  0
    6.1061   -4.0117    0.1130 C   0  0  0  0  0  0  0  0  0  0  0  0
    5.8022   -4.5835    1.5185 C   0  0  0  0  0  0  0  0  0  0  0  0
    6.1191   -3.9118    2.4708 O   0  0  0  0  0  0  0  0  0  0  0  0
    5.0867   -5.9360    1.6649 C   0  0  1  0  0  0  0  0  0  0  0  0
    4.2492   -6.3179    0.4396 C   0  0  0  0  0  0  0  0  0  0  0  0
    5.9237   -7.1041    2.2393 C   0  0  1  0  0  0  0  0  0  0  0  0
    7.3614   -6.9153    2.4360 N   0  0  0  0  0  0  0  0  0  0  0  0
    8.0235   -7.0454    3.6236 C   0  0  0  0  0  0  0  0  0  0  0  0
    9.2215   -6.9790    3.6869 O   0  0  0  0  0  0  0  0  0  0  0  0
    7.1831   -7.3223    4.8739 C   0  0  0  0  0  0  0  0  0  0  0  0
    5.7980   -6.6735    4.7955 C   0  0  0  0  0  0  0  0  0  0  0  0
    5.0517   -7.0792    3.5055 C   0  0  2  0  0  0  0  0  0  0  0  0
    3.9551   -8.1603    3.6440 C   0  0  1  0  0  0  0  0  0  0  0  0
    4.2472   -9.3748    4.5673 C   0  0  0  0  0  0  0  0  0  0  0  0
    3.0764   -9.6911    5.5210 C   0  0  2  0  0  0  0  0  0  0  0  0
    1.8531  -10.2733    4.7815 C   0  0  0  0  0  0  0  0  0  0  0  0
    1.4115   -9.5196    3.5023 C   0  0  1  0  0  0  0  0  0  0  0  0
   -0.0104   -9.9144    3.0928 C   0  0  0  0  0  0  0  0  0  0  0  0
    1.4206   -8.0941    3.6087 O   0  0  0  0  0  0  0  0  0  0  0  0
    2.6353   -7.4108    3.9613 C   0  0  2  0  0  0  0  0  0  0  0  0
    2.5599   -7.1954    5.4924 C   0  0  1  0  0  0  0  0  0  0  0  0
    1.4498   -7.7187    6.3837 C   0  0  0  0  0  0  0  0  0  0  0  0
    2.7756   -8.4363    6.3253 C   0  0  1  0  0  0  0  0  0  0  0  0
    4.3019   -5.9281    2.9595 N   0  0  2  0  0  0  0  0  0  0  0  0
    2.9827   -3.1305    2.7462 H   0  0  0  0  0  0  0  0  0  0  0  0
    3.4915   -3.3688    4.4166 H   0  0  0  0  0  0  0  0  0  0  0  0
    1.8384   -2.7433    3.9560 H   0  0  0  0  0  0  0  0  0  0  0  0
    2.0641   -7.3768    1.4239 H   0  0  0  0  0  0  0  0  0  0  0  0
    1.0926   -5.9929    1.6379 H   0  0  0  0  0  0  0  0  0  0  0  0
    2.3368   -6.0609   -0.4538 H   0  0  0  0  0  0  0  0  0  0  0  0
    1.8411   -3.7824    0.2807 H   0  0  0  0  0  0  0  0  0  0  0  0
    3.3706   -3.7364    1.1605 H   0  0  0  0  0  0  0  0  0  0  0  0
    3.7760   -4.2013   -1.6800 H   0  0  0  0  0  0  0  0  0  0  0  0
    3.1090   -2.6379   -1.1567 H   0  0  0  0  0  0  0  0  0  0  0  0
    5.4984   -2.4584   -1.2203 H   0  0  0  0  0  0  0  0  0  0  0  0
    4.9694   -2.1991    0.3916 H   0  0  0  0  0  0  0  0  0  0  0  0
    6.2507   -4.7914   -0.6242 H   0  0  0  0  0  0  0  0  0  0  0  0
    7.0728   -3.5213    0.1789 H   0  0  0  0  0  0  0  0  0  0  0  0
    4.1171   -7.4034    0.4214 H   0  0  0  0  0  0  0  0  0  0  0  0
    4.7566   -6.1229   -0.5031 H   0  0  0  0  0  0  0  0  0  0  0  0
    5.7283   -8.0256    1.6933 H   0  0  0  0  0  0  0  0  0  0  0  0
    7.9632   -6.8450    1.6266 H   0  0  0  0  0  0  0  0  0  0  0  0
    7.1221   -8.4025    4.9999 H   0  0  0  0  0  0  0  0  0  0  0  0
    7.7380   -6.9519    5.7392 H   0  0  0  0  0  0  0  0  0  0  0  0
    5.2378   -6.8863    5.7031 H   0  0  0  0  0  0  0  0  0  0  0  0
    5.9712   -5.5933    4.8021 H   0  0  0  0  0  0  0  0  0  0  0  0
    3.8070   -8.5703    2.6470 H   0  0  0  0  0  0  0  0  0  0  0  0
    4.4790  -10.2459    3.9577 H   0  0  0  0  0  0  0  0  0  0  0  0
    5.1311   -9.2071    5.1738 H   0  0  0  0  0  0  0  0  0  0  0  0
    3.4150  -10.4538    6.2281 H   0  0  0  0  0  0  0  0  0  0  0  0
    2.0961  -11.2953    4.4908 H   0  0  0  0  0  0  0  0  0  0  0  0
    1.0292  -10.3893    5.4867 H   0  0  0  0  0  0  0  0  0  0  0  0
    2.0585   -9.8159    2.6776 H   0  0  0  0  0  0  0  0  0  0  0  0
   -0.0984  -10.9938    2.9761 H   0  0  0  0  0  0  0  0  0  0  0  0
   -0.2935   -9.4577    2.1459 H   0  0  0  0  0  0  0  0  0  0  0  0
   -0.7419   -9.6078    3.8401 H   0  0  0  0  0  0  0  0  0  0  0  0
    3.0591   -6.3089    5.8656 H   0  0  0  0  0  0  0  0  0  0  0  0
    1.2437   -7.1720    7.3021 H   0  0  0  0  0  0  0  0  0  0  0  0
    0.5857   -8.1954    5.9341 H   0  0  0  0  0  0  0  0  0  0  0  0
    3.4298   -8.3062    7.1809 H   0  0  0  0  0  0  0  0  0  0  0  0
    4.5792   -5.0978    3.4692 H   0  0  0  0  0  0  0  0  0  0  0  0
  1  2  1  0
  1 34  1  0
  1 35  1  0
  1 36  1  0
  2  3  2  0
  4  2  1  1
  4 29  1  0
  4 33  1  0
  4  5  1  0
  5  6  1  0
  5 37  1  0
  5 38  1  0
  6 14  1  0
  6  7  1  0
  6 39  1  6
  7  8  1  0
  7 40  1  0
  7 41  1  0
  8  9  1  0
  8 42  1  0
  8 43  1  0
  9 10  1  0
  9 44  1  0
  9 45  1  0
 10 11  1  0
 10 46  1  0
 10 47  1  0
 11 12  2  0
 13 11  1  6
 13 33  1  0
 13 14  1  0
 13 15  1  0
 14 48  1  0
 14 49  1  0
 15 21  1  0
 15 16  1  0
 15 50  1  6
 16 17  1  0
 16 51  1  0
 17 18  2  0
 17 19  1  0
 19 20  1  0
 19 52  1  0
 19 53  1  0
 21 20  1  1
 20 54  1  0
 20 55  1  0
 21 22  1  0
 21 33  1  0
 22 29  1  0
 22 23  1  0
 22 56  1  6
 23 24  1  0
 23 57  1  0
 23 58  1  0
 24 32  1  0
 24 25  1  0
 24 59  1  1
 25 26  1  0
 25 60  1  0
 25 61  1  0
 26 27  1  0
 26 28  1  0
 26 62  1  6
 27 63  1  0
 27 64  1  0
 27 65  1  0
 29 28  1  6
 29 30  1  0
 30 32  1  0
 30 31  1  0
 30 66  1  1
 31 32  1  0
 31 67  1  0
 31 68  1  0
 32 69  1  1
 33 70  1  1
M  CHG  1  33   1
M  END
>  <i_m_ct_stereo_status>  (262) 
1

>  <s_m_source_file>  (262) 
/var/tmp/pbs.5076255.sched01/tmpthapbt4w/86pc0xbys0.sdf

>  <i_m_source_file_index>  (262) 
31

>  <i_lp_mmshare_version>  (262) 
48012

>  <i_f3d_flags>  (262) 
0

>  <s_epik_input>  (262) 
W05IXTFDKD1PKVtDSDJdW0NIMl1bQ0BAXTIoW0NASF0xW0NAQF0zNDUpW0NAQEhdNltDQEBdNyhbQ0BASF04W0NAQEhdKFtDSDJdOClbQ0BIXShbQ0gyXTYpW0NIMl1bQ0BIXShPNylbQ0gzXSlbQ0BdKE4yNSkoQyg9TylbQ0gzXSlbQ0gyXVtDQEhdKFtDSDJdNClbQ0gyXVtDSDJdW0NIMl1bQ0gyXUMzPU8=

>  <s_epik_cmdline>  (262) 
J2VwaWtfcHl0aG9uJywgJy1waHQnLCAnMi4wJywgJy1waCcsICc3LjAnLCAnLXRuJywgJzgnLCAnLW1hJywgJzIwMCcsICctaW1hZScsICc8aW5maWxlLm1hZT4nLCAnLW9tYWUnLCAnPG91dGZpbGUubWFlPic=

>  <r_lp_tautomer_probability>  (262) 
0.9999

>  <r_epik_Ionization_Penalty>  (262) 
1.90545

>  <r_epik_Ionization_Penalty_Charging>  (262) 
1.90545

>  <r_epik_Ionization_Penalty_Neutral>  (262) 
7.82624e-08

>  <r_epik_State_Penalty>  (262) 
2.02707

>  <r_epik_Charging_Adjusted_Penalty>  (262) 
3.93252

>  <i_epik_Tot_Q>  (262) 
1

>  <i_epik_Tot_abs_Q>  (262) 
1

>  <s_lp_Force_Field>  (262) 
OPLS3e

>  <r_lp_Energy>  (262) 
80.1738

>  <b_lp_Chiralities_Consistent>  (262) 
1

>  <s_lp_Variant>  (262) 
76:0-2

>  <s_i_glide_gridfile>  (262) 
pfpi4k_grid

>  <i_i_glide_lignum>  (262) 
31

>  <i_i_glide_rotatable_bonds>  (262) 
1

>  <r_i_docking_score>  (262) 
-2.20087

>  <r_i_glide_ligand_efficiency>  (262) 
-0.0666931

>  <r_i_glide_ligand_efficiency_sa>  (262) 
-0.213921

>  <r_i_glide_ligand_efficiency_ln>  (262) 
-0.489463

>  <r_i_glide_gscore>  (262) 
-2.20087

>  <r_i_glide_lipo>  (262) 
-0.339155

>  <r_i_glide_hbond>  (262) 
0

>  <r_i_glide_metal>  (262) 
-0

>  <r_i_glide_rewards>  (262) 
-0.398638

>  <r_i_glide_evdw>  (262) 
-23.9846

>  <r_i_glide_ecoul>  (262) 
-1.70222

>  <r_i_glide_erotb>  (262) 
0

>  <r_i_glide_esite>  (262) 
-0.00851589

>  <r_i_glide_emodel>  (262) 
-26.0763

>  <r_i_glide_energy>  (262) 
-25.6869

>  <r_i_glide_einternal>  (262) 
0.816743

>  <r_i_glide_intrahb_reward>  (262) 
-0

>  <i_i_glide_confnum>  (262) 
1

>  <i_i_glide_posenum>  (262) 
12

>  <r_i_glide_eff_state_penalty>  (262) 
0

>  <ligand_id>  (262) 
76

>  <original_smiles>  (262) 
CC(=O)C12CC3CCCCC(=O)C4(C3)C3NC(=O)CCC3(C3CC5CC(C)OC31C1CC51)N42

>  <smiles>  (262) 
[H]N1C(=O)C([H])([H])C([H])([H])C23C1([H])C14C(=O)C([H])([H])C([H])([H])C([H])([H])C([H])([H])C([H])(C1([H])[H])C([H])([H])C(C(=O)C([H])([H])[H])(C15OC([H])(C([H])([H])[H])C([H])([H])C([H])(C([H])([H])C12[H])C1([H])C([H])([H])C15[H])[N+]43[H]

$$$$
77:0:0
     RDKit          3D

 76 82  0  0  1  0  0  0  0  0999 V2000
   -1.7155   -8.7012    3.2872 C   0  0  0  0  0  0  0  0  0  0  0  0
   -0.3170   -8.1319    3.2926 C   0  0  0  0  0  0  0  0  0  0  0  0
    0.7954   -8.6876    2.8033 C   0  0  0  0  0  0  0  0  0  0  0  0
    1.9797   -7.7487    2.8985 C   0  0  1  0  0  0  0  0  0  0  0  0
    2.2140   -7.1085    1.5029 C   0  0  0  0  0  0  0  0  0  0  0  0
    2.9270   -5.7307    1.4840 C   0  0  1  0  0  0  0  0  0  0  0  0
    2.7593   -5.1777    0.1874 O   0  0  0  0  0  0  0  0  0  0  0  0
    2.2941   -4.7469    2.5076 C   0  0  2  0  0  0  0  0  0  0  0  0
    3.0603   -3.4610    2.9708 C   0  0  2  0  0  0  0  0  0  0  0  0
    4.2836   -4.0828    3.7015 C   0  0  0  0  0  0  0  0  0  0  0  0
    3.7025   -5.3663    4.3363 C   0  0  0  0  0  0  0  0  0  0  0  0
    2.2138   -5.3597    3.9057 C   0  0  1  0  0  0  0  0  0  0  0  0
    1.5576   -4.2004    4.6518 C   0  0  0  0  0  0  0  0  0  0  0  0
    0.7345   -4.2838    5.5612 O   0  0  0  0  0  0  0  0  0  0  0  0
    2.1089   -2.9066    4.0702 C   0  0  2  0  0  0  0  0  0  0  0  0
    1.0030   -1.9751    3.5385 C   0  0  0  0  0  0  0  0  0  0  0  0
    1.4171   -0.4884    3.4403 C   0  0  2  0  0  0  0  0  0  0  0  0
    0.6358    0.2173    2.3121 C   0  0  0  0  0  0  0  0  0  0  0  0
    2.9278   -0.2276    3.2803 C   0  0  0  0  0  0  0  0  0  0  0  0
    3.3160    0.7688    4.0981 C   0  0  0  0  0  0  0  0  0  0  0  0
    2.1614    1.3564    4.8657 C   0  0  2  0  0  0  0  0  0  0  0  0
    2.3745    1.7942    6.3189 C   0  0  0  0  0  0  0  0  0  0  0  0
    1.0100    2.2336    6.9115 C   0  0  0  0  0  0  0  0  0  0  0  0
   -0.1155    1.1879    6.7151 C   0  0  0  0  0  0  0  0  0  0  0  0
   -0.2222    0.6708    5.2608 C   0  0  0  0  0  0  0  0  0  0  0  0
    1.1704    0.2021    4.8119 C   0  0  1  0  0  0  0  0  0  0  0  0
    3.8659   -0.9688    2.2954 C   0  0  0  0  0  0  0  0  0  0  0  0
    3.9404   -0.1017    1.0225 C   0  0  0  0  0  0  0  0  0  0  0  0
    5.2992   -1.0211    2.8917 C   0  0  0  0  0  0  0  0  0  0  0  0
    3.3759   -2.4025    1.8641 C   0  0  1  0  0  0  0  0  0  0  0  0
    4.2981   -2.9713    0.9539 O   0  0  0  0  0  0  0  0  0  0  0  0
    1.4962   -6.7369    3.9793 C   0  0  2  0  0  0  0  0  0  0  0  0
    1.7706   -7.2977    5.2508 O   0  0  0  0  0  0  0  0  0  0  0  0
   -0.0471   -6.7600    3.8433 C   0  0  0  0  0  0  0  0  0  0  0  0
   -2.0720   -8.7629    4.3166 H   0  0  0  0  0  0  0  0  0  0  0  0
   -1.7274   -9.7076    2.8632 H   0  0  0  0  0  0  0  0  0  0  0  0
   -2.3942   -8.0637    2.7206 H   0  0  0  0  0  0  0  0  0  0  0  0
    0.8694   -9.6637    2.3463 H   0  0  0  0  0  0  0  0  0  0  0  0
    2.8723   -8.2842    3.2262 H   0  0  0  0  0  0  0  0  0  0  0  0
    2.7895   -7.8092    0.8930 H   0  0  0  0  0  0  0  0  0  0  0  0
    1.2519   -7.0071    0.9968 H   0  0  0  0  0  0  0  0  0  0  0  0
    3.9930   -5.8847    1.6678 H   0  0  0  0  0  0  0  0  0  0  0  0
    3.0808   -5.7845   -0.4698 H   0  0  0  0  0  0  0  0  0  0  0  0
    1.2996   -4.5057    2.1395 H   0  0  0  0  0  0  0  0  0  0  0  0
    5.0890   -4.3373    3.0128 H   0  0  0  0  0  0  0  0  0  0  0  0
    4.6898   -3.4266    4.4720 H   0  0  0  0  0  0  0  0  0  0  0  0
    4.2233   -6.2525    3.9700 H   0  0  0  0  0  0  0  0  0  0  0  0
    3.8054   -5.3631    5.4229 H   0  0  0  0  0  0  0  0  0  0  0  0
    2.6587   -2.4047    4.8650 H   0  0  0  0  0  0  0  0  0  0  0  0
    0.6626   -2.3222    2.5640 H   0  0  0  0  0  0  0  0  0  0  0  0
    0.1129   -2.0493    4.1638 H   0  0  0  0  0  0  0  0  0  0  0  0
   -0.4415    0.1623    2.4812 H   0  0  0  0  0  0  0  0  0  0  0  0
    0.8391   -0.2392    1.3420 H   0  0  0  0  0  0  0  0  0  0  0  0
    0.9081    1.2725    2.2360 H   0  0  0  0  0  0  0  0  0  0  0  0
    4.3033    1.1985    4.1543 H   0  0  0  0  0  0  0  0  0  0  0  0
    1.7951    2.2062    4.2848 H   0  0  0  0  0  0  0  0  0  0  0  0
    2.8015    0.9845    6.9114 H   0  0  0  0  0  0  0  0  0  0  0  0
    3.0826    2.6234    6.3666 H   0  0  0  0  0  0  0  0  0  0  0  0
    1.1234    2.4457    7.9738 H   0  0  0  0  0  0  0  0  0  0  0  0
    0.7030    3.1730    6.4509 H   0  0  0  0  0  0  0  0  0  0  0  0
    0.0702    0.3436    7.3786 H   0  0  0  0  0  0  0  0  0  0  0  0
   -1.0719    1.6145    7.0227 H   0  0  0  0  0  0  0  0  0  0  0  0
   -0.9431   -0.1463    5.2028 H   0  0  0  0  0  0  0  0  0  0  0  0
   -0.5883    1.4646    4.6083 H   0  0  0  0  0  0  0  0  0  0  0  0
    1.4919   -0.5201    5.5649 H   0  0  0  0  0  0  0  0  0  0  0  0
    4.6984   -0.4630    0.3287 H   0  0  0  0  0  0  0  0  0  0  0  0
    4.1958    0.9308    1.2620 H   0  0  0  0  0  0  0  0  0  0  0  0
    2.9896   -0.0885    0.4914 H   0  0  0  0  0  0  0  0  0  0  0  0
    5.9750   -1.6388    2.3017 H   0  0  0  0  0  0  0  0  0  0  0  0
    5.3059   -1.4086    3.9082 H   0  0  0  0  0  0  0  0  0  0  0  0
    5.7566   -0.0338    2.9325 H   0  0  0  0  0  0  0  0  0  0  0  0
    2.4695   -2.2668    1.2714 H   0  0  0  0  0  0  0  0  0  0  0  0
    3.8646   -3.7139    0.5458 H   0  0  0  0  0  0  0  0  0  0  0  0
    1.4400   -6.7059    5.9094 H   0  0  0  0  0  0  0  0  0  0  0  0
   -0.3867   -6.0396    3.1089 H   0  0  0  0  0  0  0  0  0  0  0  0
   -0.5786   -6.5913    4.7790 H   0  0  0  0  0  0  0  0  0  0  0  0
  1  2  1  0
  1 35  1  0
  1 36  1  0
  1 37  1  0
  2 34  1  0
  2  3  2  0
  3  4  1  0
  3 38  1  0
  4 32  1  0
  4  5  1  0
  4 39  1  1
  5  6  1  0
  5 40  1  0
  5 41  1  0
  6  7  1  0
  6  8  1  0
  6 42  1  1
  7 43  1  0
  8 12  1  0
  8  9  1  0
  8 44  1  6
  9 15  1  0
  9 30  1  0
  9 10  1  1
 10 11  1  0
 10 45  1  0
 10 46  1  0
 12 11  1  1
 11 47  1  0
 11 48  1  0
 12 13  1  0
 12 32  1  0
 13 14  2  0
 13 15  1  0
 15 16  1  0
 15 49  1  1
 16 17  1  0
 16 50  1  0
 16 51  1  0
 17 26  1  0
 17 18  1  6
 17 19  1  0
 18 52  1  0
 18 53  1  0
 18 54  1  0
 19 20  2  0
 19 27  1  0
 20 21  1  0
 20 55  1  0
 21 26  1  0
 21 22  1  0
 21 56  1  6
 22 23  1  0
 22 57  1  0
 22 58  1  0
 23 24  1  0
 23 59  1  0
 23 60  1  0
 24 25  1  0
 24 61  1  0
 24 62  1  0
 25 26  1  0
 25 63  1  0
 25 64  1  0
 26 65  1  1
 27 28  1  0
 27 29  1  0
 27 30  1  0
 28 66  1  0
 28 67  1  0
 28 68  1  0
 29 69  1  0
 29 70  1  0
 29 71  1  0
 30 31  1  0
 30 72  1  6
 31 73  1  0
 32 33  1  1
 32 34  1  0
 33 74  1  0
 34 75  1  0
 34 76  1  0
M  END
>  <i_m_ct_stereo_status>  (263) 
1

>  <s_m_source_file>  (263) 
/var/tmp/pbs.5076255.sched01/tmpthapbt4w/86pc0xbys0.sdf

>  <i_m_source_file_index>  (263) 
32

>  <i_lp_mmshare_version>  (263) 
48012

>  <i_f3d_flags>  (263) 
0

>  <s_epik_input>  (263) 
W0NIM11DKFtDSDJdMSk9W0NIXVtDQEBIXShbQ0gyXVtDQEhdMltPSF0pW0NAQF0xKFtPSF0pW0NAXShbQ0BIXTJbQ0BdMzQ1KShbQ0gyXVtDSDJdMylDKD1PKVtDQEBIXTRbQ0gyXVtDQF02KFtDSDNdKUMoQyhbQ0gzXSkoW0NIM10pW0NASF01W09IXSk9W0NIXVtDQEhdN1tDQEhdNltDSDJdW0NIMl1bQ0gyXVtDSDJdNw==

>  <s_epik_cmdline>  (263) 
J2VwaWtfcHl0aG9uJywgJy1waHQnLCAnMi4wJywgJy1waCcsICc3LjAnLCAnLXRuJywgJzgnLCAnLW1hJywgJzIwMCcsICctaW1hZScsICc8aW5maWxlLm1hZT4nLCAnLW9tYWUnLCAnPG91dGZpbGUubWFlPic=

>  <r_lp_tautomer_probability>  (263) 
1

>  <r_epik_Ionization_Penalty>  (263) 
6.66532e-07

>  <r_epik_Ionization_Penalty_Charging>  (263) 
0

>  <r_epik_Ionization_Penalty_Neutral>  (263) 
6.66532e-07

>  <r_epik_State_Penalty>  (263) 
-0

>  <r_epik_Charging_Adjusted_Penalty>  (263) 
0

>  <i_epik_Tot_Q>  (263) 
0

>  <i_epik_Tot_abs_Q>  (263) 
0

>  <s_lp_Force_Field>  (263) 
OPLS3e

>  <r_lp_Energy>  (263) 
51.7806

>  <b_lp_Chiralities_Consistent>  (263) 
1

>  <s_lp_Variant>  (263) 
77:0-1

>  <s_i_glide_gridfile>  (263) 
pfpi4k_grid

>  <i_i_glide_lignum>  (263) 
32

>  <i_i_glide_rotatable_bonds>  (263) 
3

>  <r_i_docking_score>  (263) 
-2.79444

>  <r_i_glide_ligand_efficiency>  (263) 
-0.0821893

>  <r_i_glide_ligand_efficiency_sa>  (263) 
-0.266261

>  <r_i_glide_ligand_efficiency_ln>  (263) 
-0.617369

>  <r_i_glide_gscore>  (263) 
-2.79444

>  <r_i_glide_lipo>  (263) 
-0.199866

>  <r_i_glide_hbond>  (263) 
0

>  <r_i_glide_metal>  (263) 
-0

>  <r_i_glide_rewards>  (263) 
-0.732305

>  <r_i_glide_evdw>  (263) 
-30.0841

>  <r_i_glide_ecoul>  (263) 
-2.38707

>  <r_i_glide_erotb>  (263) 
0

>  <r_i_glide_esite>  (263) 
0

>  <r_i_glide_emodel>  (263) 
-43.0439

>  <r_i_glide_energy>  (263) 
-32.4712

>  <r_i_glide_einternal>  (263) 
0.707521

>  <r_i_glide_intrahb_reward>  (263) 
-0.5

>  <i_i_glide_confnum>  (263) 
1

>  <i_i_glide_posenum>  (263) 
2

>  <r_i_glide_eff_state_penalty>  (263) 
0

>  <ligand_id>  (263) 
77

>  <original_smiles>  (263) 
CC1=CC2CC(O)C3C45CCC3(C(=O)C4CC3(C)C(=CC4CCCCC43)C(C)(C)C5O)C2(O)C1

>  <smiles>  (263) 
[H]OC1([H])C([H])([H])C2([H])C([H])=C(C([H])([H])[H])C([H])([H])C2(O[H])C23C(=O)C4([H])C([H])([H])C5(C([H])([H])[H])C(=C([H])C6([H])C([H])([H])C([H])([H])C([H])([H])C([H])([H])C65[H])C(C([H])([H])[H])(C([H])([H])[H])C([H])(O[H])C4(C([H])([H])C2([H])[H])C13[H]

$$$$
77:0:1
     RDKit          3D

 76 82  0  0  1  0  0  0  0  0999 V2000
   -1.7498   -8.6421    3.5997 C   0  0  0  0  0  0  0  0  0  0  0  0
   -0.3502   -8.0867    3.5044 C   0  0  0  0  0  0  0  0  0  0  0  0
    0.7209   -8.6531    2.9416 C   0  0  0  0  0  0  0  0  0  0  0  0
    1.9177   -7.7286    2.9544 C   0  0  1  0  0  0  0  0  0  0  0  0
    2.0579   -7.0931    1.5485 C   0  0  0  0  0  0  0  0  0  0  0  0
    2.7661   -5.7201    1.4706 C   0  0  1  0  0  0  0  0  0  0  0  0
    2.4548   -5.2197    0.1797 O   0  0  0  0  0  0  0  0  0  0  0  0
    2.2288   -4.7270    2.5423 C   0  0  2  0  0  0  0  0  0  0  0  0
    3.0456   -3.4520    2.9508 C   0  0  2  0  0  0  0  0  0  0  0  0
    4.3093   -4.0878    3.5962 C   0  0  0  0  0  0  0  0  0  0  0  0
    3.7612   -5.3637    4.2692 C   0  0  0  0  0  0  0  0  0  0  0  0
    2.2455   -5.3406    3.9449 C   0  0  1  0  0  0  0  0  0  0  0  0
    1.6517   -4.1707    4.7348 C   0  0  0  0  0  0  0  0  0  0  0  0
    0.8767   -4.2341    5.6868 O   0  0  0  0  0  0  0  0  0  0  0  0
    2.1763   -2.8865    4.1109 C   0  0  2  0  0  0  0  0  0  0  0  0
    1.0439   -1.9426    3.6576 C   0  0  0  0  0  0  0  0  0  0  0  0
    1.4716   -0.4602    3.5328 C   0  0  2  0  0  0  0  0  0  0  0  0
    0.6235    0.2549    2.4606 C   0  0  0  0  0  0  0  0  0  0  0  0
    2.9720   -0.2160    3.2711 C   0  0  0  0  0  0  0  0  0  0  0  0
    3.4259    0.7758    4.0608 C   0  0  0  0  0  0  0  0  0  0  0  0
    2.3348    1.3756    4.9053 C   0  0  2  0  0  0  0  0  0  0  0  0
    2.6524    1.8100    6.3411 C   0  0  0  0  0  0  0  0  0  0  0  0
    1.3375    2.2635    7.0263 C   0  0  0  0  0  0  0  0  0  0  0  0
    0.1887    1.2310    6.9061 C   0  0  0  0  0  0  0  0  0  0  0  0
   -0.0220    0.7169    5.4622 C   0  0  0  0  0  0  0  0  0  0  0  0
    1.3300    0.2321    4.9187 C   0  0  1  0  0  0  0  0  0  0  0  0
    3.8350   -0.9650    2.2258 C   0  0  0  0  0  0  0  0  0  0  0  0
    3.8386   -0.0953    0.9500 C   0  0  0  0  0  0  0  0  0  0  0  0
    5.3061   -1.0335    2.7248 C   0  0  0  0  0  0  0  0  0  0  0  0
    3.3028   -2.3946    1.8299 C   0  0  1  0  0  0  0  0  0  0  0  0
    4.1792   -2.9530    0.8707 O   0  0  0  0  0  0  0  0  0  0  0  0
    1.5230   -6.7111    4.0657 C   0  0  2  0  0  0  0  0  0  0  0  0
    1.8876   -7.2916    5.3074 O   0  0  0  0  0  0  0  0  0  0  0  0
   -0.0255   -6.7168    4.0370 C   0  0  0  0  0  0  0  0  0  0  0  0
   -2.0392   -8.6889    4.6502 H   0  0  0  0  0  0  0  0  0  0  0  0
   -1.8083   -9.6461    3.1747 H   0  0  0  0  0  0  0  0  0  0  0  0
   -2.4598   -7.9959    3.0808 H   0  0  0  0  0  0  0  0  0  0  0  0
    0.7483   -9.6313    2.4775 H   0  0  0  0  0  0  0  0  0  0  0  0
    2.8300   -8.2697    3.2106 H   0  0  0  0  0  0  0  0  0  0  0  0
    2.5821   -7.7957    0.8995 H   0  0  0  0  0  0  0  0  0  0  0  0
    1.0641   -6.9847    1.1094 H   0  0  0  0  0  0  0  0  0  0  0  0
    3.8470   -5.8609    1.5573 H   0  0  0  0  0  0  0  0  0  0  0  0
    2.9898   -5.6635   -0.4692 H   0  0  0  0  0  0  0  0  0  0  0  0
    1.2096   -4.4759    2.2565 H   0  0  0  0  0  0  0  0  0  0  0  0
    5.0629   -4.3505    2.8531 H   0  0  0  0  0  0  0  0  0  0  0  0
    4.7766   -3.4373    4.3357 H   0  0  0  0  0  0  0  0  0  0  0  0
    4.2454   -6.2555    3.8669 H   0  0  0  0  0  0  0  0  0  0  0  0
    3.9381   -5.3646    5.3462 H   0  0  0  0  0  0  0  0  0  0  0  0
    2.7852   -2.3918    4.8658 H   0  0  0  0  0  0  0  0  0  0  0  0
    0.6309   -2.2893    2.7111 H   0  0  0  0  0  0  0  0  0  0  0  0
    0.1987   -2.0073    4.3439 H   0  0  0  0  0  0  0  0  0  0  0  0
   -0.4402    0.2135    2.7024 H   0  0  0  0  0  0  0  0  0  0  0  0
    0.7543   -0.2046    1.4793 H   0  0  0  0  0  0  0  0  0  0  0  0
    0.9038    1.3061    2.3654 H   0  0  0  0  0  0  0  0  0  0  0  0
    4.4203    1.1942    4.0509 H   0  0  0  0  0  0  0  0  0  0  0  0
    1.9396    2.2309    4.3517 H   0  0  0  0  0  0  0  0  0  0  0  0
    3.1096    0.9942    6.9017 H   0  0  0  0  0  0  0  0  0  0  0  0
    3.3713    2.6309    6.3401 H   0  0  0  0  0  0  0  0  0  0  0  0
    1.5261    2.4728    8.0787 H   0  0  0  0  0  0  0  0  0  0  0  0
    1.0105    3.2074    6.5885 H   0  0  0  0  0  0  0  0  0  0  0  0
    0.4088    0.3838    7.5554 H   0  0  0  0  0  0  0  0  0  0  0  0
   -0.7390    1.6679    7.2788 H   0  0  0  0  0  0  0  0  0  0  0  0
   -0.7535   -0.0925    5.4531 H   0  0  0  0  0  0  0  0  0  0  0  0
   -0.4221    1.5149    4.8352 H   0  0  0  0  0  0  0  0  0  0  0  0
    1.6957   -0.4946    5.6475 H   0  0  0  0  0  0  0  0  0  0  0  0
    4.5416   -0.4604    0.2017 H   0  0  0  0  0  0  0  0  0  0  0  0
    4.1282    0.9324    1.1729 H   0  0  0  0  0  0  0  0  0  0  0  0
    2.8533   -0.0593    0.4869 H   0  0  0  0  0  0  0  0  0  0  0  0
    5.9378   -1.6561    2.0927 H   0  0  0  0  0  0  0  0  0  0  0  0
    5.3767   -1.4243    3.7373 H   0  0  0  0  0  0  0  0  0  0  0  0
    5.7783   -0.0519    2.7353 H   0  0  0  0  0  0  0  0  0  0  0  0
    2.3624   -2.2564    1.2938 H   0  0  0  0  0  0  0  0  0  0  0  0
    4.1066   -2.4366    0.0823 H   0  0  0  0  0  0  0  0  0  0  0  0
    1.5282   -8.1665    5.3463 H   0  0  0  0  0  0  0  0  0  0  0  0
   -0.4111   -5.9880    3.3328 H   0  0  0  0  0  0  0  0  0  0  0  0
   -0.4858   -6.5405    5.0078 H   0  0  0  0  0  0  0  0  0  0  0  0
  1  2  1  0
  1 35  1  0
  1 36  1  0
  1 37  1  0
  2 34  1  0
  2  3  2  0
  3  4  1  0
  3 38  1  0
  4 32  1  0
  4  5  1  0
  4 39  1  1
  5  6  1  0
  5 40  1  0
  5 41  1  0
  6  7  1  0
  6  8  1  0
  6 42  1  6
  7 43  1  0
  8 12  1  0
  8  9  1  0
  8 44  1  6
  9 15  1  0
  9 30  1  0
  9 10  1  1
 10 11  1  0
 10 45  1  0
 10 46  1  0
 12 11  1  1
 11 47  1  0
 11 48  1  0
 12 13  1  0
 12 32  1  0
 13 14  2  0
 13 15  1  0
 15 16  1  0
 15 49  1  1
 16 17  1  0
 16 50  1  0
 16 51  1  0
 17 26  1  0
 17 18  1  6
 17 19  1  0
 18 52  1  0
 18 53  1  0
 18 54  1  0
 19 20  2  0
 19 27  1  0
 20 21  1  0
 20 55  1  0
 21 26  1  0
 21 22  1  0
 21 56  1  6
 22 23  1  0
 22 57  1  0
 22 58  1  0
 23 24  1  0
 23 59  1  0
 23 60  1  0
 24 25  1  0
 24 61  1  0
 24 62  1  0
 25 26  1  0
 25 63  1  0
 25 64  1  0
 26 65  1  1
 27 28  1  0
 27 29  1  0
 27 30  1  0
 28 66  1  0
 28 67  1  0
 28 68  1  0
 29 69  1  0
 29 70  1  0
 29 71  1  0
 30 31  1  0
 30 72  1  6
 31 73  1  0
 32 33  1  1
 32 34  1  0
 33 74  1  0
 34 75  1  0
 34 76  1  0
M  END
>  <i_m_ct_stereo_status>  (264) 
1

>  <s_m_source_file>  (264) 
/var/tmp/pbs.5076255.sched01/tmpthapbt4w/86pc0xbys0.sdf

>  <i_m_source_file_index>  (264) 
32

>  <i_lp_mmshare_version>  (264) 
48012

>  <i_f3d_flags>  (264) 
0

>  <s_epik_input>  (264) 
W0NIM11DKFtDSDJdMSk9W0NIXVtDQEBIXShbQ0gyXVtDQEhdMltPSF0pW0NAQF0xKFtPSF0pW0NAXShbQ0BIXTJbQ0BdMzQ1KShbQ0gyXVtDSDJdMylDKD1PKVtDQEBIXTRbQ0gyXVtDQF02KFtDSDNdKUMoQyhbQ0gzXSkoW0NIM10pW0NASF01W09IXSk9W0NIXVtDQEhdN1tDQEhdNltDSDJdW0NIMl1bQ0gyXVtDSDJdNw==

>  <s_epik_cmdline>  (264) 
J2VwaWtfcHl0aG9uJywgJy1waHQnLCAnMi4wJywgJy1waCcsICc3LjAnLCAnLXRuJywgJzgnLCAnLW1hJywgJzIwMCcsICctaW1hZScsICc8aW5maWxlLm1hZT4nLCAnLW9tYWUnLCAnPG91dGZpbGUubWFlPic=

>  <r_lp_tautomer_probability>  (264) 
1

>  <r_epik_Ionization_Penalty>  (264) 
6.66532e-07

>  <r_epik_Ionization_Penalty_Charging>  (264) 
0

>  <r_epik_Ionization_Penalty_Neutral>  (264) 
6.66532e-07

>  <r_epik_State_Penalty>  (264) 
-0

>  <r_epik_Charging_Adjusted_Penalty>  (264) 
0

>  <i_epik_Tot_Q>  (264) 
0

>  <i_epik_Tot_abs_Q>  (264) 
0

>  <s_lp_Force_Field>  (264) 
OPLS3e

>  <r_lp_Energy>  (264) 
51.7806

>  <b_lp_Chiralities_Consistent>  (264) 
1

>  <s_lp_Variant>  (264) 
77:0-1

>  <s_i_glide_gridfile>  (264) 
pfpi4k_grid

>  <i_i_glide_lignum>  (264) 
32

>  <i_i_glide_rotatable_bonds>  (264) 
3

>  <r_i_docking_score>  (264) 
-2.41916

>  <r_i_glide_ligand_efficiency>  (264) 
-0.0711518

>  <r_i_glide_ligand_efficiency_sa>  (264) 
-0.230504

>  <r_i_glide_ligand_efficiency_ln>  (264) 
-0.53446

>  <r_i_glide_gscore>  (264) 
-2.41916

>  <r_i_glide_lipo>  (264) 
-0.172654

>  <r_i_glide_hbond>  (264) 
0

>  <r_i_glide_metal>  (264) 
-0

>  <r_i_glide_rewards>  (264) 
-0.23124

>  <r_i_glide_evdw>  (264) 
-29.6067

>  <r_i_glide_ecoul>  (264) 
-3.5662

>  <r_i_glide_erotb>  (264) 
0

>  <r_i_glide_esite>  (264) 
0

>  <r_i_glide_emodel>  (264) 
-37.7506

>  <r_i_glide_energy>  (264) 
-33.1729

>  <r_i_glide_einternal>  (264) 
0.807677

>  <r_i_glide_intrahb_reward>  (264) 
-0

>  <i_i_glide_confnum>  (264) 
1

>  <i_i_glide_posenum>  (264) 
38

>  <r_i_glide_eff_state_penalty>  (264) 
0

>  <ligand_id>  (264) 
77

>  <original_smiles>  (264) 
CC1=CC2CC(O)C3C45CCC3(C(=O)C4CC3(C)C(=CC4CCCCC43)C(C)(C)C5O)C2(O)C1

>  <smiles>  (264) 
[H]OC1([H])C([H])([H])C2([H])C([H])=C(C([H])([H])[H])C([H])([H])C2(O[H])C23C(=O)C4([H])C([H])([H])C5(C([H])([H])[H])C(=C([H])C6([H])C([H])([H])C([H])([H])C([H])([H])C([H])([H])C65[H])C(C([H])([H])[H])(C([H])([H])[H])C([H])(O[H])C4(C([H])([H])C2([H])[H])C13[H]

$$$$
77:0:2
     RDKit          3D

 76 82  0  0  1  0  0  0  0  0999 V2000
    5.6228   -9.2715    1.1877 C   0  0  0  0  0  0  0  0  0  0  0  0
    4.3760   -9.1831    2.0327 C   0  0  0  0  0  0  0  0  0  0  0  0
    3.7925  -10.1602    2.7303 C   0  0  0  0  0  0  0  0  0  0  0  0
    2.6127   -9.6557    3.5277 C   0  0  1  0  0  0  0  0  0  0  0  0
    3.0598   -9.4680    5.0043 C   0  0  0  0  0  0  0  0  0  0  0  0
    2.2468   -8.4338    5.8291 C   0  0  1  0  0  0  0  0  0  0  0  0
    2.9406   -8.1907    7.0396 O   0  0  0  0  0  0  0  0  0  0  0  0
    2.0955   -7.0834    5.0710 C   0  0  2  0  0  0  0  0  0  0  0  0
    1.0017   -6.0453    5.4982 C   0  0  2  0  0  0  0  0  0  0  0  0
   -0.3018   -6.8423    5.2197 C   0  0  0  0  0  0  0  0  0  0  0  0
    0.0470   -7.6869    3.9806 C   0  0  0  0  0  0  0  0  0  0  0  0
    1.5157   -7.2982    3.6717 C   0  0  1  0  0  0  0  0  0  0  0  0
    1.4775   -5.8505    3.1852 C   0  0  0  0  0  0  0  0  0  0  0  0
    1.6372   -5.4508    2.0362 O   0  0  0  0  0  0  0  0  0  0  0  0
    1.1285   -4.9756    4.3782 C   0  0  2  0  0  0  0  0  0  0  0  0
    2.1891   -3.8931    4.6495 C   0  0  0  0  0  0  0  0  0  0  0  0
    1.6547   -2.6852    5.4535 C   0  0  2  0  0  0  0  0  0  0  0  0
    2.7903   -2.0507    6.2821 C   0  0  0  0  0  0  0  0  0  0  0  0
    0.4374   -2.9705    6.3530 C   0  0  0  0  0  0  0  0  0  0  0  0
   -0.4738   -1.9952    6.2097 C   0  0  0  0  0  0  0  0  0  0  0  0
   -0.0165   -0.8987    5.2936 C   0  0  2  0  0  0  0  0  0  0  0  0
   -1.0354   -0.2202    4.3743 C   0  0  0  0  0  0  0  0  0  0  0  0
   -0.2846    0.7532    3.4272 C   0  0  0  0  0  0  0  0  0  0  0  0
    0.9243    0.1089    2.7017 C   0  0  0  0  0  0  0  0  0  0  0  0
    1.8652   -0.6694    3.6514 C   0  0  0  0  0  0  0  0  0  0  0  0
    1.0199   -1.6520    4.4724 C   0  0  1  0  0  0  0  0  0  0  0  0
    0.2861   -4.1753    7.3134 C   0  0  0  0  0  0  0  0  0  0  0  0
    0.7495   -3.6910    8.7065 C   0  0  0  0  0  0  0  0  0  0  0  0
   -1.2164   -4.5480    7.4501 C   0  0  0  0  0  0  0  0  0  0  0  0
    1.1463   -5.4358    6.9278 C   0  0  1  0  0  0  0  0  0  0  0  0
    0.9251   -6.4677    7.8686 O   0  0  0  0  0  0  0  0  0  0  0  0
    2.2910   -8.3144    2.7989 C   0  0  2  0  0  0  0  0  0  0  0  0
    1.4685   -8.6204    1.6892 O   0  0  0  0  0  0  0  0  0  0  0  0
    3.6519   -7.8754    2.2001 C   0  0  0  0  0  0  0  0  0  0  0  0
    5.3712   -8.9662    0.1732 H   0  0  0  0  0  0  0  0  0  0  0  0
    6.0209  -10.2886    1.1589 H   0  0  0  0  0  0  0  0  0  0  0  0
    6.3913   -8.5964    1.5678 H   0  0  0  0  0  0  0  0  0  0  0  0
    4.1226  -11.1902    2.7624 H   0  0  0  0  0  0  0  0  0  0  0  0
    1.7832  -10.3620    3.4730 H   0  0  0  0  0  0  0  0  0  0  0  0
    3.0199  -10.4362    5.5084 H   0  0  0  0  0  0  0  0  0  0  0  0
    4.1107   -9.1747    5.0222 H   0  0  0  0  0  0  0  0  0  0  0  0
    1.2820   -8.8756    6.0852 H   0  0  0  0  0  0  0  0  0  0  0  0
    3.0903   -9.0241    7.4680 H   0  0  0  0  0  0  0  0  0  0  0  0
    3.0876   -6.6276    5.0167 H   0  0  0  0  0  0  0  0  0  0  0  0
   -0.5562   -7.5057    6.0438 H   0  0  0  0  0  0  0  0  0  0  0  0
   -1.1593   -6.2022    5.0187 H   0  0  0  0  0  0  0  0  0  0  0  0
   -0.0580   -8.7520    4.1955 H   0  0  0  0  0  0  0  0  0  0  0  0
   -0.6139   -7.4712    3.1399 H   0  0  0  0  0  0  0  0  0  0  0  0
    0.1726   -4.5078    4.1556 H   0  0  0  0  0  0  0  0  0  0  0  0
    3.0458   -4.3349    5.1593 H   0  0  0  0  0  0  0  0  0  0  0  0
    2.6033   -3.5291    3.7091 H   0  0  0  0  0  0  0  0  0  0  0  0
    3.6046   -1.7146    5.6367 H   0  0  0  0  0  0  0  0  0  0  0  0
    3.2076   -2.7619    6.9977 H   0  0  0  0  0  0  0  0  0  0  0  0
    2.4315   -1.1868    6.8456 H   0  0  0  0  0  0  0  0  0  0  0  0
   -1.3935   -1.9209    6.7496 H   0  0  0  0  0  0  0  0  0  0  0  0
    0.4637   -0.1381    5.9137 H   0  0  0  0  0  0  0  0  0  0  0  0
   -1.5802   -0.9623    3.7955 H   0  0  0  0  0  0  0  0  0  0  0  0
   -1.7826    0.3269    4.9514 H   0  0  0  0  0  0  0  0  0  0  0  0
   -0.9756    1.1538    2.6849 H   0  0  0  0  0  0  0  0  0  0  0  0
    0.0679    1.6124    3.9995 H   0  0  0  0  0  0  0  0  0  0  0  0
    0.5623   -0.5710    1.9299 H   0  0  0  0  0  0  0  0  0  0  0  0
    1.4911    0.8790    2.1747 H   0  0  0  0  0  0  0  0  0  0  0  0
    2.6226   -1.2007    3.0732 H   0  0  0  0  0  0  0  0  0  0  0  0
    2.3890    0.0270    4.3073 H   0  0  0  0  0  0  0  0  0  0  0  0
    0.4657   -2.2440    3.7400 H   0  0  0  0  0  0  0  0  0  0  0  0
    0.5524   -4.4343    9.4798 H   0  0  0  0  0  0  0  0  0  0  0  0
    0.2319   -2.7785    9.0036 H   0  0  0  0  0  0  0  0  0  0  0  0
    1.8174   -3.4771    8.7267 H   0  0  0  0  0  0  0  0  0  0  0  0
   -1.3683   -5.4668    8.0143 H   0  0  0  0  0  0  0  0  0  0  0  0
   -1.6978   -4.6755    6.4835 H   0  0  0  0  0  0  0  0  0  0  0  0
   -1.7790   -3.7868    7.9856 H   0  0  0  0  0  0  0  0  0  0  0  0
    2.1947   -5.1663    7.0593 H   0  0  0  0  0  0  0  0  0  0  0  0
    1.5735   -7.1449    7.6914 H   0  0  0  0  0  0  0  0  0  0  0  0
    1.7576   -9.4301    1.2989 H   0  0  0  0  0  0  0  0  0  0  0  0
    4.2243   -7.2650    2.8930 H   0  0  0  0  0  0  0  0  0  0  0  0
    3.5613   -7.3403    1.2575 H   0  0  0  0  0  0  0  0  0  0  0  0
  1  2  1  0
  1 35  1  0
  1 36  1  0
  1 37  1  0
  2 34  1  0
  2  3  2  0
  3  4  1  0
  3 38  1  0
  4 32  1  0
  4  5  1  0
  4 39  1  1
  5  6  1  0
  5 40  1  0
  5 41  1  0
  6  7  1  0
  6  8  1  0
  6 42  1  1
  7 43  1  0
  8 12  1  0
  8  9  1  0
  8 44  1  6
  9 15  1  0
  9 30  1  0
  9 10  1  1
 10 11  1  0
 10 45  1  0
 10 46  1  0
 12 11  1  1
 11 47  1  0
 11 48  1  0
 12 13  1  0
 12 32  1  0
 13 14  2  0
 13 15  1  0
 15 16  1  0
 15 49  1  6
 16 17  1  0
 16 50  1  0
 16 51  1  0
 17 26  1  0
 17 18  1  1
 17 19  1  0
 18 52  1  0
 18 53  1  0
 18 54  1  0
 19 20  2  0
 19 27  1  0
 20 21  1  0
 20 55  1  0
 21 26  1  0
 21 22  1  0
 21 56  1  1
 22 23  1  0
 22 57  1  0
 22 58  1  0
 23 24  1  0
 23 59  1  0
 23 60  1  0
 24 25  1  0
 24 61  1  0
 24 62  1  0
 25 26  1  0
 25 63  1  0
 25 64  1  0
 26 65  1  6
 27 28  1  0
 27 29  1  0
 27 30  1  0
 28 66  1  0
 28 67  1  0
 28 68  1  0
 29 69  1  0
 29 70  1  0
 29 71  1  0
 30 31  1  0
 30 72  1  6
 31 73  1  0
 32 33  1  6
 32 34  1  0
 33 74  1  0
 34 75  1  0
 34 76  1  0
M  END
>  <i_m_ct_stereo_status>  (265) 
1

>  <s_m_source_file>  (265) 
/var/tmp/pbs.5076255.sched01/tmpthapbt4w/86pc0xbys0.sdf

>  <i_m_source_file_index>  (265) 
32

>  <i_lp_mmshare_version>  (265) 
48012

>  <i_f3d_flags>  (265) 
0

>  <s_epik_input>  (265) 
W0NIM11DKFtDSDJdMSk9W0NIXVtDQEBIXShbQ0gyXVtDQEhdMltPSF0pW0NAQF0xKFtPSF0pW0NAXShbQ0BIXTJbQ0BdMzQ1KShbQ0gyXVtDSDJdMylDKD1PKVtDQEBIXTRbQ0gyXVtDQF02KFtDSDNdKUMoQyhbQ0gzXSkoW0NIM10pW0NASF01W09IXSk9W0NIXVtDQEhdN1tDQEhdNltDSDJdW0NIMl1bQ0gyXVtDSDJdNw==

>  <s_epik_cmdline>  (265) 
J2VwaWtfcHl0aG9uJywgJy1waHQnLCAnMi4wJywgJy1waCcsICc3LjAnLCAnLXRuJywgJzgnLCAnLW1hJywgJzIwMCcsICctaW1hZScsICc8aW5maWxlLm1hZT4nLCAnLW9tYWUnLCAnPG91dGZpbGUubWFlPic=

>  <r_lp_tautomer_probability>  (265) 
1

>  <r_epik_Ionization_Penalty>  (265) 
6.66532e-07

>  <r_epik_Ionization_Penalty_Charging>  (265) 
0

>  <r_epik_Ionization_Penalty_Neutral>  (265) 
6.66532e-07

>  <r_epik_State_Penalty>  (265) 
-0

>  <r_epik_Charging_Adjusted_Penalty>  (265) 
0

>  <i_epik_Tot_Q>  (265) 
0

>  <i_epik_Tot_abs_Q>  (265) 
0

>  <s_lp_Force_Field>  (265) 
OPLS3e

>  <r_lp_Energy>  (265) 
51.7806

>  <b_lp_Chiralities_Consistent>  (265) 
1

>  <s_lp_Variant>  (265) 
77:0-1

>  <s_i_glide_gridfile>  (265) 
pfpi4k_grid

>  <i_i_glide_lignum>  (265) 
32

>  <i_i_glide_rotatable_bonds>  (265) 
3

>  <r_i_docking_score>  (265) 
-2.41584

>  <r_i_glide_ligand_efficiency>  (265) 
-0.0710541

>  <r_i_glide_ligand_efficiency_sa>  (265) 
-0.230188

>  <r_i_glide_ligand_efficiency_ln>  (265) 
-0.533726

>  <r_i_glide_gscore>  (265) 
-2.41584

>  <r_i_glide_lipo>  (265) 
-0.0167941

>  <r_i_glide_hbond>  (265) 
-0.0288113

>  <r_i_glide_metal>  (265) 
-0

>  <r_i_glide_rewards>  (265) 
-0.727372

>  <r_i_glide_evdw>  (265) 
-28.008

>  <r_i_glide_ecoul>  (265) 
-1.48047

>  <r_i_glide_erotb>  (265) 
0

>  <r_i_glide_esite>  (265) 
-0.0203915

>  <r_i_glide_emodel>  (265) 
-39.0114

>  <r_i_glide_energy>  (265) 
-29.4884

>  <r_i_glide_einternal>  (265) 
0.935701

>  <r_i_glide_intrahb_reward>  (265) 
-0.5

>  <i_i_glide_confnum>  (265) 
1

>  <i_i_glide_posenum>  (265) 
7

>  <r_i_glide_eff_state_penalty>  (265) 
0

>  <ligand_id>  (265) 
77

>  <original_smiles>  (265) 
CC1=CC2CC(O)C3C45CCC3(C(=O)C4CC3(C)C(=CC4CCCCC43)C(C)(C)C5O)C2(O)C1

>  <smiles>  (265) 
[H]OC1([H])C([H])([H])C2([H])C([H])=C(C([H])([H])[H])C([H])([H])C2(O[H])C23C(=O)C4([H])C([H])([H])C5(C([H])([H])[H])C(=C([H])C6([H])C([H])([H])C([H])([H])C([H])([H])C([H])([H])C65[H])C(C([H])([H])[H])(C([H])([H])[H])C([H])(O[H])C4(C([H])([H])C2([H])[H])C13[H]

$$$$
78:0:0
     RDKit          3D

 33 36  0  0  1  0  0  0  0  0999 V2000
    2.5810   -2.2490   -3.9192 C   0  0  0  0  0  0  0  0  0  0  0  0
    3.2694   -2.8422   -2.9128 C   0  0  0  0  0  0  0  0  0  0  0  0
    4.2223   -1.9857   -2.2885 C   0  0  0  0  0  0  0  0  0  0  0  0
    5.1013   -2.4080   -1.1285 C   0  0  1  0  0  0  0  0  0  0  0  0
    5.4322   -1.1971   -0.2125 C   0  0  0  0  0  0  0  0  0  0  0  0
    6.3455   -1.6386    0.9429 C   0  0  2  0  0  0  0  0  0  0  0  0
    7.6488   -2.2229    0.3563 C   0  0  0  0  0  0  0  0  0  0  0  0
    7.3234   -3.4467   -0.5025 C   0  0  1  0  0  0  0  0  0  0  0  0
    6.6103   -4.5057    0.3672 C   0  0  0  0  0  0  0  0  0  0  0  0
    5.3027   -3.9138    0.9189 C   0  0  1  0  0  0  0  0  0  0  0  0
    5.6082   -2.6898    1.7914 C   0  0  0  0  0  0  0  0  0  0  0  0
    4.3998   -3.4907   -0.2541 C   0  0  0  0  0  0  0  0  0  0  0  0
    6.4208   -3.0094   -1.6733 C   0  0  0  0  0  0  0  0  0  0  0  0
    4.2260   -0.7386   -2.8714 C   0  0  0  0  0  0  0  0  0  0  0  0
    3.1114   -0.6181   -4.1967 S   0  0  0  0  0  0  0  0  0  0  0  0
    1.7855   -2.6864   -4.5080 H   0  0  0  0  0  0  0  0  0  0  0  0
    3.0788   -3.8568   -2.6082 H   0  0  0  0  0  0  0  0  0  0  0  0
    5.9461   -0.4125   -0.7613 H   0  0  0  0  0  0  0  0  0  0  0  0
    4.5134   -0.7522    0.1742 H   0  0  0  0  0  0  0  0  0  0  0  0
    6.5767   -0.7757    1.5639 H   0  0  0  0  0  0  0  0  0  0  0  0
    8.1791   -1.4696   -0.2241 H   0  0  0  0  0  0  0  0  0  0  0  0
    8.3305   -2.5512    1.1312 H   0  0  0  0  0  0  0  0  0  0  0  0
    8.2528   -3.8581   -0.8919 H   0  0  0  0  0  0  0  0  0  0  0  0
    6.3861   -5.3929   -0.2223 H   0  0  0  0  0  0  0  0  0  0  0  0
    7.2527   -4.8355    1.1850 H   0  0  0  0  0  0  0  0  0  0  0  0
    4.7876   -4.6687    1.5107 H   0  0  0  0  0  0  0  0  0  0  0  0
    6.2124   -2.9865    2.6460 H   0  0  0  0  0  0  0  0  0  0  0  0
    4.6807   -2.2739    2.1858 H   0  0  0  0  0  0  0  0  0  0  0  0
    3.4466   -3.1096    0.1190 H   0  0  0  0  0  0  0  0  0  0  0  0
    4.1795   -4.3930   -0.8266 H   0  0  0  0  0  0  0  0  0  0  0  0
    6.2051   -3.8606   -2.3183 H   0  0  0  0  0  0  0  0  0  0  0  0
    6.9522   -2.2910   -2.2994 H   0  0  0  0  0  0  0  0  0  0  0  0
    4.8129    0.1284   -2.6063 H   0  0  0  0  0  0  0  0  0  0  0  0
  1 15  1  0
  1  2  2  0
  1 16  1  0
  2  3  1  0
  2 17  1  0
  4  3  1  6
  3 14  2  0
  4 12  1  0
  4 13  1  0
  4  5  1  0
  5  6  1  0
  5 18  1  0
  5 19  1  0
  6 11  1  0
  6  7  1  0
  6 20  1  1
  7  8  1  0
  7 21  1  0
  7 22  1  0
  8  9  1  0
  8 13  1  0
  8 23  1  6
  9 10  1  0
  9 24  1  0
  9 25  1  0
 10 11  1  0
 10 12  1  0
 10 26  1  1
 11 27  1  0
 11 28  1  0
 12 29  1  0
 12 30  1  0
 13 31  1  0
 13 32  1  0
 14 15  1  0
 14 33  1  0
M  END
>  <i_m_ct_stereo_status>  (266) 
1

>  <s_m_source_file>  (266) 
/var/tmp/pbs.5076255.sched01/tmpthapbt4w/86pc0xbys0.sdf

>  <i_m_source_file_index>  (266) 
33

>  <i_lp_mmshare_version>  (266) 
48012

>  <i_f3d_flags>  (266) 
0

>  <s_epik_input>  (266) 
W2NIXTFzW2NIXVtjSF1jMUMyM1tDSDJdW0NASF00W0NIMl1bQ0BASF0oW0NIMl0zKVtDSDJdW0NASF0oW0NIMl00KVtDSDJdMg==

>  <s_epik_cmdline>  (266) 
J2VwaWtfcHl0aG9uJywgJy1waHQnLCAnMi4wJywgJy1waCcsICc3LjAnLCAnLXRuJywgJzgnLCAnLW1hJywgJzIwMCcsICctaW1hZScsICc8aW5maWxlLm1hZT4nLCAnLW9tYWUnLCAnPG91dGZpbGUubWFlPic=

>  <r_lp_tautomer_probability>  (266) 
1

>  <r_epik_Ionization_Penalty>  (266) 
0

>  <r_epik_Ionization_Penalty_Charging>  (266) 
0

>  <r_epik_Ionization_Penalty_Neutral>  (266) 
0

>  <r_epik_State_Penalty>  (266) 
-0

>  <r_epik_Charging_Adjusted_Penalty>  (266) 
0

>  <i_epik_Tot_Q>  (266) 
0

>  <i_epik_Tot_abs_Q>  (266) 
0

>  <s_lp_Force_Field>  (266) 
OPLS3e

>  <r_lp_Energy>  (266) 
7.50955

>  <b_lp_Chiralities_Consistent>  (266) 
1

>  <s_lp_Variant>  (266) 
78:0-1

>  <s_i_glide_gridfile>  (266) 
pfpi4k_grid

>  <i_i_glide_lignum>  (266) 
33

>  <i_i_glide_rotatable_bonds>  (266) 
1

>  <r_i_docking_score>  (266) 
-4.26085

>  <r_i_glide_ligand_efficiency>  (266) 
-0.284057

>  <r_i_glide_ligand_efficiency_sa>  (266) 
-0.700544

>  <r_i_glide_ligand_efficiency_ln>  (266) 
-1.14908

>  <r_i_glide_gscore>  (266) 
-4.26085

>  <r_i_glide_lipo>  (266) 
-1.20164

>  <r_i_glide_hbond>  (266) 
0

>  <r_i_glide_metal>  (266) 
-0

>  <r_i_glide_rewards>  (266) 
-1.92028

>  <r_i_glide_evdw>  (266) 
-23.4853

>  <r_i_glide_ecoul>  (266) 
-2.114

>  <r_i_glide_erotb>  (266) 
0.352435

>  <r_i_glide_esite>  (266) 
0

>  <r_i_glide_emodel>  (266) 
-31.5244

>  <r_i_glide_energy>  (266) 
-25.5993

>  <r_i_glide_einternal>  (266) 
0.477435

>  <r_i_glide_intrahb_reward>  (266) 
-0

>  <i_i_glide_confnum>  (266) 
1

>  <i_i_glide_posenum>  (266) 
1

>  <r_i_glide_eff_state_penalty>  (266) 
0

>  <ligand_id>  (266) 
78

>  <original_smiles>  (266) 
c1cc(C23CC4CC(CC(C4)C2)C3)cs1

>  <smiles>  (266) 
[H]c1sc([H])c(C23C([H])([H])C4([H])C([H])([H])C([H])(C([H])([H])C([H])(C4([H])[H])C2([H])[H])C3([H])[H])c1[H]

$$$$
78:0:1
     RDKit          3D

 33 36  0  0  1  0  0  0  0  0999 V2000
    2.8218   -2.1411   -3.9165 C   0  0  0  0  0  0  0  0  0  0  0  0
    3.0985   -2.8805   -2.7991 C   0  0  0  0  0  0  0  0  0  0  0  0
    3.9927   -2.2319   -1.8901 C   0  0  0  0  0  0  0  0  0  0  0  0
    4.4471   -2.8548   -0.5858 C   0  0  1  0  0  0  0  0  0  0  0  0
    5.3671   -1.8832    0.2074 C   0  0  0  0  0  0  0  0  0  0  0  0
    5.8380   -2.5293    1.5188 C   0  0  2  0  0  0  0  0  0  0  0  0
    6.6329   -3.8063    1.1858 C   0  0  0  0  0  0  0  0  0  0  0  0
    5.7169   -4.7992    0.4540 C   0  0  1  0  0  0  0  0  0  0  0  0
    4.5014   -5.1445    1.3366 C   0  0  0  0  0  0  0  0  0  0  0  0
    3.7114   -3.8556    1.6369 C   0  0  1  0  0  0  0  0  0  0  0  0
    4.6119   -2.8587    2.3897 C   0  0  0  0  0  0  0  0  0  0  0  0
    3.2314   -3.2169    0.3124 C   0  0  0  0  0  0  0  0  0  0  0  0
    5.2383   -4.1598   -0.8664 C   0  0  0  0  0  0  0  0  0  0  0  0
    4.3576   -0.9902   -2.3533 C   0  0  0  0  0  0  0  0  0  0  0  0
    3.6278   -0.6066   -3.8869 S   0  0  0  0  0  0  0  0  0  0  0  0
    2.1553   -2.4033   -4.7195 H   0  0  0  0  0  0  0  0  0  0  0  0
    2.6737   -3.8509   -2.6008 H   0  0  0  0  0  0  0  0  0  0  0  0
    6.2420   -1.6194   -0.3867 H   0  0  0  0  0  0  0  0  0  0  0  0
    4.8368   -0.9568    0.4309 H   0  0  0  0  0  0  0  0  0  0  0  0
    6.4788   -1.8259    2.0475 H   0  0  0  0  0  0  0  0  0  0  0  0
    7.4953   -3.5619    0.5648 H   0  0  0  0  0  0  0  0  0  0  0  0
    7.0282   -4.2671    2.0869 H   0  0  0  0  0  0  0  0  0  0  0  0
    6.2719   -5.7095    0.2354 H   0  0  0  0  0  0  0  0  0  0  0  0
    3.8650   -5.8724    0.8331 H   0  0  0  0  0  0  0  0  0  0  0  0
    4.8275   -5.6144    2.2658 H   0  0  0  0  0  0  0  0  0  0  0  0
    2.8483   -4.0981    2.2546 H   0  0  0  0  0  0  0  0  0  0  0  0
    4.9237   -3.2727    3.3492 H   0  0  0  0  0  0  0  0  0  0  0  0
    4.0549   -1.9478    2.6099 H   0  0  0  0  0  0  0  0  0  0  0  0
    2.6353   -2.3251    0.5156 H   0  0  0  0  0  0  0  0  0  0  0  0
    2.5709   -3.9175   -0.2015 H   0  0  0  0  0  0  0  0  0  0  0  0
    4.6215   -4.8797   -1.4083 H   0  0  0  0  0  0  0  0  0  0  0  0
    6.0940   -3.9442   -1.5085 H   0  0  0  0  0  0  0  0  0  0  0  0
    4.9909   -0.2574   -1.8742 H   0  0  0  0  0  0  0  0  0  0  0  0
  1 15  1  0
  1  2  2  0
  1 16  1  0
  2  3  1  0
  2 17  1  0
  4  3  1  6
  3 14  2  0
  4 12  1  0
  4 13  1  0
  4  5  1  0
  5  6  1  0
  5 18  1  0
  5 19  1  0
  6 11  1  0
  6  7  1  0
  6 20  1  1
  7  8  1  0
  7 21  1  0
  7 22  1  0
  8  9  1  0
  8 13  1  0
  8 23  1  6
  9 10  1  0
  9 24  1  0
  9 25  1  0
 10 11  1  0
 10 12  1  0
 10 26  1  1
 11 27  1  0
 11 28  1  0
 12 29  1  0
 12 30  1  0
 13 31  1  0
 13 32  1  0
 14 15  1  0
 14 33  1  0
M  END
>  <i_m_ct_stereo_status>  (267) 
1

>  <s_m_source_file>  (267) 
/var/tmp/pbs.5076255.sched01/tmpthapbt4w/86pc0xbys0.sdf

>  <i_m_source_file_index>  (267) 
33

>  <i_lp_mmshare_version>  (267) 
48012

>  <i_f3d_flags>  (267) 
0

>  <s_epik_input>  (267) 
W2NIXTFzW2NIXVtjSF1jMUMyM1tDSDJdW0NASF00W0NIMl1bQ0BASF0oW0NIMl0zKVtDSDJdW0NASF0oW0NIMl00KVtDSDJdMg==

>  <s_epik_cmdline>  (267) 
J2VwaWtfcHl0aG9uJywgJy1waHQnLCAnMi4wJywgJy1waCcsICc3LjAnLCAnLXRuJywgJzgnLCAnLW1hJywgJzIwMCcsICctaW1hZScsICc8aW5maWxlLm1hZT4nLCAnLW9tYWUnLCAnPG91dGZpbGUubWFlPic=

>  <r_lp_tautomer_probability>  (267) 
1

>  <r_epik_Ionization_Penalty>  (267) 
0

>  <r_epik_Ionization_Penalty_Charging>  (267) 
0

>  <r_epik_Ionization_Penalty_Neutral>  (267) 
0

>  <r_epik_State_Penalty>  (267) 
-0

>  <r_epik_Charging_Adjusted_Penalty>  (267) 
0

>  <i_epik_Tot_Q>  (267) 
0

>  <i_epik_Tot_abs_Q>  (267) 
0

>  <s_lp_Force_Field>  (267) 
OPLS3e

>  <r_lp_Energy>  (267) 
7.50955

>  <b_lp_Chiralities_Consistent>  (267) 
1

>  <s_lp_Variant>  (267) 
78:0-1

>  <s_i_glide_gridfile>  (267) 
pfpi4k_grid

>  <i_i_glide_lignum>  (267) 
33

>  <i_i_glide_rotatable_bonds>  (267) 
1

>  <r_i_docking_score>  (267) 
-3.84282

>  <r_i_glide_ligand_efficiency>  (267) 
-0.256188

>  <r_i_glide_ligand_efficiency_sa>  (267) 
-0.631814

>  <r_i_glide_ligand_efficiency_ln>  (267) 
-1.03635

>  <r_i_glide_gscore>  (267) 
-3.84282

>  <r_i_glide_lipo>  (267) 
-0.761926

>  <r_i_glide_hbond>  (267) 
0

>  <r_i_glide_metal>  (267) 
-0

>  <r_i_glide_rewards>  (267) 
-1.92028

>  <r_i_glide_evdw>  (267) 
-22.4703

>  <r_i_glide_ecoul>  (267) 
-2.5969

>  <r_i_glide_erotb>  (267) 
0.352435

>  <r_i_glide_esite>  (267) 
0

>  <r_i_glide_emodel>  (267) 
-30.6276

>  <r_i_glide_energy>  (267) 
-25.0672

>  <r_i_glide_einternal>  (267) 
0.00396098

>  <r_i_glide_intrahb_reward>  (267) 
-0

>  <i_i_glide_confnum>  (267) 
1

>  <i_i_glide_posenum>  (267) 
8

>  <r_i_glide_eff_state_penalty>  (267) 
0

>  <ligand_id>  (267) 
78

>  <original_smiles>  (267) 
c1cc(C23CC4CC(CC(C4)C2)C3)cs1

>  <smiles>  (267) 
[H]c1sc([H])c(C23C([H])([H])C4([H])C([H])([H])C([H])(C([H])([H])C([H])(C4([H])[H])C2([H])[H])C3([H])[H])c1[H]

$$$$
78:0:2
     RDKit          3D

 33 36  0  0  1  0  0  0  0  0999 V2000
    4.2151   -0.4545   -2.7573 C   0  0  0  0  0  0  0  0  0  0  0  0
    4.4446   -1.0403   -1.5458 C   0  0  0  0  0  0  0  0  0  0  0  0
    4.1672   -2.4459   -1.5140 C   0  0  0  0  0  0  0  0  0  0  0  0
    4.3187   -3.3327   -0.2930 C   0  0  1  0  0  0  0  0  0  0  0  0
    5.3399   -4.4648   -0.5779 C   0  0  0  0  0  0  0  0  0  0  0  0
    5.5047   -5.3708    0.6579 C   0  0  2  0  0  0  0  0  0  0  0  0
    4.1449   -6.0064    1.0029 C   0  0  0  0  0  0  0  0  0  0  0  0
    3.1315   -4.8913    1.3284 C   0  0  1  0  0  0  0  0  0  0  0  0
    3.6359   -4.0626    2.5256 C   0  0  0  0  0  0  0  0  0  0  0  0
    4.9940   -3.4341    2.1661 C   0  0  1  0  0  0  0  0  0  0  0  0
    6.0188   -4.5345    1.8440 C   0  0  0  0  0  0  0  0  0  0  0  0
    4.8262   -2.5258    0.9389 C   0  0  0  0  0  0  0  0  0  0  0  0
    2.9598   -3.9800    0.0938 C   0  0  0  0  0  0  0  0  0  0  0  0
    3.7301   -2.8813   -2.7430 C   0  0  0  0  0  0  0  0  0  0  0  0
    3.6428   -1.6012   -3.9217 S   0  0  0  0  0  0  0  0  0  0  0  0
    4.3029    0.5944   -3.0108 H   0  0  0  0  0  0  0  0  0  0  0  0
    4.7773   -0.4817   -0.6904 H   0  0  0  0  0  0  0  0  0  0  0  0
    5.0157   -5.0672   -1.4299 H   0  0  0  0  0  0  0  0  0  0  0  0
    6.3020   -4.0325   -0.8560 H   0  0  0  0  0  0  0  0  0  0  0  0
    6.2243   -6.1564    0.4363 H   0  0  0  0  0  0  0  0  0  0  0  0
    3.7899   -6.6035    0.1628 H   0  0  0  0  0  0  0  0  0  0  0  0
    4.2498   -6.6860    1.8479 H   0  0  0  0  0  0  0  0  0  0  0  0
    2.1727   -5.3382    1.5818 H   0  0  0  0  0  0  0  0  0  0  0  0
    2.9168   -3.2822    2.7749 H   0  0  0  0  0  0  0  0  0  0  0  0
    3.7384   -4.6895    3.4110 H   0  0  0  0  0  0  0  0  0  0  0  0
    5.3540   -2.8380    3.0036 H   0  0  0  0  0  0  0  0  0  0  0  0
    6.1816   -5.1623    2.7192 H   0  0  0  0  0  0  0  0  0  0  0  0
    6.9818   -4.0869    1.5951 H   0  0  0  0  0  0  0  0  0  0  0  0
    5.7864   -2.0544    0.7163 H   0  0  0  0  0  0  0  0  0  0  0  0
    4.1221   -1.7268    1.1840 H   0  0  0  0  0  0  0  0  0  0  0  0
    2.2221   -3.2005    0.2967 H   0  0  0  0  0  0  0  0  0  0  0  0
    2.5613   -4.5704   -0.7332 H   0  0  0  0  0  0  0  0  0  0  0  0
    3.4299   -3.8793   -3.0199 H   0  0  0  0  0  0  0  0  0  0  0  0
  1 15  1  0
  1  2  2  0
  1 16  1  0
  2  3  1  0
  2 17  1  0
  4  3  1  6
  3 14  2  0
  4 12  1  0
  4 13  1  0
  4  5  1  0
  5  6  1  0
  5 18  1  0
  5 19  1  0
  6 11  1  0
  6  7  1  0
  6 20  1  6
  7  8  1  0
  7 21  1  0
  7 22  1  0
  8  9  1  0
  8 13  1  0
  8 23  1  1
  9 10  1  0
  9 24  1  0
  9 25  1  0
 10 11  1  0
 10 12  1  0
 10 26  1  1
 11 27  1  0
 11 28  1  0
 12 29  1  0
 12 30  1  0
 13 31  1  0
 13 32  1  0
 14 15  1  0
 14 33  1  0
M  END
>  <i_m_ct_stereo_status>  (268) 
1

>  <s_m_source_file>  (268) 
/var/tmp/pbs.5076255.sched01/tmpthapbt4w/86pc0xbys0.sdf

>  <i_m_source_file_index>  (268) 
33

>  <i_lp_mmshare_version>  (268) 
48012

>  <i_f3d_flags>  (268) 
0

>  <s_epik_input>  (268) 
W2NIXTFzW2NIXVtjSF1jMUMyM1tDSDJdW0NASF00W0NIMl1bQ0BASF0oW0NIMl0zKVtDSDJdW0NASF0oW0NIMl00KVtDSDJdMg==

>  <s_epik_cmdline>  (268) 
J2VwaWtfcHl0aG9uJywgJy1waHQnLCAnMi4wJywgJy1waCcsICc3LjAnLCAnLXRuJywgJzgnLCAnLW1hJywgJzIwMCcsICctaW1hZScsICc8aW5maWxlLm1hZT4nLCAnLW9tYWUnLCAnPG91dGZpbGUubWFlPic=

>  <r_lp_tautomer_probability>  (268) 
1

>  <r_epik_Ionization_Penalty>  (268) 
0

>  <r_epik_Ionization_Penalty_Charging>  (268) 
0

>  <r_epik_Ionization_Penalty_Neutral>  (268) 
0

>  <r_epik_State_Penalty>  (268) 
-0

>  <r_epik_Charging_Adjusted_Penalty>  (268) 
0

>  <i_epik_Tot_Q>  (268) 
0

>  <i_epik_Tot_abs_Q>  (268) 
0

>  <s_lp_Force_Field>  (268) 
OPLS3e

>  <r_lp_Energy>  (268) 
7.50955

>  <b_lp_Chiralities_Consistent>  (268) 
1

>  <s_lp_Variant>  (268) 
78:0-1

>  <s_i_glide_gridfile>  (268) 
pfpi4k_grid

>  <i_i_glide_lignum>  (268) 
33

>  <i_i_glide_rotatable_bonds>  (268) 
1

>  <r_i_docking_score>  (268) 
-3.57652

>  <r_i_glide_ligand_efficiency>  (268) 
-0.238435

>  <r_i_glide_ligand_efficiency_sa>  (268) 
-0.588031

>  <r_i_glide_ligand_efficiency_ln>  (268) 
-0.964529

>  <r_i_glide_gscore>  (268) 
-3.57652

>  <r_i_glide_lipo>  (268) 
-0.625222

>  <r_i_glide_hbond>  (268) 
0

>  <r_i_glide_metal>  (268) 
-0

>  <r_i_glide_rewards>  (268) 
-1.92028

>  <r_i_glide_evdw>  (268) 
-22.4114

>  <r_i_glide_ecoul>  (268) 
-1.75256

>  <r_i_glide_erotb>  (268) 
0.352435

>  <r_i_glide_esite>  (268) 
0

>  <r_i_glide_emodel>  (268) 
-29.1349

>  <r_i_glide_energy>  (268) 
-24.164

>  <r_i_glide_einternal>  (268) 
0.403856

>  <r_i_glide_intrahb_reward>  (268) 
-0

>  <i_i_glide_confnum>  (268) 
3

>  <i_i_glide_posenum>  (268) 
10

>  <r_i_glide_eff_state_penalty>  (268) 
0

>  <ligand_id>  (268) 
78

>  <original_smiles>  (268) 
c1cc(C23CC4CC(CC(C4)C2)C3)cs1

>  <smiles>  (268) 
[H]c1sc([H])c(C23C([H])([H])C4([H])C([H])([H])C([H])(C([H])([H])C([H])(C4([H])[H])C2([H])[H])C3([H])[H])c1[H]

$$$$
79:0:0
     RDKit          3D

 62 67  0  0  1  0  0  0  0  0999 V2000
    3.4223    0.4987    2.4358 C   0  0  0  0  0  0  0  0  0  0  0  0
    4.1643    0.1133    1.1494 C   0  0  0  0  0  0  0  0  0  0  0  0
    4.9817   -1.2214    1.1385 C   0  0  1  0  0  0  0  0  0  0  0  0
    5.7900   -1.4223    2.4452 C   0  0  0  0  0  0  0  0  0  0  0  0
    4.9438   -2.0503    3.5437 C   0  0  0  0  0  0  0  0  0  0  0  0
    4.8685   -1.4930    4.6375 O   0  0  0  0  0  0  0  0  0  0  0  0
    4.2227   -3.3830    3.2192 C   0  0  1  0  0  0  0  0  0  0  0  0
    2.9669   -3.6729    4.1320 C   0  0  0  0  0  0  0  0  0  0  0  0
    3.3237   -3.8729    5.6227 C   0  0  0  0  0  0  0  0  0  0  0  0
    1.8334   -2.6420    3.9807 C   0  0  0  0  0  0  0  0  0  0  0  0
    2.3851   -4.9071    3.7665 O   0  0  0  0  0  0  0  0  0  0  0  0
    3.9582   -3.5023    1.6912 C   0  0  0  0  0  0  0  0  0  0  0  0
    4.0868   -2.4490    0.8465 C   0  0  0  0  0  0  0  0  0  0  0  0
    4.0233   -2.4547   -0.6495 C   0  0  2  0  0  0  0  0  0  0  0  0
    3.4507   -3.4670   -1.5452 N   0  0  1  0  0  0  0  0  0  0  0  0
    1.9878   -3.4244   -1.7471 C   0  0  0  0  0  0  0  0  0  0  0  0
    4.2397   -3.3336   -2.8002 C   0  0  0  0  0  0  0  0  0  0  0  0
    5.4802   -2.4737   -2.4578 C   0  0  0  0  0  0  0  0  0  0  0  0
    5.4869   -2.4479   -0.9231 C   0  0  2  0  0  0  0  0  0  0  0  0
    6.4117   -3.4997   -0.2813 C   0  0  0  0  0  0  0  0  0  0  0  0
    6.2253   -4.8572    0.1001 C   0  0  0  0  0  0  0  0  0  0  0  0
    7.3538   -5.5312    0.6146 C   0  0  0  0  0  0  0  0  0  0  0  0
    8.5807   -4.8552    0.7825 C   0  0  0  0  0  0  0  0  0  0  0  0
    8.6694   -3.4712    0.5282 C   0  0  0  0  0  0  0  0  0  0  0  0
    9.8280   -2.8019    0.8003 O   0  0  0  0  0  0  0  0  0  0  0  0
    7.5415   -2.7712    0.0631 C   0  0  0  0  0  0  0  0  0  0  0  0
    7.3428   -1.4210    0.0779 O   0  0  0  0  0  0  0  0  0  0  0  0
    5.9363   -1.1946   -0.1426 C   0  0  2  0  0  0  0  0  0  0  0  0
    4.8263   -5.4576    0.0864 C   0  0  0  0  0  0  0  0  0  0  0  0
    3.7988   -4.9345    1.1468 C   0  0  0  0  0  0  0  0  0  0  0  0
    2.8392    1.4075    2.2827 H   0  0  0  0  0  0  0  0  0  0  0  0
    4.1128    0.6976    3.2572 H   0  0  0  0  0  0  0  0  0  0  0  0
    2.7325   -0.2871    2.7313 H   0  0  0  0  0  0  0  0  0  0  0  0
    3.4149    0.0948    0.3639 H   0  0  0  0  0  0  0  0  0  0  0  0
    4.8210    0.9379    0.8794 H   0  0  0  0  0  0  0  0  0  0  0  0
    6.6153   -2.1127    2.3009 H   0  0  0  0  0  0  0  0  0  0  0  0
    6.2280   -0.4833    2.7864 H   0  0  0  0  0  0  0  0  0  0  0  0
    4.9766   -4.1361    3.4539 H   0  0  0  0  0  0  0  0  0  0  0  0
    3.5882   -2.9445    6.1257 H   0  0  0  0  0  0  0  0  0  0  0  0
    4.1615   -4.5579    5.7465 H   0  0  0  0  0  0  0  0  0  0  0  0
    2.4816   -4.2814    6.1817 H   0  0  0  0  0  0  0  0  0  0  0  0
    2.1320   -1.6615    4.3497 H   0  0  0  0  0  0  0  0  0  0  0  0
    0.9564   -2.9339    4.5599 H   0  0  0  0  0  0  0  0  0  0  0  0
    1.5189   -2.5381    2.9409 H   0  0  0  0  0  0  0  0  0  0  0  0
    3.0182   -5.5938    3.9162 H   0  0  0  0  0  0  0  0  0  0  0  0
    3.5751   -1.5190   -0.9785 H   0  0  0  0  0  0  0  0  0  0  0  0
    1.6831   -2.5044   -2.2526 H   0  0  0  0  0  0  0  0  0  0  0  0
    1.4675   -3.5182   -0.7908 H   0  0  0  0  0  0  0  0  0  0  0  0
    1.6725   -4.2603   -2.3743 H   0  0  0  0  0  0  0  0  0  0  0  0
    4.5341   -4.3147   -3.1677 H   0  0  0  0  0  0  0  0  0  0  0  0
    3.6591   -2.8618   -3.5950 H   0  0  0  0  0  0  0  0  0  0  0  0
    6.4040   -2.8425   -2.9091 H   0  0  0  0  0  0  0  0  0  0  0  0
    5.3005   -1.4633   -2.8341 H   0  0  0  0  0  0  0  0  0  0  0  0
    7.2930   -6.5723    0.8988 H   0  0  0  0  0  0  0  0  0  0  0  0
    9.4229   -5.3923    1.1935 H   0  0  0  0  0  0  0  0  0  0  0  0
    9.9391   -2.0004    0.3031 H   0  0  0  0  0  0  0  0  0  0  0  0
    5.7893   -0.2907   -0.7373 H   0  0  0  0  0  0  0  0  0  0  0  0
    4.4467   -5.5480   -0.9239 H   0  0  0  0  0  0  0  0  0  0  0  0
    4.9741   -6.5088    0.3342 H   0  0  0  0  0  0  0  0  0  0  0  0
    3.9413   -5.5979    1.9977 H   0  0  0  0  0  0  0  0  0  0  0  0
    2.7748   -5.1087    0.8220 H   0  0  0  0  0  0  0  0  0  0  0  0
    3.6779   -4.3755   -1.1690 H   0  0  0  0  0  0  0  0  0  0  0  0
  1  2  1  0
  1 31  1  0
  1 32  1  0
  1 33  1  0
  3  2  1  1
  2 34  1  0
  2 35  1  0
  3 13  1  0
  3 28  1  0
  3  4  1  0
  4  5  1  0
  4 36  1  0
  4 37  1  0
  5  6  2  0
  5  7  1  0
  7  8  1  0
  7 12  1  0
  7 38  1  1
  8  9  1  0
  8 10  1  0
  8 11  1  0
  9 39  1  0
  9 40  1  0
  9 41  1  0
 10 42  1  0
 10 43  1  0
 10 44  1  0
 11 45  1  0
 12 30  1  0
 12 13  2  0
 13 14  1  0
 14 19  1  0
 14 15  1  0
 14 46  1  6
 15 16  1  0
 15 17  1  0
 15 62  1  1
 16 47  1  0
 16 48  1  0
 16 49  1  0
 17 18  1  0
 17 50  1  0
 17 51  1  0
 19 18  1  6
 18 52  1  0
 18 53  1  0
 19 28  1  0
 19 20  1  0
 20 26  2  0
 20 21  1  0
 21 22  2  0
 21 29  1  0
 22 23  1  0
 22 54  1  0
 23 24  2  0
 23 55  1  0
 24 25  1  0
 24 26  1  0
 25 56  1  0
 26 27  1  0
 27 28  1  0
 28 57  1  6
 29 30  1  0
 29 58  1  0
 29 59  1  0
 30 60  1  0
 30 61  1  0
M  CHG  1  15   1
M  END
>  <i_m_ct_stereo_status>  (269) 
1

>  <s_m_source_file>  (269) 
/var/tmp/pbs.5076255.sched01/tmpthapbt4w/86pc0xbys0.sdf

>  <i_m_source_file_index>  (269) 
34

>  <i_lp_mmshare_version>  (269) 
48012

>  <i_f3d_flags>  (269) 
0

>  <s_epik_input>  (269) 
W09IXWMxW2NIXVtjSF1jKFtDSDJdW0NIMl0yKWMzYzFPW0NAQEhdNFtDQF01KFtDSDJdW0NIM10pW0NIMl1DKD1PKVtDQEBIXShDKFtDSDNdKShbQ0gzXSlbT0hdKUMyPUM1W0NAQEhdKFtDQF0zNDYpTihbQ0gzXSlbQ0gyXVtDSDJdNg==

>  <s_epik_cmdline>  (269) 
J2VwaWtfcHl0aG9uJywgJy1waHQnLCAnMi4wJywgJy1waCcsICc3LjAnLCAnLXRuJywgJzgnLCAnLW1hJywgJzIwMCcsICctaW1hZScsICc8aW5maWxlLm1hZT4nLCAnLW9tYWUnLCAnPG91dGZpbGUubWFlPic=

>  <r_lp_tautomer_probability>  (269) 
0.99995

>  <r_epik_Ionization_Penalty>  (269) 
0.161925

>  <r_epik_Ionization_Penalty_Charging>  (269) 
0.150473

>  <r_epik_Ionization_Penalty_Neutral>  (269) 
0.0114521

>  <r_epik_State_Penalty>  (269) 
0.20684

>  <r_epik_Charging_Adjusted_Penalty>  (269) 
0.357313

>  <i_epik_Tot_Q>  (269) 
1

>  <i_epik_Tot_abs_Q>  (269) 
1

>  <s_lp_Force_Field>  (269) 
OPLS3e

>  <r_lp_Energy>  (269) 
79.2083

>  <b_lp_Chiralities_Consistent>  (269) 
1

>  <s_lp_Variant>  (269) 
79:0-1

>  <s_i_glide_gridfile>  (269) 
pfpi4k_grid

>  <i_i_glide_lignum>  (269) 
34

>  <i_i_glide_rotatable_bonds>  (269) 
4

>  <r_i_docking_score>  (269) 
-4.10222

>  <r_i_glide_ligand_efficiency>  (269) 
-0.136741

>  <r_i_glide_ligand_efficiency_sa>  (269) 
-0.424885

>  <r_i_glide_ligand_efficiency_ln>  (269) 
-0.932069

>  <r_i_glide_gscore>  (269) 
-4.10222

>  <r_i_glide_lipo>  (269) 
-1.09558

>  <r_i_glide_hbond>  (269) 
-0.096644

>  <r_i_glide_metal>  (269) 
-0

>  <r_i_glide_rewards>  (269) 
-0.687922

>  <r_i_glide_evdw>  (269) 
-24.3225

>  <r_i_glide_ecoul>  (269) 
-7.48561

>  <r_i_glide_erotb>  (269) 
0.116898

>  <r_i_glide_esite>  (269) 
0

>  <r_i_glide_emodel>  (269) 
-39.1243

>  <r_i_glide_energy>  (269) 
-31.8082

>  <r_i_glide_einternal>  (269) 
3.24957

>  <r_i_glide_intrahb_reward>  (269) 
-0

>  <i_i_glide_confnum>  (269) 
5

>  <i_i_glide_posenum>  (269) 
34

>  <r_i_glide_eff_state_penalty>  (269) 
0

>  <ligand_id>  (269) 
79

>  <original_smiles>  (269) 
CCC12CC(=O)C(C(C)(C)O)C3=C1C1N(C)CCC14c1c(ccc(O)c1OC24)CC3

>  <smiles>  (269) 
[H]Oc1c([H])c([H])c2c3c1OC1([H])C4(C([H])([H])C([H])([H])[H])C(=C(C([H])([H])C2([H])[H])C([H])(C(O[H])(C([H])([H])[H])C([H])([H])[H])C(=O)C4([H])[H])C2([H])C31C([H])([H])C([H])([H])[N+]2([H])C([H])([H])[H]

$$$$
79:0:1
     RDKit          3D

 62 67  0  0  1  0  0  0  0  0999 V2000
    1.9679   -0.3303    2.5044 C   0  0  0  0  0  0  0  0  0  0  0  0
    3.0610   -0.0548    1.4655 C   0  0  0  0  0  0  0  0  0  0  0  0
    4.1591   -1.1459    1.2667 C   0  0  1  0  0  0  0  0  0  0  0  0
    5.0761   -1.2579    2.5135 C   0  0  0  0  0  0  0  0  0  0  0  0
    4.4764   -2.1680    3.5730 C   0  0  0  0  0  0  0  0  0  0  0  0
    4.3395   -1.7485    4.7191 O   0  0  0  0  0  0  0  0  0  0  0  0
    4.0797   -3.6041    3.1448 C   0  0  1  0  0  0  0  0  0  0  0  0
    2.9970   -4.2759    4.0772 C   0  0  0  0  0  0  0  0  0  0  0  0
    3.4922   -4.5172    5.5220 C   0  0  0  0  0  0  0  0  0  0  0  0
    1.6410   -3.5470    4.0796 C   0  0  0  0  0  0  0  0  0  0  0  0
    2.7158   -5.5791    3.6120 O   0  0  0  0  0  0  0  0  0  0  0  0
    3.7524   -3.6493    1.6284 C   0  0  0  0  0  0  0  0  0  0  0  0
    3.5710   -2.5277    0.8912 C   0  0  0  0  0  0  0  0  0  0  0  0
    3.4228   -2.4217   -0.5896 C   0  0  2  0  0  0  0  0  0  0  0  0
    3.0497   -3.4607   -1.5615 N   0  0  1  0  0  0  0  0  0  0  0  0
    1.6064   -3.7424   -1.6774 C   0  0  0  0  0  0  0  0  0  0  0  0
    3.6840   -3.0068   -2.8266 C   0  0  0  0  0  0  0  0  0  0  0  0
    4.6974   -1.9003   -2.4505 C   0  0  0  0  0  0  0  0  0  0  0  0
    4.8054   -2.0164   -0.9261 C   0  0  2  0  0  0  0  0  0  0  0  0
    5.9992   -2.8632   -0.4353 C   0  0  0  0  0  0  0  0  0  0  0  0
    6.1727   -4.2507   -0.1935 C   0  0  0  0  0  0  0  0  0  0  0  0
    7.4646   -4.6653    0.2055 C   0  0  0  0  0  0  0  0  0  0  0  0
    8.4997   -3.7263    0.3727 C   0  0  0  0  0  0  0  0  0  0  0  0
    8.2266   -2.3526    0.2541 C   0  0  0  0  0  0  0  0  0  0  0  0
    9.1956   -1.4432    0.5313 O   0  0  0  0  0  0  0  0  0  0  0  0
    6.9276   -1.9057   -0.0584 C   0  0  0  0  0  0  0  0  0  0  0  0
    6.4054   -0.6545    0.0859 O   0  0  0  0  0  0  0  0  0  0  0  0
    4.9835   -0.7672   -0.0413 C   0  0  2  0  0  0  0  0  0  0  0  0
    4.9641   -5.1741   -0.2076 C   0  0  0  0  0  0  0  0  0  0  0  0
    3.9110   -5.0193    0.9421 C   0  0  0  0  0  0  0  0  0  0  0  0
    1.2195    0.4627    2.4772 H   0  0  0  0  0  0  0  0  0  0  0  0
    2.3644   -0.3526    3.5186 H   0  0  0  0  0  0  0  0  0  0  0  0
    1.4512   -1.2675    2.2998 H   0  0  0  0  0  0  0  0  0  0  0  0
    2.5484    0.1239    0.5214 H   0  0  0  0  0  0  0  0  0  0  0  0
    3.5419    0.8960    1.7054 H   0  0  0  0  0  0  0  0  0  0  0  0
    6.0395   -1.7036    2.2774 H   0  0  0  0  0  0  0  0  0  0  0  0
    5.2916   -0.2753    2.9361 H   0  0  0  0  0  0  0  0  0  0  0  0
    5.0040   -4.1690    3.2683 H   0  0  0  0  0  0  0  0  0  0  0  0
    3.5617   -3.6017    6.1064 H   0  0  0  0  0  0  0  0  0  0  0  0
    4.4758   -4.9866    5.5316 H   0  0  0  0  0  0  0  0  0  0  0  0
    2.8170   -5.1705    6.0753 H   0  0  0  0  0  0  0  0  0  0  0  0
    1.7205   -2.5481    4.5073 H   0  0  0  0  0  0  0  0  0  0  0  0
    0.9014   -4.0878    4.6708 H   0  0  0  0  0  0  0  0  0  0  0  0
    1.2421   -3.4520    3.0701 H   0  0  0  0  0  0  0  0  0  0  0  0
    2.1800   -6.0177    4.2551 H   0  0  0  0  0  0  0  0  0  0  0  0
    2.7538   -1.5952   -0.8004 H   0  0  0  0  0  0  0  0  0  0  0  0
    1.0315   -2.8916   -2.0496 H   0  0  0  0  0  0  0  0  0  0  0  0
    1.2298   -4.0775   -0.7153 H   0  0  0  0  0  0  0  0  0  0  0  0
    1.4165   -4.5619   -2.3551 H   0  0  0  0  0  0  0  0  0  0  0  0
    4.1756   -3.8475   -3.3129 H   0  0  0  0  0  0  0  0  0  0  0  0
    2.9536   -2.6201   -3.5389 H   0  0  0  0  0  0  0  0  0  0  0  0
    5.6469   -2.0124   -2.9641 H   0  0  0  0  0  0  0  0  0  0  0  0
    4.2740   -0.9264   -2.7204 H   0  0  0  0  0  0  0  0  0  0  0  0
    7.6676   -5.7089    0.3818 H   0  0  0  0  0  0  0  0  0  0  0  0
    9.4687   -4.0672    0.6922 H   0  0  0  0  0  0  0  0  0  0  0  0
    9.9414   -1.3762   -0.0683 H   0  0  0  0  0  0  0  0  0  0  0  0
    4.5693    0.1215   -0.5259 H   0  0  0  0  0  0  0  0  0  0  0  0
    4.5650   -5.2655   -1.2091 H   0  0  0  0  0  0  0  0  0  0  0  0
    5.3711   -6.1736   -0.0752 H   0  0  0  0  0  0  0  0  0  0  0  0
    4.2607   -5.7007    1.7147 H   0  0  0  0  0  0  0  0  0  0  0  0
    2.9396   -5.4083    0.6429 H   0  0  0  0  0  0  0  0  0  0  0  0
    3.5066   -4.3226   -1.2963 H   0  0  0  0  0  0  0  0  0  0  0  0
  1  2  1  0
  1 31  1  0
  1 32  1  0
  1 33  1  0
  3  2  1  1
  2 34  1  0
  2 35  1  0
  3 13  1  0
  3 28  1  0
  3  4  1  0
  4  5  1  0
  4 36  1  0
  4 37  1  0
  5  6  2  0
  5  7  1  0
  7  8  1  0
  7 12  1  0
  7 38  1  6
  8  9  1  0
  8 10  1  0
  8 11  1  0
  9 39  1  0
  9 40  1  0
  9 41  1  0
 10 42  1  0
 10 43  1  0
 10 44  1  0
 11 45  1  0
 12 30  1  0
 12 13  2  0
 13 14  1  0
 14 19  1  0
 14 15  1  0
 14 46  1  1
 15 16  1  0
 15 17  1  0
 15 62  1  1
 16 47  1  0
 16 48  1  0
 16 49  1  0
 17 18  1  0
 17 50  1  0
 17 51  1  0
 19 18  1  6
 18 52  1  0
 18 53  1  0
 19 28  1  0
 19 20  1  0
 20 26  2  0
 20 21  1  0
 21 22  2  0
 21 29  1  0
 22 23  1  0
 22 54  1  0
 23 24  2  0
 23 55  1  0
 24 25  1  0
 24 26  1  0
 25 56  1  0
 26 27  1  0
 27 28  1  0
 28 57  1  6
 29 30  1  0
 29 58  1  0
 29 59  1  0
 30 60  1  0
 30 61  1  0
M  CHG  1  15   1
M  END
>  <i_m_ct_stereo_status>  (270) 
1

>  <s_m_source_file>  (270) 
/var/tmp/pbs.5076255.sched01/tmpthapbt4w/86pc0xbys0.sdf

>  <i_m_source_file_index>  (270) 
34

>  <i_lp_mmshare_version>  (270) 
48012

>  <i_f3d_flags>  (270) 
0

>  <s_epik_input>  (270) 
W09IXWMxW2NIXVtjSF1jKFtDSDJdW0NIMl0yKWMzYzFPW0NAQEhdNFtDQF01KFtDSDJdW0NIM10pW0NIMl1DKD1PKVtDQEBIXShDKFtDSDNdKShbQ0gzXSlbT0hdKUMyPUM1W0NAQEhdKFtDQF0zNDYpTihbQ0gzXSlbQ0gyXVtDSDJdNg==

>  <s_epik_cmdline>  (270) 
J2VwaWtfcHl0aG9uJywgJy1waHQnLCAnMi4wJywgJy1waCcsICc3LjAnLCAnLXRuJywgJzgnLCAnLW1hJywgJzIwMCcsICctaW1hZScsICc8aW5maWxlLm1hZT4nLCAnLW9tYWUnLCAnPG91dGZpbGUubWFlPic=

>  <r_lp_tautomer_probability>  (270) 
0.99995

>  <r_epik_Ionization_Penalty>  (270) 
0.161925

>  <r_epik_Ionization_Penalty_Charging>  (270) 
0.150473

>  <r_epik_Ionization_Penalty_Neutral>  (270) 
0.0114521

>  <r_epik_State_Penalty>  (270) 
0.20684

>  <r_epik_Charging_Adjusted_Penalty>  (270) 
0.357313

>  <i_epik_Tot_Q>  (270) 
1

>  <i_epik_Tot_abs_Q>  (270) 
1

>  <s_lp_Force_Field>  (270) 
OPLS3e

>  <r_lp_Energy>  (270) 
79.2083

>  <b_lp_Chiralities_Consistent>  (270) 
1

>  <s_lp_Variant>  (270) 
79:0-1

>  <s_i_glide_gridfile>  (270) 
pfpi4k_grid

>  <i_i_glide_lignum>  (270) 
34

>  <i_i_glide_rotatable_bonds>  (270) 
4

>  <r_i_docking_score>  (270) 
-3.54825

>  <r_i_glide_ligand_efficiency>  (270) 
-0.118275

>  <r_i_glide_ligand_efficiency_sa>  (270) 
-0.367508

>  <r_i_glide_ligand_efficiency_ln>  (270) 
-0.806201

>  <r_i_glide_gscore>  (270) 
-3.54825

>  <r_i_glide_lipo>  (270) 
-0.642924

>  <r_i_glide_hbond>  (270) 
-0.0214214

>  <r_i_glide_metal>  (270) 
-0

>  <r_i_glide_rewards>  (270) 
-0.642337

>  <r_i_glide_evdw>  (270) 
-18.0781

>  <r_i_glide_ecoul>  (270) 
-9.69707

>  <r_i_glide_erotb>  (270) 
0.116898

>  <r_i_glide_esite>  (270) 
0

>  <r_i_glide_emodel>  (270) 
-33.3278

>  <r_i_glide_energy>  (270) 
-27.7752

>  <r_i_glide_einternal>  (270) 
3.75893

>  <r_i_glide_intrahb_reward>  (270) 
-0

>  <i_i_glide_confnum>  (270) 
2

>  <i_i_glide_posenum>  (270) 
1

>  <r_i_glide_eff_state_penalty>  (270) 
0

>  <ligand_id>  (270) 
79

>  <original_smiles>  (270) 
CCC12CC(=O)C(C(C)(C)O)C3=C1C1N(C)CCC14c1c(ccc(O)c1OC24)CC3

>  <smiles>  (270) 
[H]Oc1c([H])c([H])c2c3c1OC1([H])C4(C([H])([H])C([H])([H])[H])C(=C(C([H])([H])C2([H])[H])C([H])(C(O[H])(C([H])([H])[H])C([H])([H])[H])C(=O)C4([H])[H])C2([H])C31C([H])([H])C([H])([H])[N+]2([H])C([H])([H])[H]

$$$$
79:0:2
     RDKit          3D

 62 67  0  0  1  0  0  0  0  0999 V2000
    1.9265   -0.0938    2.4020 C   0  0  0  0  0  0  0  0  0  0  0  0
    2.9931    0.0628    1.3177 C   0  0  0  0  0  0  0  0  0  0  0  0
    4.0827   -1.0447    1.1973 C   0  0  1  0  0  0  0  0  0  0  0  0
    4.9714   -1.0983    2.4672 C   0  0  0  0  0  0  0  0  0  0  0  0
    4.3418   -1.9521    3.5517 C   0  0  0  0  0  0  0  0  0  0  0  0
    4.1820   -1.4695    4.6753 O   0  0  0  0  0  0  0  0  0  0  0  0
    3.9440   -3.4012    3.1876 C   0  0  1  0  0  0  0  0  0  0  0  0
    2.8317   -4.0155    4.1224 C   0  0  0  0  0  0  0  0  0  0  0  0
    3.2968   -4.2065    5.5829 C   0  0  0  0  0  0  0  0  0  0  0  0
    1.4909   -3.2603    4.0745 C   0  0  0  0  0  0  0  0  0  0  0  0
    2.5226   -5.3248    3.6983 O   0  0  0  0  0  0  0  0  0  0  0  0
    3.6546   -3.5206    1.6618 C   0  0  0  0  0  0  0  0  0  0  0  0
    3.4947   -2.4357    0.8703 C   0  0  0  0  0  0  0  0  0  0  0  0
    3.3897   -2.3896   -0.6191 C   0  0  2  0  0  0  0  0  0  0  0  0
    3.0368   -3.4630   -1.5420 N   0  0  1  0  0  0  0  0  0  0  0  0
    1.6044   -3.7660   -1.6810 C   0  0  0  0  0  0  0  0  0  0  0  0
    3.7078   -3.1039   -2.8197 C   0  0  0  0  0  0  0  0  0  0  0  0
    4.7269   -1.9960   -2.4727 C   0  0  0  0  0  0  0  0  0  0  0  0
    4.7924   -2.0308   -0.9348 C   0  0  2  0  0  0  0  0  0  0  0  0
    5.9569   -2.8755   -0.3684 C   0  0  0  0  0  0  0  0  0  0  0  0
    6.1174   -4.2529   -0.0668 C   0  0  0  0  0  0  0  0  0  0  0  0
    7.3928   -4.6596    0.3892 C   0  0  0  0  0  0  0  0  0  0  0  0
    8.4329   -3.7145    0.5216 C   0  0  0  0  0  0  0  0  0  0  0  0
    8.1703   -2.3489    0.3456 C   0  0  0  0  0  0  0  0  0  0  0  0
    9.1228   -1.4107    0.5854 O   0  0  0  0  0  0  0  0  0  0  0  0
    6.8769   -1.9095   -0.0074 C   0  0  0  0  0  0  0  0  0  0  0  0
    6.3673   -0.6489    0.0695 O   0  0  0  0  0  0  0  0  0  0  0  0
    4.9432   -0.7332   -0.1086 C   0  0  2  0  0  0  0  0  0  0  0  0
    4.8888   -5.1570   -0.0656 C   0  0  0  0  0  0  0  0  0  0  0  0
    3.8162   -4.9251    1.0544 C   0  0  0  0  0  0  0  0  0  0  0  0
    1.1771    0.6938    2.2942 H   0  0  0  0  0  0  0  0  0  0  0  0
    2.3500   -0.0023    3.4008 H   0  0  0  0  0  0  0  0  0  0  0  0
    1.4116   -1.0490    2.3041 H   0  0  0  0  0  0  0  0  0  0  0  0
    2.4282    0.1344    0.3946 H   0  0  0  0  0  0  0  0  0  0  0  0
    3.4802    1.0325    1.4313 H   0  0  0  0  0  0  0  0  0  0  0  0
    5.9373   -1.5568    2.2723 H   0  0  0  0  0  0  0  0  0  0  0  0
    5.1805   -0.0915    2.8355 H   0  0  0  0  0  0  0  0  0  0  0  0
    4.8629   -3.9631    3.3607 H   0  0  0  0  0  0  0  0  0  0  0  0
    3.3739   -3.2702    6.1312 H   0  0  0  0  0  0  0  0  0  0  0  0
    4.2714   -4.6923    5.6342 H   0  0  0  0  0  0  0  0  0  0  0  0
    2.5956   -4.8237    6.1432 H   0  0  0  0  0  0  0  0  0  0  0  0
    1.5793   -2.2483    4.4702 H   0  0  0  0  0  0  0  0  0  0  0  0
    0.7338   -3.7696    4.6720 H   0  0  0  0  0  0  0  0  0  0  0  0
    1.1075   -3.1964    3.0556 H   0  0  0  0  0  0  0  0  0  0  0  0
    3.3028   -5.8564    3.7696 H   0  0  0  0  0  0  0  0  0  0  0  0
    2.7396   -1.5707   -0.8896 H   0  0  0  0  0  0  0  0  0  0  0  0
    1.0228   -2.9592   -2.1269 H   0  0  0  0  0  0  0  0  0  0  0  0
    1.1976   -4.0674   -0.7234 H   0  0  0  0  0  0  0  0  0  0  0  0
    1.5079   -4.6325   -2.3149 H   0  0  0  0  0  0  0  0  0  0  0  0
    4.1997   -3.9819   -3.2325 H   0  0  0  0  0  0  0  0  0  0  0  0
    2.9989   -2.7599   -3.5705 H   0  0  0  0  0  0  0  0  0  0  0  0
    5.6900   -2.1562   -2.9635 H   0  0  0  0  0  0  0  0  0  0  0  0
    4.3164   -1.0362   -2.8089 H   0  0  0  0  0  0  0  0  0  0  0  0
    7.5848   -5.6950    0.6396 H   0  0  0  0  0  0  0  0  0  0  0  0
    9.4015   -4.0321    0.8881 H   0  0  0  0  0  0  0  0  0  0  0  0
    9.9115   -1.4297    0.0409 H   0  0  0  0  0  0  0  0  0  0  0  0
    4.5673    0.1417   -0.6483 H   0  0  0  0  0  0  0  0  0  0  0  0
    4.5021   -5.2956   -1.0712 H   0  0  0  0  0  0  0  0  0  0  0  0
    5.2892   -6.1457    0.1327 H   0  0  0  0  0  0  0  0  0  0  0  0
    4.1493   -5.5665    1.8674 H   0  0  0  0  0  0  0  0  0  0  0  0
    2.8502   -5.3270    0.7553 H   0  0  0  0  0  0  0  0  0  0  0  0
    3.4770   -4.3093   -1.2257 H   0  0  0  0  0  0  0  0  0  0  0  0
  1  2  1  0
  1 31  1  0
  1 32  1  0
  1 33  1  0
  3  2  1  1
  2 34  1  0
  2 35  1  0
  3 13  1  0
  3 28  1  0
  3  4  1  0
  4  5  1  0
  4 36  1  0
  4 37  1  0
  5  6  2  0
  5  7  1  0
  7  8  1  0
  7 12  1  0
  7 38  1  6
  8  9  1  0
  8 10  1  0
  8 11  1  0
  9 39  1  0
  9 40  1  0
  9 41  1  0
 10 42  1  0
 10 43  1  0
 10 44  1  0
 11 45  1  0
 12 30  1  0
 12 13  2  0
 13 14  1  0
 14 19  1  0
 14 15  1  0
 14 46  1  1
 15 16  1  0
 15 17  1  0
 15 62  1  1
 16 47  1  0
 16 48  1  0
 16 49  1  0
 17 18  1  0
 17 50  1  0
 17 51  1  0
 19 18  1  6
 18 52  1  0
 18 53  1  0
 19 28  1  0
 19 20  1  0
 20 26  2  0
 20 21  1  0
 21 22  2  0
 21 29  1  0
 22 23  1  0
 22 54  1  0
 23 24  2  0
 23 55  1  0
 24 25  1  0
 24 26  1  0
 25 56  1  0
 26 27  1  0
 27 28  1  0
 28 57  1  6
 29 30  1  0
 29 58  1  0
 29 59  1  0
 30 60  1  0
 30 61  1  0
M  CHG  1  15   1
M  END
>  <i_m_ct_stereo_status>  (271) 
1

>  <s_m_source_file>  (271) 
/var/tmp/pbs.5076255.sched01/tmpthapbt4w/86pc0xbys0.sdf

>  <i_m_source_file_index>  (271) 
34

>  <i_lp_mmshare_version>  (271) 
48012

>  <i_f3d_flags>  (271) 
0

>  <s_epik_input>  (271) 
W09IXWMxW2NIXVtjSF1jKFtDSDJdW0NIMl0yKWMzYzFPW0NAQEhdNFtDQF01KFtDSDJdW0NIM10pW0NIMl1DKD1PKVtDQEBIXShDKFtDSDNdKShbQ0gzXSlbT0hdKUMyPUM1W0NAQEhdKFtDQF0zNDYpTihbQ0gzXSlbQ0gyXVtDSDJdNg==

>  <s_epik_cmdline>  (271) 
J2VwaWtfcHl0aG9uJywgJy1waHQnLCAnMi4wJywgJy1waCcsICc3LjAnLCAnLXRuJywgJzgnLCAnLW1hJywgJzIwMCcsICctaW1hZScsICc8aW5maWxlLm1hZT4nLCAnLW9tYWUnLCAnPG91dGZpbGUubWFlPic=

>  <r_lp_tautomer_probability>  (271) 
0.99995

>  <r_epik_Ionization_Penalty>  (271) 
0.161925

>  <r_epik_Ionization_Penalty_Charging>  (271) 
0.150473

>  <r_epik_Ionization_Penalty_Neutral>  (271) 
0.0114521

>  <r_epik_State_Penalty>  (271) 
0.20684

>  <r_epik_Charging_Adjusted_Penalty>  (271) 
0.357313

>  <i_epik_Tot_Q>  (271) 
1

>  <i_epik_Tot_abs_Q>  (271) 
1

>  <s_lp_Force_Field>  (271) 
OPLS3e

>  <r_lp_Energy>  (271) 
79.2083

>  <b_lp_Chiralities_Consistent>  (271) 
1

>  <s_lp_Variant>  (271) 
79:0-1

>  <s_i_glide_gridfile>  (271) 
pfpi4k_grid

>  <i_i_glide_lignum>  (271) 
34

>  <i_i_glide_rotatable_bonds>  (271) 
4

>  <r_i_docking_score>  (271) 
-3.54784

>  <r_i_glide_ligand_efficiency>  (271) 
-0.118261

>  <r_i_glide_ligand_efficiency_sa>  (271) 
-0.367465

>  <r_i_glide_ligand_efficiency_ln>  (271) 
-0.806108

>  <r_i_glide_gscore>  (271) 
-3.54784

>  <r_i_glide_lipo>  (271) 
-0.752262

>  <r_i_glide_hbond>  (271) 
-0.0203075

>  <r_i_glide_metal>  (271) 
-0

>  <r_i_glide_rewards>  (271) 
-0.632361

>  <r_i_glide_evdw>  (271) 
-18.6737

>  <r_i_glide_ecoul>  (271) 
-8.8408

>  <r_i_glide_erotb>  (271) 
0.116898

>  <r_i_glide_esite>  (271) 
0

>  <r_i_glide_emodel>  (271) 
-32.8322

>  <r_i_glide_energy>  (271) 
-27.5145

>  <r_i_glide_einternal>  (271) 
3.70068

>  <r_i_glide_intrahb_reward>  (271) 
-0

>  <i_i_glide_confnum>  (271) 
5

>  <i_i_glide_posenum>  (271) 
33

>  <r_i_glide_eff_state_penalty>  (271) 
0

>  <ligand_id>  (271) 
79

>  <original_smiles>  (271) 
CCC12CC(=O)C(C(C)(C)O)C3=C1C1N(C)CCC14c1c(ccc(O)c1OC24)CC3

>  <smiles>  (271) 
[H]Oc1c([H])c([H])c2c3c1OC1([H])C4(C([H])([H])C([H])([H])[H])C(=C(C([H])([H])C2([H])[H])C([H])(C(O[H])(C([H])([H])[H])C([H])([H])[H])C(=O)C4([H])[H])C2([H])C31C([H])([H])C([H])([H])[N+]2([H])C([H])([H])[H]

$$$$
79:1:0
     RDKit          3D

 61 66  0  0  1  0  0  0  0  0999 V2000
    7.5004   -2.5394   -0.9769 C   0  0  0  0  0  0  0  0  0  0  0  0
    7.3172   -1.8917    0.4095 C   0  0  0  0  0  0  0  0  0  0  0  0
    5.8537   -1.6756    0.9221 C   0  0  1  0  0  0  0  0  0  0  0  0
    5.1823   -0.5255    0.1738 C   0  0  0  0  0  0  0  0  0  0  0  0
    4.6163   -1.0058   -1.1510 C   0  0  0  0  0  0  0  0  0  0  0  0
    5.0128   -0.4921   -2.2049 O   0  0  0  0  0  0  0  0  0  0  0  0
    3.5880   -2.1563   -1.1015 C   0  0  1  0  0  0  0  0  0  0  0  0
    3.4292   -2.8999   -2.4796 C   0  0  0  0  0  0  0  0  0  0  0  0
    3.1352   -2.0466   -3.7353 C   0  0  0  0  0  0  0  0  0  0  0  0
    4.5882   -3.8707   -2.7694 C   0  0  0  0  0  0  0  0  0  0  0  0
    2.2253   -3.6009   -2.3714 O   0  0  0  0  0  0  0  0  0  0  0  0
    3.8752   -3.0705    0.1268 C   0  0  0  0  0  0  0  0  0  0  0  0
    5.0164   -2.9684    0.8505 C   0  0  0  0  0  0  0  0  0  0  0  0
    5.3444   -3.6127    2.1510 C   0  0  2  0  0  0  0  0  0  0  0  0
    4.7742   -4.8157    2.7135 N   0  0  0  0  0  0  0  0  0  0  0  0
    5.2460   -6.0490    2.1065 C   0  0  0  0  0  0  0  0  0  0  0  0
    5.0963   -4.6944    4.1373 C   0  0  0  0  0  0  0  0  0  0  0  0
    5.2395   -3.1808    4.4563 C   0  0  0  0  0  0  0  0  0  0  0  0
    5.0119   -2.4906    3.0944 C   0  0  2  0  0  0  0  0  0  0  0  0
    3.6622   -1.7702    3.0155 C   0  0  0  0  0  0  0  0  0  0  0  0
    2.3743   -2.2427    2.7404 C   0  0  0  0  0  0  0  0  0  0  0  0
    1.3158   -1.3080    2.8691 C   0  0  0  0  0  0  0  0  0  0  0  0
    1.5910    0.0401    3.1932 C   0  0  0  0  0  0  0  0  0  0  0  0
    2.9157    0.4959    3.2750 C   0  0  0  0  0  0  0  0  0  0  0  0
    3.1694    1.8332    3.4138 O   0  0  0  0  0  0  0  0  0  0  0  0
    3.9767   -0.4260    3.1342 C   0  0  0  0  0  0  0  0  0  0  0  0
    5.2879   -0.1377    2.9377 O   0  0  0  0  0  0  0  0  0  0  0  0
    5.8997   -1.3507    2.4886 C   0  0  2  0  0  0  0  0  0  0  0  0
    2.2482   -3.6445    2.1476 C   0  0  0  0  0  0  0  0  0  0  0  0
    2.7164   -3.8861    0.6484 C   0  0  0  0  0  0  0  0  0  0  0  0
    8.5632   -2.7296   -1.1721 H   0  0  0  0  0  0  0  0  0  0  0  0
    7.1265   -1.9265   -1.7976 H   0  0  0  0  0  0  0  0  0  0  0  0
    6.9909   -3.5054   -1.0263 H   0  0  0  0  0  0  0  0  0  0  0  0
    7.8236   -2.5627    1.0981 H   0  0  0  0  0  0  0  0  0  0  0  0
    7.8747   -0.9556    0.4562 H   0  0  0  0  0  0  0  0  0  0  0  0
    4.3440   -0.0941    0.7214 H   0  0  0  0  0  0  0  0  0  0  0  0
    5.9397    0.2441    0.0899 H   0  0  0  0  0  0  0  0  0  0  0  0
    2.6448   -1.6531   -0.9150 H   0  0  0  0  0  0  0  0  0  0  0  0
    4.0161   -1.5478   -4.1265 H   0  0  0  0  0  0  0  0  0  0  0  0
    2.3857   -1.2983   -3.4985 H   0  0  0  0  0  0  0  0  0  0  0  0
    2.7606   -2.6602   -4.5544 H   0  0  0  0  0  0  0  0  0  0  0  0
    5.5263   -3.3369   -2.9134 H   0  0  0  0  0  0  0  0  0  0  0  0
    4.4049   -4.4461   -3.6727 H   0  0  0  0  0  0  0  0  0  0  0  0
    4.7333   -4.5873   -1.9607 H   0  0  0  0  0  0  0  0  0  0  0  0
    2.3986   -4.5095   -2.5945 H   0  0  0  0  0  0  0  0  0  0  0  0
    6.4148   -3.7833    2.1400 H   0  0  0  0  0  0  0  0  0  0  0  0
    4.7659   -6.8948    2.6050 H   0  0  0  0  0  0  0  0  0  0  0  0
    6.3321   -6.1481    2.2183 H   0  0  0  0  0  0  0  0  0  0  0  0
    4.9924   -6.0834    1.0400 H   0  0  0  0  0  0  0  0  0  0  0  0
    4.3189   -5.1433    4.7449 H   0  0  0  0  0  0  0  0  0  0  0  0
    6.0339   -5.2119    4.3473 H   0  0  0  0  0  0  0  0  0  0  0  0
    4.5720   -2.8029    5.2289 H   0  0  0  0  0  0  0  0  0  0  0  0
    6.2182   -3.0561    4.9136 H   0  0  0  0  0  0  0  0  0  0  0  0
    0.2920   -1.5789    2.6703 H   0  0  0  0  0  0  0  0  0  0  0  0
    0.7932    0.7688    3.2600 H   0  0  0  0  0  0  0  0  0  0  0  0
    4.0243    2.0822    3.0748 H   0  0  0  0  0  0  0  0  0  0  0  0
    6.9331   -1.2726    2.7931 H   0  0  0  0  0  0  0  0  0  0  0  0
    2.5107   -4.4297    2.8555 H   0  0  0  0  0  0  0  0  0  0  0  0
    1.1643   -3.8133    2.2023 H   0  0  0  0  0  0  0  0  0  0  0  0
    1.8728   -3.5882    0.0291 H   0  0  0  0  0  0  0  0  0  0  0  0
    2.8712   -4.9398    0.4496 H   0  0  0  0  0  0  0  0  0  0  0  0
  1  2  1  0
  1 31  1  0
  1 32  1  0
  1 33  1  0
  3  2  1  6
  2 34  1  0
  2 35  1  0
  3 13  1  0
  3 28  1  0
  3  4  1  0
  4  5  1  0
  4 36  1  0
  4 37  1  0
  5  6  2  0
  5  7  1  0
  7  8  1  0
  7 12  1  0
  7 38  1  1
  8  9  1  0
  8 10  1  0
  8 11  1  0
  9 39  1  0
  9 40  1  0
  9 41  1  0
 10 42  1  0
 10 43  1  0
 10 44  1  0
 11 45  1  0
 12 30  1  0
 12 13  2  0
 13 14  1  0
 14 19  1  0
 14 15  1  0
 14 46  1  6
 15 16  1  0
 15 17  1  0
 16 47  1  0
 16 48  1  0
 16 49  1  0
 17 18  1  0
 17 50  1  0
 17 51  1  0
 19 18  1  1
 18 52  1  0
 18 53  1  0
 19 28  1  0
 19 20  1  0
 20 26  2  0
 20 21  1  0
 21 22  2  0
 21 29  1  0
 22 23  1  0
 22 54  1  0
 23 24  2  0
 23 55  1  0
 24 25  1  0
 24 26  1  0
 25 56  1  0
 26 27  1  0
 27 28  1  0
 28 57  1  1
 29 30  1  0
 29 58  1  0
 29 59  1  0
 30 60  1  0
 30 61  1  0
M  END
>  <i_m_ct_stereo_status>  (272) 
1

>  <s_m_source_file>  (272) 
/var/tmp/pbs.5076255.sched01/tmpthapbt4w/86pc0xbys0.sdf

>  <i_m_source_file_index>  (272) 
35

>  <i_lp_mmshare_version>  (272) 
48012

>  <i_f3d_flags>  (272) 
0

>  <s_epik_input>  (272) 
W09IXWMxW2NIXVtjSF1jKFtDSDJdW0NIMl0yKWMzYzFPW0NAQEhdNFtDQF01KFtDSDJdW0NIM10pW0NIMl1DKD1PKVtDQEBIXShDKFtDSDNdKShbQ0gzXSlbT0hdKUMyPUM1W0NAQEhdKFtDQF0zNDYpTihbQ0gzXSlbQ0gyXVtDSDJdNg==

>  <s_epik_cmdline>  (272) 
J2VwaWtfcHl0aG9uJywgJy1waHQnLCAnMi4wJywgJy1waCcsICc3LjAnLCAnLXRuJywgJzgnLCAnLW1hJywgJzIwMCcsICctaW1hZScsICc8aW5maWxlLm1hZT4nLCAnLW9tYWUnLCAnPG91dGZpbGUubWFlPic=

>  <r_lp_tautomer_probability>  (272) 
0.99995

>  <r_epik_Ionization_Penalty>  (272) 
0.887795

>  <r_epik_Ionization_Penalty_Charging>  (272) 
0

>  <r_epik_Ionization_Penalty_Neutral>  (272) 
0.887795

>  <r_epik_State_Penalty>  (272) 
0.740237

>  <r_epik_Charging_Adjusted_Penalty>  (272) 
0.740237

>  <i_epik_Tot_Q>  (272) 
0

>  <i_epik_Tot_abs_Q>  (272) 
0

>  <s_lp_Force_Field>  (272) 
OPLS3e

>  <r_lp_Energy>  (272) 
73.0305

>  <b_lp_Chiralities_Consistent>  (272) 
1

>  <s_lp_Variant>  (272) 
79:0-2

>  <s_i_glide_gridfile>  (272) 
pfpi4k_grid

>  <i_i_glide_lignum>  (272) 
35

>  <i_i_glide_rotatable_bonds>  (272) 
4

>  <r_i_docking_score>  (272) 
-3.79879

>  <r_i_glide_ligand_efficiency>  (272) 
-0.126626

>  <r_i_glide_ligand_efficiency_sa>  (272) 
-0.393457

>  <r_i_glide_ligand_efficiency_ln>  (272) 
-0.863126

>  <r_i_glide_gscore>  (272) 
-3.79879

>  <r_i_glide_lipo>  (272) 
-0.758299

>  <r_i_glide_hbond>  (272) 
-0.367096

>  <r_i_glide_metal>  (272) 
-0

>  <r_i_glide_rewards>  (272) 
-0.616923

>  <r_i_glide_evdw>  (272) 
-17.5588

>  <r_i_glide_ecoul>  (272) 
-8.35406

>  <r_i_glide_erotb>  (272) 
0.117418

>  <r_i_glide_esite>  (272) 
-0.0428371

>  <r_i_glide_emodel>  (272) 
-29.3372

>  <r_i_glide_energy>  (272) 
-25.9129

>  <r_i_glide_einternal>  (272) 
4.55316

>  <r_i_glide_intrahb_reward>  (272) 
-0

>  <i_i_glide_confnum>  (272) 
4

>  <i_i_glide_posenum>  (272) 
2

>  <r_i_glide_eff_state_penalty>  (272) 
0

>  <ligand_id>  (272) 
79

>  <original_smiles>  (272) 
CCC12CC(=O)C(C(C)(C)O)C3=C1C1N(C)CCC14c1c(ccc(O)c1OC24)CC3

>  <smiles>  (272) 
[H]Oc1c([H])c([H])c2c3c1OC1([H])C4(C([H])([H])C([H])([H])[H])C(=C(C([H])([H])C2([H])[H])C([H])(C(O[H])(C([H])([H])[H])C([H])([H])[H])C(=O)C4([H])[H])C2([H])N(C([H])([H])[H])C([H])([H])C([H])([H])C321

$$$$
79:1:1
     RDKit          3D

 61 66  0  0  1  0  0  0  0  0999 V2000
    3.2470    0.4017    2.2257 C   0  0  0  0  0  0  0  0  0  0  0  0
    4.1649    0.0998    1.0346 C   0  0  0  0  0  0  0  0  0  0  0  0
    4.9896   -1.2231    1.0672 C   0  0  1  0  0  0  0  0  0  0  0  0
    5.7968   -1.3768    2.3811 C   0  0  0  0  0  0  0  0  0  0  0  0
    4.9547   -1.9782    3.4999 C   0  0  0  0  0  0  0  0  0  0  0  0
    4.8781   -1.3910    4.5786 O   0  0  0  0  0  0  0  0  0  0  0  0
    4.2544   -3.3317    3.2153 C   0  0  1  0  0  0  0  0  0  0  0  0
    3.0033   -3.6122    4.1373 C   0  0  0  0  0  0  0  0  0  0  0  0
    3.3639   -3.7589    5.6334 C   0  0  0  0  0  0  0  0  0  0  0  0
    1.8553   -2.6021    3.9529 C   0  0  0  0  0  0  0  0  0  0  0  0
    2.4365   -4.8672    3.8192 O   0  0  0  0  0  0  0  0  0  0  0  0
    3.9851   -3.4944    1.6932 C   0  0  0  0  0  0  0  0  0  0  0  0
    4.0992   -2.4613    0.8244 C   0  0  0  0  0  0  0  0  0  0  0  0
    4.0400   -2.5039   -0.6673 C   0  0  2  0  0  0  0  0  0  0  0  0
    3.4622   -3.5172   -1.5097 N   0  0  0  0  0  0  0  0  0  0  0  0
    2.0165   -3.4688   -1.6192 C   0  0  0  0  0  0  0  0  0  0  0  0
    4.1211   -3.3034   -2.8013 C   0  0  0  0  0  0  0  0  0  0  0  0
    5.4622   -2.6013   -2.4876 C   0  0  0  0  0  0  0  0  0  0  0  0
    5.4973   -2.5282   -0.9606 C   0  0  2  0  0  0  0  0  0  0  0  0
    6.4334   -3.5471   -0.2819 C   0  0  0  0  0  0  0  0  0  0  0  0
    6.2568   -4.8899    0.1400 C   0  0  0  0  0  0  0  0  0  0  0  0
    7.3927   -5.5396    0.6736 C   0  0  0  0  0  0  0  0  0  0  0  0
    8.6103   -4.8467    0.8254 C   0  0  0  0  0  0  0  0  0  0  0  0
    8.6930   -3.4691    0.5295 C   0  0  0  0  0  0  0  0  0  0  0  0
    9.8429   -2.7772    0.7866 O   0  0  0  0  0  0  0  0  0  0  0  0
    7.5573   -2.7974    0.0371 C   0  0  0  0  0  0  0  0  0  0  0  0
    7.3463   -1.4522    0.0036 O   0  0  0  0  0  0  0  0  0  0  0  0
    5.9380   -1.2441   -0.2220 C   0  0  2  0  0  0  0  0  0  0  0  0
    4.8575   -5.4861    0.1329 C   0  0  0  0  0  0  0  0  0  0  0  0
    3.8474   -4.9483    1.1988 C   0  0  0  0  0  0  0  0  0  0  0  0
    2.6628    1.3051    2.0440 H   0  0  0  0  0  0  0  0  0  0  0  0
    3.8101    0.5696    3.1447 H   0  0  0  0  0  0  0  0  0  0  0  0
    2.5399   -0.4122    2.3838 H   0  0  0  0  0  0  0  0  0  0  0  0
    3.5337    0.1001    0.1524 H   0  0  0  0  0  0  0  0  0  0  0  0
    4.8357    0.9429    0.8777 H   0  0  0  0  0  0  0  0  0  0  0  0
    6.6175   -2.0698    2.2511 H   0  0  0  0  0  0  0  0  0  0  0  0
    6.2289   -0.4220    2.6907 H   0  0  0  0  0  0  0  0  0  0  0  0
    5.0171   -4.0685    3.4669 H   0  0  0  0  0  0  0  0  0  0  0  0
    3.6103   -2.8095    6.1034 H   0  0  0  0  0  0  0  0  0  0  0  0
    4.2146   -4.4243    5.7749 H   0  0  0  0  0  0  0  0  0  0  0  0
    2.5293   -4.1651    6.2043 H   0  0  0  0  0  0  0  0  0  0  0  0
    2.1449   -1.6045    4.2796 H   0  0  0  0  0  0  0  0  0  0  0  0
    0.9839   -2.8864    4.5425 H   0  0  0  0  0  0  0  0  0  0  0  0
    1.5382   -2.5448    2.9114 H   0  0  0  0  0  0  0  0  0  0  0  0
    3.0888   -5.5372    3.9648 H   0  0  0  0  0  0  0  0  0  0  0  0
    3.6032   -1.5739   -1.0245 H   0  0  0  0  0  0  0  0  0  0  0  0
    1.6572   -4.2612   -2.2713 H   0  0  0  0  0  0  0  0  0  0  0  0
    1.6949   -2.5250   -2.0543 H   0  0  0  0  0  0  0  0  0  0  0  0
    1.5603   -3.5967   -0.6387 H   0  0  0  0  0  0  0  0  0  0  0  0
    4.2690   -4.2563   -3.3023 H   0  0  0  0  0  0  0  0  0  0  0  0
    3.5142   -2.6781   -3.4585 H   0  0  0  0  0  0  0  0  0  0  0  0
    6.3284   -3.0990   -2.9263 H   0  0  0  0  0  0  0  0  0  0  0  0
    5.4032   -1.5979   -2.9069 H   0  0  0  0  0  0  0  0  0  0  0  0
    7.3394   -6.5726    0.9812 H   0  0  0  0  0  0  0  0  0  0  0  0
    9.4614   -5.3612    1.2564 H   0  0  0  0  0  0  0  0  0  0  0  0
    9.9467   -1.9904    0.2613 H   0  0  0  0  0  0  0  0  0  0  0  0
    5.7756   -0.3560   -0.8381 H   0  0  0  0  0  0  0  0  0  0  0  0
    4.4707   -5.5653   -0.8752 H   0  0  0  0  0  0  0  0  0  0  0  0
    5.0048   -6.5338    0.3749 H   0  0  0  0  0  0  0  0  0  0  0  0
    4.0223   -5.5838    2.0630 H   0  0  0  0  0  0  0  0  0  0  0  0
    2.8236   -5.1493    0.8922 H   0  0  0  0  0  0  0  0  0  0  0  0
  1  2  1  0
  1 31  1  0
  1 32  1  0
  1 33  1  0
  3  2  1  1
  2 34  1  0
  2 35  1  0
  3 13  1  0
  3 28  1  0
  3  4  1  0
  4  5  1  0
  4 36  1  0
  4 37  1  0
  5  6  2  0
  5  7  1  0
  7  8  1  0
  7 12  1  0
  7 38  1  1
  8  9  1  0
  8 10  1  0
  8 11  1  0
  9 39  1  0
  9 40  1  0
  9 41  1  0
 10 42  1  0
 10 43  1  0
 10 44  1  0
 11 45  1  0
 12 30  1  0
 12 13  2  0
 13 14  1  0
 14 19  1  0
 14 15  1  0
 14 46  1  6
 15 16  1  0
 15 17  1  0
 16 47  1  0
 16 48  1  0
 16 49  1  0
 17 18  1  0
 17 50  1  0
 17 51  1  0
 19 18  1  6
 18 52  1  0
 18 53  1  0
 19 28  1  0
 19 20  1  0
 20 26  2  0
 20 21  1  0
 21 22  2  0
 21 29  1  0
 22 23  1  0
 22 54  1  0
 23 24  2  0
 23 55  1  0
 24 25  1  0
 24 26  1  0
 25 56  1  0
 26 27  1  0
 27 28  1  0
 28 57  1  6
 29 30  1  0
 29 58  1  0
 29 59  1  0
 30 60  1  0
 30 61  1  0
M  END
>  <i_m_ct_stereo_status>  (273) 
1

>  <s_m_source_file>  (273) 
/var/tmp/pbs.5076255.sched01/tmpthapbt4w/86pc0xbys0.sdf

>  <i_m_source_file_index>  (273) 
35

>  <i_lp_mmshare_version>  (273) 
48012

>  <i_f3d_flags>  (273) 
0

>  <s_epik_input>  (273) 
W09IXWMxW2NIXVtjSF1jKFtDSDJdW0NIMl0yKWMzYzFPW0NAQEhdNFtDQF01KFtDSDJdW0NIM10pW0NIMl1DKD1PKVtDQEBIXShDKFtDSDNdKShbQ0gzXSlbT0hdKUMyPUM1W0NAQEhdKFtDQF0zNDYpTihbQ0gzXSlbQ0gyXVtDSDJdNg==

>  <s_epik_cmdline>  (273) 
J2VwaWtfcHl0aG9uJywgJy1waHQnLCAnMi4wJywgJy1waCcsICc3LjAnLCAnLXRuJywgJzgnLCAnLW1hJywgJzIwMCcsICctaW1hZScsICc8aW5maWxlLm1hZT4nLCAnLW9tYWUnLCAnPG91dGZpbGUubWFlPic=

>  <r_lp_tautomer_probability>  (273) 
0.99995

>  <r_epik_Ionization_Penalty>  (273) 
0.887795

>  <r_epik_Ionization_Penalty_Charging>  (273) 
0

>  <r_epik_Ionization_Penalty_Neutral>  (273) 
0.887795

>  <r_epik_State_Penalty>  (273) 
0.740237

>  <r_epik_Charging_Adjusted_Penalty>  (273) 
0.740237

>  <i_epik_Tot_Q>  (273) 
0

>  <i_epik_Tot_abs_Q>  (273) 
0

>  <s_lp_Force_Field>  (273) 
OPLS3e

>  <r_lp_Energy>  (273) 
73.0305

>  <b_lp_Chiralities_Consistent>  (273) 
1

>  <s_lp_Variant>  (273) 
79:0-2

>  <s_i_glide_gridfile>  (273) 
pfpi4k_grid

>  <i_i_glide_lignum>  (273) 
35

>  <i_i_glide_rotatable_bonds>  (273) 
4

>  <r_i_docking_score>  (273) 
-3.48342

>  <r_i_glide_ligand_efficiency>  (273) 
-0.116114

>  <r_i_glide_ligand_efficiency_sa>  (273) 
-0.360793

>  <r_i_glide_ligand_efficiency_ln>  (273) 
-0.791471

>  <r_i_glide_gscore>  (273) 
-3.48342

>  <r_i_glide_lipo>  (273) 
-1.16672

>  <r_i_glide_hbond>  (273) 
-0.102279

>  <r_i_glide_metal>  (273) 
-0

>  <r_i_glide_rewards>  (273) 
-0.699213

>  <r_i_glide_evdw>  (273) 
-23.702

>  <r_i_glide_ecoul>  (273) 
-2.98351

>  <r_i_glide_erotb>  (273) 
0.117418

>  <r_i_glide_esite>  (273) 
0

>  <r_i_glide_emodel>  (273) 
-31.3557

>  <r_i_glide_energy>  (273) 
-26.6855

>  <r_i_glide_einternal>  (273) 
2.35105

>  <r_i_glide_intrahb_reward>  (273) 
-0

>  <i_i_glide_confnum>  (273) 
4

>  <i_i_glide_posenum>  (273) 
9

>  <r_i_glide_eff_state_penalty>  (273) 
0

>  <ligand_id>  (273) 
79

>  <original_smiles>  (273) 
CCC12CC(=O)C(C(C)(C)O)C3=C1C1N(C)CCC14c1c(ccc(O)c1OC24)CC3

>  <smiles>  (273) 
[H]Oc1c([H])c([H])c2c3c1OC1([H])C4(C([H])([H])C([H])([H])[H])C(=C(C([H])([H])C2([H])[H])C([H])(C(O[H])(C([H])([H])[H])C([H])([H])[H])C(=O)C4([H])[H])C2([H])N(C([H])([H])[H])C([H])([H])C([H])([H])C321

$$$$
79:1:2
     RDKit          3D

 61 66  0  0  1  0  0  0  0  0999 V2000
    7.9435   -3.1119    0.6101 C   0  0  0  0  0  0  0  0  0  0  0  0
    7.3018   -1.6982    0.6643 C   0  0  0  0  0  0  0  0  0  0  0  0
    5.8120   -1.5132    1.1674 C   0  0  1  0  0  0  0  0  0  0  0  0
    5.1272   -0.4050    0.3319 C   0  0  0  0  0  0  0  0  0  0  0  0
    4.5982   -0.9730   -0.9741 C   0  0  0  0  0  0  0  0  0  0  0  0
    4.9909   -0.4883   -2.0597 O   0  0  0  0  0  0  0  0  0  0  0  0
    3.5877   -2.1207   -0.9043 C   0  0  1  0  0  0  0  0  0  0  0  0
    3.4531   -2.9505   -2.2325 C   0  0  0  0  0  0  0  0  0  0  0  0
    4.6756   -3.8624   -2.4594 C   0  0  0  0  0  0  0  0  0  0  0  0
    2.1278   -3.7175   -2.2918 C   0  0  0  0  0  0  0  0  0  0  0  0
    3.3043   -2.1854   -3.4255 O   0  0  0  0  0  0  0  0  0  0  0  0
    3.8470   -2.9693    0.3804 C   0  0  0  0  0  0  0  0  0  0  0  0
    4.9700   -2.7952    1.1413 C   0  0  0  0  0  0  0  0  0  0  0  0
    5.2686   -3.3863    2.4803 C   0  0  2  0  0  0  0  0  0  0  0  0
    4.7374   -4.5915    3.0812 N   0  0  0  0  0  0  0  0  0  0  0  0
    5.2934   -5.8134    2.5215 C   0  0  0  0  0  0  0  0  0  0  0  0
    5.0763   -4.3899    4.4932 C   0  0  0  0  0  0  0  0  0  0  0  0
    5.1698   -2.8565    4.7249 C   0  0  0  0  0  0  0  0  0  0  0  0
    4.9211   -2.2296    3.3551 C   0  0  2  0  0  0  0  0  0  0  0  0
    3.5578   -1.5439    3.2365 C   0  0  0  0  0  0  0  0  0  0  0  0
    2.2737   -2.0573    2.9570 C   0  0  0  0  0  0  0  0  0  0  0  0
    1.2021   -1.1458    3.0237 C   0  0  0  0  0  0  0  0  0  0  0  0
    1.4427    0.2180    3.2923 C   0  0  0  0  0  0  0  0  0  0  0  0
    2.7587    0.7178    3.3810 C   0  0  0  0  0  0  0  0  0  0  0  0
    2.9983    2.0531    3.4564 O   0  0  0  0  0  0  0  0  0  0  0  0
    3.8364   -0.1892    3.3036 C   0  0  0  0  0  0  0  0  0  0  0  0
    5.1488    0.1115    3.1040 O   0  0  0  0  0  0  0  0  0  0  0  0
    5.7879   -1.1147    2.7084 C   0  0  2  0  0  0  0  0  0  0  0  0
    2.1826   -3.4890    2.4276 C   0  0  0  0  0  0  0  0  0  0  0  0
    2.6768   -3.7658    0.9486 C   0  0  0  0  0  0  0  0  0  0  0  0
    8.9465   -3.0316    0.1599 H   0  0  0  0  0  0  0  0  0  0  0  0
    7.3555   -3.7614   -0.0426 H   0  0  0  0  0  0  0  0  0  0  0  0
    8.0137   -3.6022    1.5893 H   0  0  0  0  0  0  0  0  0  0  0  0
    7.9537   -1.0218    1.2170 H   0  0  0  0  0  0  0  0  0  0  0  0
    7.3721   -1.2980   -0.3376 H   0  0  0  0  0  0  0  0  0  0  0  0
    4.2607    0.0375    0.8305 H   0  0  0  0  0  0  0  0  0  0  0  0
    5.8207    0.4238    0.1799 H   0  0  0  0  0  0  0  0  0  0  0  0
    2.6054   -1.6056   -0.7415 H   0  0  0  0  0  0  0  0  0  0  0  0
    4.6848   -4.6834   -1.7342 H   0  0  0  0  0  0  0  0  0  0  0  0
    5.6271   -3.3289   -2.3537 H   0  0  0  0  0  0  0  0  0  0  0  0
    4.6617   -4.3076   -3.4620 H   0  0  0  0  0  0  0  0  0  0  0  0
    2.0296   -4.4777   -1.5172 H   0  0  0  0  0  0  0  0  0  0  0  0
    2.0427   -4.2212   -3.2584 H   0  0  0  0  0  0  0  0  0  0  0  0
    1.2754   -3.0473   -2.2059 H   0  0  0  0  0  0  0  0  0  0  0  0
    2.6408   -1.5325   -3.2671 H   0  0  0  0  0  0  0  0  0  0  0  0
    6.3412   -3.5045    2.5197 H   0  0  0  0  0  0  0  0  0  0  0  0
    4.8636   -6.6700    3.0317 H   0  0  0  0  0  0  0  0  0  0  0  0
    6.3721   -5.8476    2.6495 H   0  0  0  0  0  0  0  0  0  0  0  0
    5.0700   -5.8960    1.4595 H   0  0  0  0  0  0  0  0  0  0  0  0
    4.3197   -4.8157    5.1438 H   0  0  0  0  0  0  0  0  0  0  0  0
    6.0322   -4.8662    4.7193 H   0  0  0  0  0  0  0  0  0  0  0  0
    4.5639   -2.4475    5.5318 H   0  0  0  0  0  0  0  0  0  0  0  0
    6.1749   -2.6508    5.0720 H   0  0  0  0  0  0  0  0  0  0  0  0
    0.1944   -1.4749    2.8181 H   0  0  0  0  0  0  0  0  0  0  0  0
    0.6332    0.9204    3.3190 H   0  0  0  0  0  0  0  0  0  0  0  0
    3.8933    2.2626    3.1995 H   0  0  0  0  0  0  0  0  0  0  0  0
    6.8088   -1.0125    2.9998 H   0  0  0  0  0  0  0  0  0  0  0  0
    2.4622   -4.2426    3.1525 H   0  0  0  0  0  0  0  0  0  0  0  0
    1.1261   -3.6905    2.4673 H   0  0  0  0  0  0  0  0  0  0  0  0
    1.8330   -3.5067    0.3207 H   0  0  0  0  0  0  0  0  0  0  0  0
    2.8848   -4.8256    0.7857 H   0  0  0  0  0  0  0  0  0  0  0  0
  1  2  1  0
  1 31  1  0
  1 32  1  0
  1 33  1  0
  3  2  1  6
  2 34  1  0
  2 35  1  0
  3 13  1  0
  3 28  1  0
  3  4  1  0
  4  5  1  0
  4 36  1  0
  4 37  1  0
  5  6  2  0
  5  7  1  0
  7  8  1  0
  7 12  1  0
  7 38  1  1
  8  9  1  0
  8 10  1  0
  8 11  1  0
  9 39  1  0
  9 40  1  0
  9 41  1  0
 10 42  1  0
 10 43  1  0
 10 44  1  0
 11 45  1  0
 12 30  1  0
 12 13  2  0
 13 14  1  0
 14 19  1  0
 14 15  1  0
 14 46  1  6
 15 16  1  0
 15 17  1  0
 16 47  1  0
 16 48  1  0
 16 49  1  0
 17 18  1  0
 17 50  1  0
 17 51  1  0
 19 18  1  1
 18 52  1  0
 18 53  1  0
 19 28  1  0
 19 20  1  0
 20 26  2  0
 20 21  1  0
 21 22  2  0
 21 29  1  0
 22 23  1  0
 22 54  1  0
 23 24  2  0
 23 55  1  0
 24 25  1  0
 24 26  1  0
 25 56  1  0
 26 27  1  0
 27 28  1  0
 28 57  1  1
 29 30  1  0
 29 58  1  0
 29 59  1  0
 30 60  1  0
 30 61  1  0
M  END
>  <i_m_ct_stereo_status>  (274) 
1

>  <s_m_source_file>  (274) 
/var/tmp/pbs.5076255.sched01/tmpthapbt4w/86pc0xbys0.sdf

>  <i_m_source_file_index>  (274) 
35

>  <i_lp_mmshare_version>  (274) 
48012

>  <i_f3d_flags>  (274) 
0

>  <s_epik_input>  (274) 
W09IXWMxW2NIXVtjSF1jKFtDSDJdW0NIMl0yKWMzYzFPW0NAQEhdNFtDQF01KFtDSDJdW0NIM10pW0NIMl1DKD1PKVtDQEBIXShDKFtDSDNdKShbQ0gzXSlbT0hdKUMyPUM1W0NAQEhdKFtDQF0zNDYpTihbQ0gzXSlbQ0gyXVtDSDJdNg==

>  <s_epik_cmdline>  (274) 
J2VwaWtfcHl0aG9uJywgJy1waHQnLCAnMi4wJywgJy1waCcsICc3LjAnLCAnLXRuJywgJzgnLCAnLW1hJywgJzIwMCcsICctaW1hZScsICc8aW5maWxlLm1hZT4nLCAnLW9tYWUnLCAnPG91dGZpbGUubWFlPic=

>  <r_lp_tautomer_probability>  (274) 
0.99995

>  <r_epik_Ionization_Penalty>  (274) 
0.887795

>  <r_epik_Ionization_Penalty_Charging>  (274) 
0

>  <r_epik_Ionization_Penalty_Neutral>  (274) 
0.887795

>  <r_epik_State_Penalty>  (274) 
0.740237

>  <r_epik_Charging_Adjusted_Penalty>  (274) 
0.740237

>  <i_epik_Tot_Q>  (274) 
0

>  <i_epik_Tot_abs_Q>  (274) 
0

>  <s_lp_Force_Field>  (274) 
OPLS3e

>  <r_lp_Energy>  (274) 
73.0305

>  <b_lp_Chiralities_Consistent>  (274) 
1

>  <s_lp_Variant>  (274) 
79:0-2

>  <s_i_glide_gridfile>  (274) 
pfpi4k_grid

>  <i_i_glide_lignum>  (274) 
35

>  <i_i_glide_rotatable_bonds>  (274) 
4

>  <r_i_docking_score>  (274) 
-3.33064

>  <r_i_glide_ligand_efficiency>  (274) 
-0.111021

>  <r_i_glide_ligand_efficiency_sa>  (274) 
-0.344969

>  <r_i_glide_ligand_efficiency_ln>  (274) 
-0.756758

>  <r_i_glide_gscore>  (274) 
-3.33064

>  <r_i_glide_lipo>  (274) 
-0.909933

>  <r_i_glide_hbond>  (274) 
-0.0722871

>  <r_i_glide_metal>  (274) 
-0

>  <r_i_glide_rewards>  (274) 
-0.616923

>  <r_i_glide_evdw>  (274) 
-17.9962

>  <r_i_glide_ecoul>  (274) 
-6.0536

>  <r_i_glide_erotb>  (274) 
0.117418

>  <r_i_glide_esite>  (274) 
-0.0410662

>  <r_i_glide_emodel>  (274) 
-25.0229

>  <r_i_glide_energy>  (274) 
-24.0498

>  <r_i_glide_einternal>  (274) 
7.42389

>  <r_i_glide_intrahb_reward>  (274) 
-0

>  <i_i_glide_confnum>  (274) 
4

>  <i_i_glide_posenum>  (274) 
17

>  <r_i_glide_eff_state_penalty>  (274) 
0

>  <ligand_id>  (274) 
79

>  <original_smiles>  (274) 
CCC12CC(=O)C(C(C)(C)O)C3=C1C1N(C)CCC14c1c(ccc(O)c1OC24)CC3

>  <smiles>  (274) 
[H]Oc1c([H])c([H])c2c3c1OC1([H])C4(C([H])([H])C([H])([H])[H])C(=C(C([H])([H])C2([H])[H])C([H])(C(O[H])(C([H])([H])[H])C([H])([H])[H])C(=O)C4([H])[H])C2([H])N(C([H])([H])[H])C([H])([H])C([H])([H])C321

$$$$
81:0:0
     RDKit          3D

 82 93  0  0  1  0  0  0  0  0999 V2000
   -1.8096   -8.5519    4.2351 C   0  0  0  0  0  0  0  0  0  0  0  0
   -0.4927   -8.8595    3.7701 O   0  0  0  0  0  0  0  0  0  0  0  0
    0.6146   -8.2012    4.4026 C   0  0  2  0  0  0  0  0  0  0  0  0
    0.6435   -8.3405    6.0045 C   0  0  0  0  0  0  0  0  0  0  0  0
    1.4140   -7.0320    6.4727 C   0  0  1  0  0  0  0  0  0  0  0  0
    2.6566   -7.2753    5.7656 C   0  0  0  0  0  0  0  0  0  0  0  0
    1.9184   -7.0079    4.2596 C   0  0  2  0  0  0  0  0  0  0  0  0
    0.4691   -6.6935    4.4825 C   0  0  2  0  0  0  0  0  0  0  0  0
    1.0324   -5.7498    5.6297 C   0  0  2  0  0  0  0  0  0  0  0  0
    2.3044   -4.7977    4.9616 C   0  0  2  0  0  0  0  0  0  0  0  0
    3.2501   -5.7081    4.1568 O   0  0  0  0  0  0  0  0  0  0  0  0
    2.8181   -6.8318    3.1857 C   0  0  1  0  0  0  0  0  0  0  0  0
    1.9813   -8.2889    3.4091 C   0  0  0  0  0  0  0  0  0  0  0  0
    2.3095   -9.3326    2.8331 O   0  0  0  0  0  0  0  0  0  0  0  0
    2.5794   -5.9410    1.8473 C   0  0  2  0  0  0  0  0  0  0  0  0
    1.1774   -5.8606    1.4983 O   0  0  0  0  0  0  0  0  0  0  0  0
    0.5877   -6.8913    0.7255 C   0  0  0  0  0  0  0  0  0  0  0  0
    3.4526   -6.5794    0.7564 C   0  0  0  0  0  0  0  0  0  0  0  0
    4.8563   -5.9566    0.6846 C   0  0  0  0  0  0  0  0  0  0  0  0
    5.2633   -5.0776    1.9074 C   0  0  1  0  0  0  0  0  0  0  0  0
    6.6149   -4.7849    1.5977 O   0  0  0  0  0  0  0  0  0  0  0  0
    4.3863   -3.7896    2.2275 C   0  0  1  0  0  0  0  0  0  0  0  0
    5.2364   -3.0679    3.3268 C   0  0  1  0  0  0  0  0  0  0  0  0
    4.8894   -1.5602    3.7380 C   0  0  0  0  0  0  0  0  0  0  0  0
    4.0736   -1.3649    5.0420 C   0  0  0  0  0  0  0  0  0  0  0  0
    4.8168   -0.8551    6.1372 C   0  0  0  0  0  0  0  0  0  0  0  0
    5.5565   -1.7576    6.9552 C   0  0  0  0  0  0  0  0  0  0  0  0
    5.6178   -3.1379    6.6263 C   0  0  0  0  0  0  0  0  0  0  0  0
    6.6123   -3.9414    7.0985 O   0  0  0  0  0  0  0  0  0  0  0  0
    4.7229   -3.5133    5.6026 C   0  0  0  0  0  0  0  0  0  0  0  0
    3.6481   -2.6702    5.2856 C   0  0  0  0  0  0  0  0  0  0  0  0
    2.5957   -3.3741    4.4139 C   0  0  1  0  0  0  0  0  0  0  0  0
    2.9307   -3.3285    2.8336 C   0  0  1  0  0  0  0  0  0  0  0  0
    2.2196   -2.0898    2.2761 C   0  0  0  0  0  0  0  0  0  0  0  0
    2.8349   -1.6257    0.9545 C   0  0  0  0  0  0  0  0  0  0  0  0
    2.9173   -2.6782   -0.0349 N   0  0  0  0  0  0  0  0  0  0  0  0
    4.0828   -2.6975   -0.9144 C   0  0  0  0  0  0  0  0  0  0  0  0
    3.9247   -1.7162   -2.0714 C   0  0  0  0  0  0  0  0  0  0  0  0
    4.8679   -1.8467   -3.2538 C   0  0  0  0  0  0  0  0  0  0  0  0
    4.9639   -0.6512   -2.3445 C   0  0  0  0  0  0  0  0  0  0  0  0
    2.6270   -4.0315    0.4817 O   0  0  0  0  0  0  0  0  0  0  0  0
    2.9896   -4.3937    1.8500 C   0  0  2  0  0  0  0  0  0  0  0  0
    5.3939   -3.9417    4.4813 O   0  0  0  0  0  0  0  0  0  0  0  0
   -2.5530   -9.0882    3.6402 H   0  0  0  0  0  0  0  0  0  0  0  0
   -2.0397   -7.4930    4.1443 H   0  0  0  0  0  0  0  0  0  0  0  0
   -1.9352   -8.8389    5.2699 H   0  0  0  0  0  0  0  0  0  0  0  0
   -0.3391   -8.3102    6.4648 H   0  0  0  0  0  0  0  0  0  0  0  0
    1.1133   -9.2810    6.3357 H   0  0  0  0  0  0  0  0  0  0  0  0
    1.5072   -6.9111    7.5552 H   0  0  0  0  0  0  0  0  0  0  0  0
    3.4470   -6.6245    6.1675 H   0  0  0  0  0  0  0  0  0  0  0  0
    3.0419   -8.2910    5.9110 H   0  0  0  0  0  0  0  0  0  0  0  0
    1.4425   -6.2267    3.6206 H   0  0  0  0  0  0  0  0  0  0  0  0
   -0.2897   -6.2950    3.7686 H   0  0  0  0  0  0  0  0  0  0  0  0
    0.2181   -5.1883    6.0885 H   0  0  0  0  0  0  0  0  0  0  0  0
    1.4798   -4.5070    4.3078 H   0  0  0  0  0  0  0  0  0  0  0  0
   -0.4958   -6.8027    0.7885 H   0  0  0  0  0  0  0  0  0  0  0  0
    0.8692   -7.8916    1.0278 H   0  0  0  0  0  0  0  0  0  0  0  0
    0.8669   -6.7406   -0.3174 H   0  0  0  0  0  0  0  0  0  0  0  0
    3.5391   -7.6622    0.9040 H   0  0  0  0  0  0  0  0  0  0  0  0
    3.0174   -6.4245   -0.2248 H   0  0  0  0  0  0  0  0  0  0  0  0
    5.5796   -6.7560    0.5465 H   0  0  0  0  0  0  0  0  0  0  0  0
    4.9176   -5.3632   -0.2312 H   0  0  0  0  0  0  0  0  0  0  0  0
    5.2890   -5.7168    2.7890 H   0  0  0  0  0  0  0  0  0  0  0  0
    6.6710   -4.3142    0.7805 H   0  0  0  0  0  0  0  0  0  0  0  0
    6.2113   -2.9078    2.8833 H   0  0  0  0  0  0  0  0  0  0  0  0
    5.8379   -1.0520    3.9215 H   0  0  0  0  0  0  0  0  0  0  0  0
    4.4662   -0.9628    2.9389 H   0  0  0  0  0  0  0  0  0  0  0  0
    5.0069    0.2070    6.2481 H   0  0  0  0  0  0  0  0  0  0  0  0
    6.2117   -1.3743    7.7235 H   0  0  0  0  0  0  0  0  0  0  0  0
    6.6149   -4.8248    6.7494 H   0  0  0  0  0  0  0  0  0  0  0  0
    1.7387   -2.7062    4.5970 H   0  0  0  0  0  0  0  0  0  0  0  0
    1.1683   -2.3202    2.1322 H   0  0  0  0  0  0  0  0  0  0  0  0
    2.2490   -1.2588    2.9823 H   0  0  0  0  0  0  0  0  0  0  0  0
    2.2509   -0.8052    0.5515 H   0  0  0  0  0  0  0  0  0  0  0  0
    3.8190   -1.1826    1.0834 H   0  0  0  0  0  0  0  0  0  0  0  0
    4.9934   -2.4644   -0.3567 H   0  0  0  0  0  0  0  0  0  0  0  0
    4.1958   -3.6831   -1.3511 H   0  0  0  0  0  0  0  0  0  0  0  0
    2.8955   -1.4708   -2.3320 H   0  0  0  0  0  0  0  0  0  0  0  0
    5.6585   -2.5944   -3.1932 H   0  0  0  0  0  0  0  0  0  0  0  0
    4.4728   -1.6635   -4.2489 H   0  0  0  0  0  0  0  0  0  0  0  0
    4.6118    0.3001   -2.7389 H   0  0  0  0  0  0  0  0  0  0  0  0
    5.8128   -0.5895   -1.6676 H   0  0  0  0  0  0  0  0  0  0  0  0
  1  2  1  0
  1 44  1  0
  1 45  1  0
  1 46  1  0
  3  2  1  6
  3  8  1  0
  3 13  1  0
  3  4  1  0
  4  5  1  0
  4 47  1  0
  4 48  1  0
  5  9  1  0
  5  6  1  0
  5 49  1  1
  6  7  1  0
  6 50  1  0
  6 51  1  0
  7 12  1  0
  7  8  1  0
  7 52  1  6
  8  9  1  0
  8 53  1  6
  9 10  1  0
  9 54  1  1
 10 32  1  0
 10 11  1  0
 10 55  1  1
 12 11  1  1
 12 13  1  0
 12 15  1  0
 13 14  2  0
 15 42  1  0
 15 16  1  6
 15 18  1  0
 16 17  1  0
 17 56  1  0
 17 57  1  0
 17 58  1  0
 18 19  1  0
 18 59  1  0
 18 60  1  0
 19 20  1  0
 19 61  1  0
 19 62  1  0
 20 21  1  0
 20 22  1  0
 20 63  1  1
 21 64  1  0
 22 33  1  0
 22 42  1  6
 22 23  1  0
 23 43  1  0
 23 24  1  0
 23 65  1  6
 24 25  1  0
 24 66  1  0
 24 67  1  0
 25 31  2  0
 25 26  1  0
 26 27  2  0
 26 68  1  0
 27 28  1  0
 27 69  1  0
 28 29  1  0
 28 30  2  0
 29 70  1  0
 30 31  1  0
 30 43  1  0
 31 32  1  0
 32 33  1  0
 32 71  1  6
 33 42  1  0
 33 34  1  6
 34 35  1  0
 34 72  1  0
 34 73  1  0
 35 36  1  0
 35 74  1  0
 35 75  1  0
 36 37  1  0
 36 41  1  0
 37 38  1  0
 37 76  1  0
 37 77  1  0
 38 40  1  0
 38 39  1  0
 38 78  1  0
 39 40  1  0
 39 79  1  0
 39 80  1  0
 40 81  1  0
 40 82  1  0
 42 41  1  6
M  END
>  <i_m_ct_stereo_status>  (275) 
1

>  <s_m_source_file>  (275) 
/var/tmp/pbs.5076255.sched01/tmpthapbt4w/86pc0xbys0.sdf

>  <i_m_source_file_index>  (275) 
37

>  <i_lp_mmshare_version>  (275) 
48012

>  <i_f3d_flags>  (275) 
0

>  <s_epik_input>  (275) 
QzEyM1tDQEhdNFtDQEhdNVtDQF0oQzI9TykoT1tDSDNdKVtDSDJdW0NAQEhdKFtDSDJdNClbQ0BIXTVbQ0BIXShPMSlbQ0BASF02W0NAXTc4QzkoW0NAXTgoW0NAQF0zKE9bQ0gzXSlbQ0gyXVtDSDJdW0NASF05W09IXSlPTihbQ0gyXVtDSDJdNylbQ0gyXVtDSF0xW0NIMl1bQ0gyXTEpW0NASF0xW0NIMl1jMmM2YyhPMSljKFtPSF0pW2NIXVtjSF0y

>  <s_epik_cmdline>  (275) 
J2VwaWtfcHl0aG9uJywgJy1waHQnLCAnMi4wJywgJy1waCcsICc3LjAnLCAnLXRuJywgJzgnLCAnLW1hJywgJzIwMCcsICctaW1hZScsICc8aW5maWxlLm1hZT4nLCAnLW9tYWUnLCAnPG91dGZpbGUubWFlPic=

>  <r_lp_tautomer_probability>  (275) 
1

>  <r_epik_Ionization_Penalty>  (275) 
0.00434569

>  <r_epik_Ionization_Penalty_Charging>  (275) 
0

>  <r_epik_Ionization_Penalty_Neutral>  (275) 
0.00434569

>  <r_epik_State_Penalty>  (275) 
0.00301188

>  <r_epik_Charging_Adjusted_Penalty>  (275) 
0.00301188

>  <i_epik_Tot_Q>  (275) 
0

>  <i_epik_Tot_abs_Q>  (275) 
0

>  <s_epik_Chemistry_Notes>  (275) 
This compound has a N-S or N-O group and may undergo hydrolysis at high or low pH.

>  <s_lp_Force_Field>  (275) 
OPLS3e

>  <r_lp_Energy>  (275) 
792.829

>  <b_lp_Chiralities_Consistent>  (275) 
1

>  <s_lp_Variant>  (275) 
81:0-1

>  <s_i_glide_gridfile>  (275) 
pfpi4k_grid

>  <i_i_glide_lignum>  (275) 
37

>  <i_i_glide_rotatable_bonds>  (275) 
6

>  <r_i_docking_score>  (275) 
-1.92019

>  <r_i_glide_ligand_efficiency>  (275) 
-0.0446556

>  <r_i_glide_ligand_efficiency_sa>  (275) 
-0.156446

>  <r_i_glide_ligand_efficiency_ln>  (275) 
-0.4033

>  <r_i_glide_gscore>  (275) 
-1.92019

>  <r_i_glide_lipo>  (275) 
-0.346089

>  <r_i_glide_hbond>  (275) 
-0.141137

>  <r_i_glide_metal>  (275) 
-0

>  <r_i_glide_rewards>  (275) 
0

>  <r_i_glide_evdw>  (275) 
-26.2145

>  <r_i_glide_ecoul>  (275) 
-0.300777

>  <r_i_glide_erotb>  (275) 
0.0124398

>  <r_i_glide_esite>  (275) 
-0.0895639

>  <r_i_glide_emodel>  (275) 
-23.7669

>  <r_i_glide_energy>  (275) 
-26.5153

>  <r_i_glide_einternal>  (275) 
11.5504

>  <r_i_glide_intrahb_reward>  (275) 
-0

>  <i_i_glide_confnum>  (275) 
1

>  <i_i_glide_posenum>  (275) 
11

>  <r_i_glide_eff_state_penalty>  (275) 
0

>  <ligand_id>  (275) 
81

>  <original_smiles>  (275) 
COC12CC3CC4C1C3C1OC4(C2=O)C2(OC)CCC(O)C34C5Cc6ccc(O)c(c6C1C31CCN(CC3CC3)OC214)O5

>  <smiles>  (275) 
[H]Oc1c([H])c([H])c2c3c1OC([H])(C2([H])[H])C12C([H])(O[H])C([H])([H])C([H])([H])C4(OC([H])([H])[H])C56OC([H])(C3([H])C13C([H])([H])C([H])([H])N(C([H])([H])C1([H])C([H])([H])C1([H])[H])OC423)C1([H])C2([H])C([H])([H])C(OC([H])([H])[H])(C5=O)C1([H])C6([H])C2([H])[H]

$$$$
81:0:1
     RDKit          3D

 82 93  0  0  1  0  0  0  0  0999 V2000
    5.0213   -2.3167   -1.9434 C   0  0  0  0  0  0  0  0  0  0  0  0
    5.3072   -2.7058   -0.6114 O   0  0  0  0  0  0  0  0  0  0  0  0
    4.2984   -2.3977    0.3634 C   0  0  2  0  0  0  0  0  0  0  0  0
    4.2922   -0.8673    0.7814 C   0  0  0  0  0  0  0  0  0  0  0  0
    3.8188   -0.8687    2.3051 C   0  0  1  0  0  0  0  0  0  0  0  0
    2.5602   -1.5729    2.1074 C   0  0  0  0  0  0  0  0  0  0  0  0
    3.3644   -3.0284    1.7390 C   0  0  2  0  0  0  0  0  0  0  0  0
    4.8156   -2.6987    1.7487 C   0  0  2  0  0  0  0  0  0  0  0  0
    4.4718   -2.0099    3.1598 C   0  0  2  0  0  0  0  0  0  0  0  0
    3.4377   -3.0610    4.1036 C   0  0  2  0  0  0  0  0  0  0  0  0
    2.3556   -3.6467    3.1702 O   0  0  0  0  0  0  0  0  0  0  0  0
    2.5990   -4.2034    1.7767 C   0  0  1  0  0  0  0  0  0  0  0  0
    3.0147   -3.5043    0.3169 C   0  0  0  0  0  0  0  0  0  0  0  0
    2.4558   -3.8189   -0.7125 O   0  0  0  0  0  0  0  0  0  0  0  0
    3.0655   -5.7049    2.1678 C   0  0  2  0  0  0  0  0  0  0  0  0
    4.4129   -5.9866    1.7110 O   0  0  0  0  0  0  0  0  0  0  0  0
    5.5409   -5.7612    2.5997 C   0  0  0  0  0  0  0  0  0  0  0  0
    2.0937   -6.6263    1.3762 C   0  0  0  0  0  0  0  0  0  0  0  0
    0.8359   -7.0183    2.1988 C   0  0  0  0  0  0  0  0  0  0  0  0
    0.5687   -6.1714    3.4820 C   0  0  1  0  0  0  0  0  0  0  0  0
   -0.7059   -6.6621    3.8858 O   0  0  0  0  0  0  0  0  0  0  0  0
    1.6571   -6.1699    4.6219 C   0  0  1  0  0  0  0  0  0  0  0  0
    0.9462   -5.4036    5.7878 C   0  0  1  0  0  0  0  0  0  0  0  0
    1.6100   -5.4390    7.2577 C   0  0  0  0  0  0  0  0  0  0  0  0
    2.4579   -4.2157    7.6942 C   0  0  0  0  0  0  0  0  0  0  0  0
    1.7902   -3.3772    8.6300 C   0  0  0  0  0  0  0  0  0  0  0  0
    0.8624   -2.3980    8.1850 C   0  0  0  0  0  0  0  0  0  0  0  0
    0.5134   -2.2901    6.8173 C   0  0  0  0  0  0  0  0  0  0  0  0
   -0.6453   -1.6778    6.4162 O   0  0  0  0  0  0  0  0  0  0  0  0
    1.3247   -3.0830    5.9881 C   0  0  0  0  0  0  0  0  0  0  0  0
    2.5506   -3.5636    6.4618 C   0  0  0  0  0  0  0  0  0  0  0  0
    3.4413   -4.0660    5.3197 C   0  0  1  0  0  0  0  0  0  0  0  0
    3.1826   -5.6081    4.9680 C   0  0  1  0  0  0  0  0  0  0  0  0
    4.1248   -6.4625    5.8654 C   0  0  0  0  0  0  0  0  0  0  0  0
    3.6994   -7.9198    5.9482 C   0  0  0  0  0  0  0  0  0  0  0  0
    3.4608   -8.5433    4.6446 N   0  0  0  0  0  0  0  0  0  0  0  0
    2.2956   -9.4282    4.6301 C   0  0  0  0  0  0  0  0  0  0  0  0
    2.1853  -10.2357    3.3441 C   0  0  0  0  0  0  0  0  0  0  0  0
    0.9330  -11.0498    3.1003 C   0  0  0  0  0  0  0  0  0  0  0  0
    2.2470  -11.7484    3.3382 C   0  0  0  0  0  0  0  0  0  0  0  0
    3.3723   -7.6044    3.5038 O   0  0  0  0  0  0  0  0  0  0  0  0
    2.9314   -6.2197    3.6941 C   0  0  2  0  0  0  0  0  0  0  0  0
    0.5758   -4.0606    5.3659 O   0  0  0  0  0  0  0  0  0  0  0  0
    5.8489   -2.6057   -2.5932 H   0  0  0  0  0  0  0  0  0  0  0  0
    4.9028   -1.2359   -2.0035 H   0  0  0  0  0  0  0  0  0  0  0  0
    4.1240   -2.7966   -2.3291 H   0  0  0  0  0  0  0  0  0  0  0  0
    5.3057   -0.4737    0.7212 H   0  0  0  0  0  0  0  0  0  0  0  0
    3.6791   -0.2637    0.1130 H   0  0  0  0  0  0  0  0  0  0  0  0
    3.7383    0.1077    2.7767 H   0  0  0  0  0  0  0  0  0  0  0  0
    1.9307   -1.4780    2.9866 H   0  0  0  0  0  0  0  0  0  0  0  0
    1.9719   -1.1824    1.2845 H   0  0  0  0  0  0  0  0  0  0  0  0
    4.1040   -3.7909    2.1672 H   0  0  0  0  0  0  0  0  0  0  0  0
    5.7326   -3.2711    1.5577 H   0  0  0  0  0  0  0  0  0  0  0  0
    5.3862   -1.6907    3.6632 H   0  0  0  0  0  0  0  0  0  0  0  0
    4.3221   -3.6719    4.0114 H   0  0  0  0  0  0  0  0  0  0  0  0
    6.4727   -6.2280    2.2818 H   0  0  0  0  0  0  0  0  0  0  0  0
    5.3642   -6.0967    3.6023 H   0  0  0  0  0  0  0  0  0  0  0  0
    5.8294   -4.7501    2.8769 H   0  0  0  0  0  0  0  0  0  0  0  0
    1.7719   -6.1659    0.4535 H   0  0  0  0  0  0  0  0  0  0  0  0
    2.6029   -7.5411    1.0536 H   0  0  0  0  0  0  0  0  0  0  0  0
   -0.0405   -7.0081    1.5331 H   0  0  0  0  0  0  0  0  0  0  0  0
    0.9139   -8.0722    2.4562 H   0  0  0  0  0  0  0  0  0  0  0  0
    0.4101   -5.1493    3.1628 H   0  0  0  0  0  0  0  0  0  0  0  0
   -0.6261   -7.5843    4.1288 H   0  0  0  0  0  0  0  0  0  0  0  0
    0.0278   -5.9430    5.9796 H   0  0  0  0  0  0  0  0  0  0  0  0
    0.7986   -5.5213    7.9700 H   0  0  0  0  0  0  0  0  0  0  0  0
    2.1721   -6.3287    7.4680 H   0  0  0  0  0  0  0  0  0  0  0  0
    1.8307   -3.6168    9.6855 H   0  0  0  0  0  0  0  0  0  0  0  0
    0.3132   -1.8368    8.9193 H   0  0  0  0  0  0  0  0  0  0  0  0
   -0.7386   -1.6588    5.4733 H   0  0  0  0  0  0  0  0  0  0  0  0
    4.4093   -4.0097    5.8211 H   0  0  0  0  0  0  0  0  0  0  0  0
    5.1620   -6.4791    5.5392 H   0  0  0  0  0  0  0  0  0  0  0  0
    4.2499   -6.0353    6.8639 H   0  0  0  0  0  0  0  0  0  0  0  0
    4.4737   -8.5019    6.4512 H   0  0  0  0  0  0  0  0  0  0  0  0
    2.8242   -8.0305    6.5716 H   0  0  0  0  0  0  0  0  0  0  0  0
    2.3667  -10.1407    5.4426 H   0  0  0  0  0  0  0  0  0  0  0  0
    1.3648   -8.8710    4.7937 H   0  0  0  0  0  0  0  0  0  0  0  0
    2.5777   -9.7458    2.4600 H   0  0  0  0  0  0  0  0  0  0  0  0
    0.1928  -11.1021    3.8938 H   0  0  0  0  0  0  0  0  0  0  0  0
    0.5229  -11.0557    2.0914 H   0  0  0  0  0  0  0  0  0  0  0  0
    2.7264  -12.2265    2.4839 H   0  0  0  0  0  0  0  0  0  0  0  0
    2.3904  -12.2562    4.2890 H   0  0  0  0  0  0  0  0  0  0  0  0
  1  2  1  0
  1 44  1  0
  1 45  1  0
  1 46  1  0
  3  2  1  6
  3  8  1  0
  3 13  1  0
  3  4  1  0
  4  5  1  0
  4 47  1  0
  4 48  1  0
  5  9  1  0
  5  6  1  0
  5 49  1  1
  6  7  1  0
  6 50  1  0
  6 51  1  0
  7 12  1  0
  7  8  1  0
  7 52  1  6
  8  9  1  0
  8 53  1  6
  9 10  1  0
  9 54  1  1
 10 32  1  0
 10 11  1  0
 10 55  1  1
 12 11  1  1
 12 13  1  0
 12 15  1  0
 13 14  2  0
 15 42  1  0
 15 16  1  6
 15 18  1  0
 16 17  1  0
 17 56  1  0
 17 57  1  0
 17 58  1  0
 18 19  1  0
 18 59  1  0
 18 60  1  0
 19 20  1  0
 19 61  1  0
 19 62  1  0
 20 21  1  0
 20 22  1  0
 20 63  1  6
 21 64  1  0
 22 33  1  0
 22 42  1  1
 22 23  1  0
 23 43  1  0
 23 24  1  0
 23 65  1  1
 24 25  1  0
 24 66  1  0
 24 67  1  0
 25 31  2  0
 25 26  1  0
 26 27  2  0
 26 68  1  0
 27 28  1  0
 27 69  1  0
 28 29  1  0
 28 30  2  0
 29 70  1  0
 30 31  1  0
 30 43  1  0
 31 32  1  0
 32 33  1  0
 32 71  1  1
 33 42  1  0
 33 34  1  1
 34 35  1  0
 34 72  1  0
 34 73  1  0
 35 36  1  0
 35 74  1  0
 35 75  1  0
 36 37  1  0
 36 41  1  0
 37 38  1  0
 37 76  1  0
 37 77  1  0
 38 40  1  0
 38 39  1  0
 38 78  1  0
 39 40  1  0
 39 79  1  0
 39 80  1  0
 40 81  1  0
 40 82  1  0
 42 41  1  6
M  END
>  <i_m_ct_stereo_status>  (276) 
1

>  <s_m_source_file>  (276) 
/var/tmp/pbs.5076255.sched01/tmpthapbt4w/86pc0xbys0.sdf

>  <i_m_source_file_index>  (276) 
37

>  <i_lp_mmshare_version>  (276) 
48012

>  <i_f3d_flags>  (276) 
0

>  <s_epik_input>  (276) 
QzEyM1tDQEhdNFtDQEhdNVtDQF0oQzI9TykoT1tDSDNdKVtDSDJdW0NAQEhdKFtDSDJdNClbQ0BIXTVbQ0BIXShPMSlbQ0BASF02W0NAXTc4QzkoW0NAXTgoW0NAQF0zKE9bQ0gzXSlbQ0gyXVtDSDJdW0NASF05W09IXSlPTihbQ0gyXVtDSDJdNylbQ0gyXVtDSF0xW0NIMl1bQ0gyXTEpW0NASF0xW0NIMl1jMmM2YyhPMSljKFtPSF0pW2NIXVtjSF0y

>  <s_epik_cmdline>  (276) 
J2VwaWtfcHl0aG9uJywgJy1waHQnLCAnMi4wJywgJy1waCcsICc3LjAnLCAnLXRuJywgJzgnLCAnLW1hJywgJzIwMCcsICctaW1hZScsICc8aW5maWxlLm1hZT4nLCAnLW9tYWUnLCAnPG91dGZpbGUubWFlPic=

>  <r_lp_tautomer_probability>  (276) 
1

>  <r_epik_Ionization_Penalty>  (276) 
0.00434569

>  <r_epik_Ionization_Penalty_Charging>  (276) 
0

>  <r_epik_Ionization_Penalty_Neutral>  (276) 
0.00434569

>  <r_epik_State_Penalty>  (276) 
0.00301188

>  <r_epik_Charging_Adjusted_Penalty>  (276) 
0.00301188

>  <i_epik_Tot_Q>  (276) 
0

>  <i_epik_Tot_abs_Q>  (276) 
0

>  <s_epik_Chemistry_Notes>  (276) 
This compound has a N-S or N-O group and may undergo hydrolysis at high or low pH.

>  <s_lp_Force_Field>  (276) 
OPLS3e

>  <r_lp_Energy>  (276) 
792.829

>  <b_lp_Chiralities_Consistent>  (276) 
1

>  <s_lp_Variant>  (276) 
81:0-1

>  <s_i_glide_gridfile>  (276) 
pfpi4k_grid

>  <i_i_glide_lignum>  (276) 
37

>  <i_i_glide_rotatable_bonds>  (276) 
6

>  <r_i_docking_score>  (276) 
-1.61242

>  <r_i_glide_ligand_efficiency>  (276) 
-0.0374981

>  <r_i_glide_ligand_efficiency_sa>  (276) 
-0.131371

>  <r_i_glide_ligand_efficiency_ln>  (276) 
-0.338658

>  <r_i_glide_gscore>  (276) 
-1.61242

>  <r_i_glide_lipo>  (276) 
-0.31486

>  <r_i_glide_hbond>  (276) 
0

>  <r_i_glide_metal>  (276) 
-0

>  <r_i_glide_rewards>  (276) 
0

>  <r_i_glide_evdw>  (276) 
-26.8521

>  <r_i_glide_ecoul>  (276) 
-2.04433

>  <r_i_glide_erotb>  (276) 
0.0124398

>  <r_i_glide_esite>  (276) 
-0.0150546

>  <r_i_glide_emodel>  (276) 
-25.2782

>  <r_i_glide_energy>  (276) 
-28.8964

>  <r_i_glide_einternal>  (276) 
4.567

>  <r_i_glide_intrahb_reward>  (276) 
-0

>  <i_i_glide_confnum>  (276) 
1

>  <i_i_glide_posenum>  (276) 
40

>  <r_i_glide_eff_state_penalty>  (276) 
0

>  <ligand_id>  (276) 
81

>  <original_smiles>  (276) 
COC12CC3CC4C1C3C1OC4(C2=O)C2(OC)CCC(O)C34C5Cc6ccc(O)c(c6C1C31CCN(CC3CC3)OC214)O5

>  <smiles>  (276) 
[H]Oc1c([H])c([H])c2c3c1OC([H])(C2([H])[H])C12C([H])(O[H])C([H])([H])C([H])([H])C4(OC([H])([H])[H])C56OC([H])(C3([H])C13C([H])([H])C([H])([H])N(C([H])([H])C1([H])C([H])([H])C1([H])[H])OC423)C1([H])C2([H])C([H])([H])C(OC([H])([H])[H])(C5=O)C1([H])C6([H])C2([H])[H]

$$$$
81:0:2
     RDKit          3D

 82 93  0  0  1  0  0  0  0  0999 V2000
    8.7471   -3.2569   -0.2616 C   0  0  0  0  0  0  0  0  0  0  0  0
    8.0901   -4.5200   -0.1774 O   0  0  0  0  0  0  0  0  0  0  0  0
    7.7849   -5.0542    1.1160 C   0  0  2  0  0  0  0  0  0  0  0  0
    9.1148   -5.6590    1.7587 C   0  0  0  0  0  0  0  0  0  0  0  0
    8.6012   -6.8203    2.7231 C   0  0  1  0  0  0  0  0  0  0  0  0
    7.7822   -5.9696    3.5606 C   0  0  0  0  0  0  0  0  0  0  0  0
    6.6437   -5.7414    2.2788 C   0  0  2  0  0  0  0  0  0  0  0  0
    7.1848   -6.4419    1.0696 C   0  0  2  0  0  0  0  0  0  0  0  0
    7.4191   -7.6421    2.1215 C   0  0  2  0  0  0  0  0  0  0  0  0
    6.0181   -7.8552    3.1102 C   0  0  2  0  0  0  0  0  0  0  0  0
    5.5082   -6.4581    3.5464 O   0  0  0  0  0  0  0  0  0  0  0  0
    5.4047   -5.2024    2.6572 C   0  0  1  0  0  0  0  0  0  0  0  0
    6.5309   -4.2601    1.8561 C   0  0  0  0  0  0  0  0  0  0  0  0
    6.3188   -3.0674    1.6484 O   0  0  0  0  0  0  0  0  0  0  0  0
    3.9929   -5.4261    1.9246 C   0  0  2  0  0  0  0  0  0  0  0  0
    4.1198   -5.7129    0.5176 O   0  0  0  0  0  0  0  0  0  0  0  0
    4.2117   -4.6360   -0.3996 C   0  0  0  0  0  0  0  0  0  0  0  0
    3.1418   -4.1794    2.2245 C   0  0  0  0  0  0  0  0  0  0  0  0
    2.3396   -4.3517    3.5397 C   0  0  0  0  0  0  0  0  0  0  0  0
    2.7669   -5.5225    4.4796 C   0  0  1  0  0  0  0  0  0  0  0  0
    1.8711   -5.3101    5.5609 O   0  0  0  0  0  0  0  0  0  0  0  0
    2.6576   -6.9699    3.9089 C   0  0  1  0  0  0  0  0  0  0  0  0
    2.9036   -7.8582    5.1770 C   0  0  1  0  0  0  0  0  0  0  0  0
    2.5677   -9.4229    5.1594 C   0  0  0  0  0  0  0  0  0  0  0  0
    3.7474  -10.3941    4.9393 C   0  0  0  0  0  0  0  0  0  0  0  0
    4.1294  -11.1062    6.1109 C   0  0  0  0  0  0  0  0  0  0  0  0
    4.9929  -10.4725    7.0556 C   0  0  0  0  0  0  0  0  0  0  0  0
    5.4180   -9.1426    6.8730 C   0  0  0  0  0  0  0  0  0  0  0  0
    5.8778   -8.3817    7.9165 O   0  0  0  0  0  0  0  0  0  0  0  0
    5.0928   -8.6124    5.6214 C   0  0  0  0  0  0  0  0  0  0  0  0
    4.7463   -9.4794    4.5779 C   0  0  0  0  0  0  0  0  0  0  0  0
    4.7581   -8.7581    3.2354 C   0  0  1  0  0  0  0  0  0  0  0  0
    3.4026   -8.0033    2.8803 C   0  0  1  0  0  0  0  0  0  0  0  0
    2.6150   -8.9997    2.0581 C   0  0  0  0  0  0  0  0  0  0  0  0
    1.1659   -8.6761    2.1507 C   0  0  0  0  0  0  0  0  0  0  0  0
    0.8153   -7.3698    1.6187 N   0  0  0  0  0  0  0  0  0  0  0  0
   -0.2469   -6.7080    2.3594 C   0  0  0  0  0  0  0  0  0  0  0  0
   -1.4779   -7.5727    2.6301 C   0  0  0  0  0  0  0  0  0  0  0  0
   -2.3972   -7.2243    3.7842 C   0  0  0  0  0  0  0  0  0  0  0  0
   -1.5937   -8.4765    3.8455 C   0  0  0  0  0  0  0  0  0  0  0  0
    1.9297   -6.4182    1.5986 O   0  0  0  0  0  0  0  0  0  0  0  0
    3.1130   -6.6612    2.4199 C   0  0  2  0  0  0  0  0  0  0  0  0
    4.2003   -7.5750    5.7603 O   0  0  0  0  0  0  0  0  0  0  0  0
    8.8253   -3.0016   -1.3183 H   0  0  0  0  0  0  0  0  0  0  0  0
    9.7548   -3.2998    0.1447 H   0  0  0  0  0  0  0  0  0  0  0  0
    8.2121   -2.4374    0.2122 H   0  0  0  0  0  0  0  0  0  0  0  0
    9.6797   -6.0883    0.9365 H   0  0  0  0  0  0  0  0  0  0  0  0
    9.7499   -4.9075    2.2307 H   0  0  0  0  0  0  0  0  0  0  0  0
    9.3848   -7.3628    3.2624 H   0  0  0  0  0  0  0  0  0  0  0  0
    7.5277   -6.5172    4.4797 H   0  0  0  0  0  0  0  0  0  0  0  0
    8.3378   -5.1259    3.8927 H   0  0  0  0  0  0  0  0  0  0  0  0
    5.9140   -6.2989    1.6289 H   0  0  0  0  0  0  0  0  0  0  0  0
    6.6959   -6.5942    0.0941 H   0  0  0  0  0  0  0  0  0  0  0  0
    7.7508   -8.5431    1.6113 H   0  0  0  0  0  0  0  0  0  0  0  0
    5.6157   -8.0455    2.1293 H   0  0  0  0  0  0  0  0  0  0  0  0
    4.6112   -5.0421   -1.3278 H   0  0  0  0  0  0  0  0  0  0  0  0
    4.8762   -3.8328   -0.0925 H   0  0  0  0  0  0  0  0  0  0  0  0
    3.2315   -4.1997   -0.5993 H   0  0  0  0  0  0  0  0  0  0  0  0
    3.7882   -3.3258    2.3553 H   0  0  0  0  0  0  0  0  0  0  0  0
    2.4680   -3.9103    1.4009 H   0  0  0  0  0  0  0  0  0  0  0  0
    2.4110   -3.4175    4.0969 H   0  0  0  0  0  0  0  0  0  0  0  0
    1.2817   -4.4470    3.2764 H   0  0  0  0  0  0  0  0  0  0  0  0
    3.7741   -5.3550    4.8441 H   0  0  0  0  0  0  0  0  0  0  0  0
    2.1900   -5.7821    6.3203 H   0  0  0  0  0  0  0  0  0  0  0  0
    2.1635   -7.5514    5.8954 H   0  0  0  0  0  0  0  0  0  0  0  0
    2.1782   -9.6725    6.1442 H   0  0  0  0  0  0  0  0  0  0  0  0
    1.7591   -9.6903    4.5135 H   0  0  0  0  0  0  0  0  0  0  0  0
    3.6474  -12.0331    6.4182 H   0  0  0  0  0  0  0  0  0  0  0  0
    5.1990  -10.9625    7.9918 H   0  0  0  0  0  0  0  0  0  0  0  0
    5.9654   -8.8845    8.7215 H   0  0  0  0  0  0  0  0  0  0  0  0
    4.8329   -9.6163    2.5584 H   0  0  0  0  0  0  0  0  0  0  0  0
    2.9877   -8.9646    1.0333 H   0  0  0  0  0  0  0  0  0  0  0  0
    2.7360  -10.0164    2.4399 H   0  0  0  0  0  0  0  0  0  0  0  0
    0.5955   -9.4440    1.6714 H   0  0  0  0  0  0  0  0  0  0  0  0
    0.8129   -8.8162    3.1480 H   0  0  0  0  0  0  0  0  0  0  0  0
    0.0925   -6.3218    3.3187 H   0  0  0  0  0  0  0  0  0  0  0  0
   -0.5208   -5.8685    1.7154 H   0  0  0  0  0  0  0  0  0  0  0  0
   -1.9343   -7.9784    1.7411 H   0  0  0  0  0  0  0  0  0  0  0  0
   -2.1566   -6.4801    4.5238 H   0  0  0  0  0  0  0  0  0  0  0  0
   -3.4598   -7.4295    3.6941 H   0  0  0  0  0  0  0  0  0  0  0  0
   -2.1020   -9.4140    3.6458 H   0  0  0  0  0  0  0  0  0  0  0  0
   -0.8387   -8.4937    4.6336 H   0  0  0  0  0  0  0  0  0  0  0  0
  1  2  1  0
  1 44  1  0
  1 45  1  0
  1 46  1  0
  3  2  1  6
  3  8  1  0
  3 13  1  0
  3  4  1  0
  4  5  1  0
  4 47  1  0
  4 48  1  0
  5  9  1  0
  5  6  1  0
  5 49  1  1
  6  7  1  0
  6 50  1  0
  6 51  1  0
  7 12  1  0
  7  8  1  0
  7 52  1  6
  8  9  1  0
  8 53  1  6
  9 10  1  0
  9 54  1  6
 10 32  1  0
 10 11  1  0
 10 55  1  1
 12 11  1  1
 12 13  1  0
 12 15  1  0
 13 14  2  0
 15 42  1  0
 15 16  1  6
 15 18  1  0
 16 17  1  0
 17 56  1  0
 17 57  1  0
 17 58  1  0
 18 19  1  0
 18 59  1  0
 18 60  1  0
 19 20  1  0
 19 61  1  0
 19 62  1  0
 20 21  1  0
 20 22  1  0
 20 63  1  1
 21 64  1  0
 22 33  1  0
 22 42  1  6
 22 23  1  0
 23 43  1  0
 23 24  1  0
 23 65  1  1
 24 25  1  0
 24 66  1  0
 24 67  1  0
 25 31  2  0
 25 26  1  0
 26 27  2  0
 26 68  1  0
 27 28  1  0
 27 69  1  0
 28 29  1  0
 28 30  2  0
 29 70  1  0
 30 31  1  0
 30 43  1  0
 31 32  1  0
 32 33  1  0
 32 71  1  6
 33 42  1  0
 33 34  1  6
 34 35  1  0
 34 72  1  0
 34 73  1  0
 35 36  1  0
 35 74  1  0
 35 75  1  0
 36 37  1  0
 36 41  1  0
 37 38  1  0
 37 76  1  0
 37 77  1  0
 38 40  1  0
 38 39  1  0
 38 78  1  0
 39 40  1  0
 39 79  1  0
 39 80  1  0
 40 81  1  0
 40 82  1  0
 42 41  1  6
M  END
>  <i_m_ct_stereo_status>  (277) 
1

>  <s_m_source_file>  (277) 
/var/tmp/pbs.5076255.sched01/tmpthapbt4w/86pc0xbys0.sdf

>  <i_m_source_file_index>  (277) 
37

>  <i_lp_mmshare_version>  (277) 
48012

>  <i_f3d_flags>  (277) 
0

>  <s_epik_input>  (277) 
QzEyM1tDQEhdNFtDQEhdNVtDQF0oQzI9TykoT1tDSDNdKVtDSDJdW0NAQEhdKFtDSDJdNClbQ0BIXTVbQ0BIXShPMSlbQ0BASF02W0NAXTc4QzkoW0NAXTgoW0NAQF0zKE9bQ0gzXSlbQ0gyXVtDSDJdW0NASF05W09IXSlPTihbQ0gyXVtDSDJdNylbQ0gyXVtDSF0xW0NIMl1bQ0gyXTEpW0NASF0xW0NIMl1jMmM2YyhPMSljKFtPSF0pW2NIXVtjSF0y

>  <s_epik_cmdline>  (277) 
J2VwaWtfcHl0aG9uJywgJy1waHQnLCAnMi4wJywgJy1waCcsICc3LjAnLCAnLXRuJywgJzgnLCAnLW1hJywgJzIwMCcsICctaW1hZScsICc8aW5maWxlLm1hZT4nLCAnLW9tYWUnLCAnPG91dGZpbGUubWFlPic=

>  <r_lp_tautomer_probability>  (277) 
1

>  <r_epik_Ionization_Penalty>  (277) 
0.00434569

>  <r_epik_Ionization_Penalty_Charging>  (277) 
0

>  <r_epik_Ionization_Penalty_Neutral>  (277) 
0.00434569

>  <r_epik_State_Penalty>  (277) 
0.00301188

>  <r_epik_Charging_Adjusted_Penalty>  (277) 
0.00301188

>  <i_epik_Tot_Q>  (277) 
0

>  <i_epik_Tot_abs_Q>  (277) 
0

>  <s_epik_Chemistry_Notes>  (277) 
This compound has a N-S or N-O group and may undergo hydrolysis at high or low pH.

>  <s_lp_Force_Field>  (277) 
OPLS3e

>  <r_lp_Energy>  (277) 
792.829

>  <b_lp_Chiralities_Consistent>  (277) 
1

>  <s_lp_Variant>  (277) 
81:0-1

>  <s_i_glide_gridfile>  (277) 
pfpi4k_grid

>  <i_i_glide_lignum>  (277) 
37

>  <i_i_glide_rotatable_bonds>  (277) 
6

>  <r_i_docking_score>  (277) 
-1.43621

>  <r_i_glide_ligand_efficiency>  (277) 
-0.0334002

>  <r_i_glide_ligand_efficiency_sa>  (277) 
-0.117014

>  <r_i_glide_ligand_efficiency_ln>  (277) 
-0.301648

>  <r_i_glide_gscore>  (277) 
-1.43621

>  <r_i_glide_lipo>  (277) 
-0.247516

>  <r_i_glide_hbond>  (277) 
0

>  <r_i_glide_metal>  (277) 
-0

>  <r_i_glide_rewards>  (277) 
-0.0736078

>  <r_i_glide_evdw>  (277) 
-16.9813

>  <r_i_glide_ecoul>  (277) 
-1.25981

>  <r_i_glide_erotb>  (277) 
0.0124398

>  <r_i_glide_esite>  (277) 
-0.0894848

>  <r_i_glide_emodel>  (277) 
-15.9118

>  <r_i_glide_energy>  (277) 
-18.2412

>  <r_i_glide_einternal>  (277) 
4.12527

>  <r_i_glide_intrahb_reward>  (277) 
-0

>  <i_i_glide_confnum>  (277) 
1

>  <i_i_glide_posenum>  (277) 
4

>  <r_i_glide_eff_state_penalty>  (277) 
0

>  <ligand_id>  (277) 
81

>  <original_smiles>  (277) 
COC12CC3CC4C1C3C1OC4(C2=O)C2(OC)CCC(O)C34C5Cc6ccc(O)c(c6C1C31CCN(CC3CC3)OC214)O5

>  <smiles>  (277) 
[H]Oc1c([H])c([H])c2c3c1OC([H])(C2([H])[H])C12C([H])(O[H])C([H])([H])C([H])([H])C4(OC([H])([H])[H])C56OC([H])(C3([H])C13C([H])([H])C([H])([H])N(C([H])([H])C1([H])C([H])([H])C1([H])[H])OC423)C1([H])C2([H])C([H])([H])C(OC([H])([H])[H])(C5=O)C1([H])C6([H])C2([H])[H]

$$$$
82:0:0
     RDKit          3D

 81 85  0  0  1  0  0  0  0  0999 V2000
    1.0750    0.5890    1.7146 C   0  0  0  0  0  0  0  0  0  0  0  0
    1.3172    0.1607    2.9671 C   0  0  0  0  0  0  0  0  0  0  0  0
    0.5178    0.7757    4.0990 C   0  0  0  0  0  0  0  0  0  0  0  0
    2.3246   -0.9446    3.3594 C   0  0  2  0  0  0  0  0  0  0  0  0
    3.5645   -0.4377    4.1326 C   0  0  0  0  0  0  0  0  0  0  0  0
    4.8192   -0.7493    3.2920 C   0  0  0  0  0  0  0  0  0  0  0  0
    4.3198   -1.1864    1.9064 C   0  0  1  0  0  0  0  0  0  0  0  0
    4.2135    0.0785    1.0365 C   0  0  0  0  0  0  0  0  0  0  0  0
    5.2803   -2.1250    1.1394 C   0  0  0  0  0  0  0  0  0  0  0  0
    5.1440   -3.6348    1.3973 C   0  0  0  0  0  0  0  0  0  0  0  0
    3.6751   -4.1753    1.3991 C   0  0  2  0  0  0  0  0  0  0  0  0
    3.0030   -3.8539    0.0283 C   0  0  0  0  0  0  0  0  0  0  0  0
    2.9220   -3.3545    2.5057 C   0  0  1  0  0  0  0  0  0  0  0  0
    3.4196   -3.7694    3.9076 C   0  0  0  0  0  0  0  0  0  0  0  0
    3.2416   -5.2657    4.1390 C   0  0  0  0  0  0  0  0  0  0  0  0
    4.0306   -6.1704    3.1339 C   0  0  1  0  0  0  0  0  0  0  0  0
    3.8911   -7.7138    3.5394 C   0  0  2  0  0  0  0  0  0  0  0  0
    4.2806   -7.7943    5.0456 C   0  0  0  0  0  0  0  0  0  0  0  0
    4.8864   -8.6672    2.8038 C   0  0  0  0  0  0  0  0  0  0  0  0
    4.6891  -10.1600    3.1122 C   0  0  0  0  0  0  0  0  0  0  0  0
    3.2448  -10.6066    2.8572 C   0  0  1  0  0  0  0  0  0  0  0  0
    3.1414  -11.9618    3.2177 O   0  0  0  0  0  0  0  0  0  0  0  0
    2.1613   -9.7459    3.5695 C   0  0  0  0  0  0  0  0  0  0  0  0
    0.7672  -10.1828    3.0565 C   0  0  0  0  0  0  0  0  0  0  0  0
    2.1399  -10.0305    5.0962 C   0  0  0  0  0  0  0  0  0  0  0  0
    2.4222   -8.2142    3.2543 C   0  0  2  0  0  0  0  0  0  0  0  0
    2.0246   -7.8372    1.7946 C   0  0  0  0  0  0  0  0  0  0  0  0
    2.2006   -6.3485    1.4297 C   0  0  0  0  0  0  0  0  0  0  0  0
    3.6317   -5.7703    1.6515 C   0  0  1  0  0  0  0  0  0  0  0  0
    4.6015   -6.4250    0.6194 C   0  0  0  0  0  0  0  0  0  0  0  0
    2.9192   -1.8039    2.2102 C   0  0  1  0  0  0  0  0  0  0  0  0
    0.3472    1.3693    1.5233 H   0  0  0  0  0  0  0  0  0  0  0  0
    1.5891    0.1895    0.8620 H   0  0  0  0  0  0  0  0  0  0  0  0
    0.0595   -0.0001    4.7119 H   0  0  0  0  0  0  0  0  0  0  0  0
   -0.2918    1.3904    3.6979 H   0  0  0  0  0  0  0  0  0  0  0  0
    1.1380    1.4117    4.7298 H   0  0  0  0  0  0  0  0  0  0  0  0
    1.7337   -1.5786    4.0149 H   0  0  0  0  0  0  0  0  0  0  0  0
    3.4934    0.6258    4.3609 H   0  0  0  0  0  0  0  0  0  0  0  0
    3.6588   -0.9450    5.0910 H   0  0  0  0  0  0  0  0  0  0  0  0
    5.4881    0.1093    3.2331 H   0  0  0  0  0  0  0  0  0  0  0  0
    5.4085   -1.5344    3.7565 H   0  0  0  0  0  0  0  0  0  0  0  0
    3.6912   -0.1441    0.1107 H   0  0  0  0  0  0  0  0  0  0  0  0
    5.2094    0.4391    0.7611 H   0  0  0  0  0  0  0  0  0  0  0  0
    3.6877    0.8908    1.5365 H   0  0  0  0  0  0  0  0  0  0  0  0
    5.1453   -1.9814    0.0688 H   0  0  0  0  0  0  0  0  0  0  0  0
    6.3130   -1.8263    1.3262 H   0  0  0  0  0  0  0  0  0  0  0  0
    5.7585   -4.1301    0.6490 H   0  0  0  0  0  0  0  0  0  0  0  0
    5.6480   -3.8596    2.3348 H   0  0  0  0  0  0  0  0  0  0  0  0
    1.9245   -3.9867    0.0775 H   0  0  0  0  0  0  0  0  0  0  0  0
    3.3547   -4.4627   -0.7980 H   0  0  0  0  0  0  0  0  0  0  0  0
    3.1565   -2.8274   -0.2970 H   0  0  0  0  0  0  0  0  0  0  0  0
    1.8673   -3.6445    2.4746 H   0  0  0  0  0  0  0  0  0  0  0  0
    4.4574   -3.5000    4.0921 H   0  0  0  0  0  0  0  0  0  0  0  0
    2.8501   -3.2702    4.6874 H   0  0  0  0  0  0  0  0  0  0  0  0
    3.5592   -5.4244    5.1660 H   0  0  0  0  0  0  0  0  0  0  0  0
    2.1781   -5.5013    4.1231 H   0  0  0  0  0  0  0  0  0  0  0  0
    5.0858   -5.9167    3.2580 H   0  0  0  0  0  0  0  0  0  0  0  0
    4.6618   -8.7591    5.3628 H   0  0  0  0  0  0  0  0  0  0  0  0
    3.4407   -7.5566    5.6985 H   0  0  0  0  0  0  0  0  0  0  0  0
    5.0938   -7.1038    5.2755 H   0  0  0  0  0  0  0  0  0  0  0  0
    4.7715   -8.6223    1.7329 H   0  0  0  0  0  0  0  0  0  0  0  0
    5.9160   -8.3792    3.0061 H   0  0  0  0  0  0  0  0  0  0  0  0
    5.3456  -10.7442    2.4696 H   0  0  0  0  0  0  0  0  0  0  0  0
    4.9911  -10.4229    4.1207 H   0  0  0  0  0  0  0  0  0  0  0  0
    3.0615  -10.5631    1.7818 H   0  0  0  0  0  0  0  0  0  0  0  0
    3.4185  -12.4726    2.4647 H   0  0  0  0  0  0  0  0  0  0  0  0
   -0.0144   -9.5013    3.4038 H   0  0  0  0  0  0  0  0  0  0  0  0
    0.5009  -11.1808    3.4138 H   0  0  0  0  0  0  0  0  0  0  0  0
    0.7244  -10.2365    1.9683 H   0  0  0  0  0  0  0  0  0  0  0  0
    1.6527   -9.2251    5.6476 H   0  0  0  0  0  0  0  0  0  0  0  0
    3.1265  -10.1984    5.5139 H   0  0  0  0  0  0  0  0  0  0  0  0
    1.5848  -10.9419    5.3271 H   0  0  0  0  0  0  0  0  0  0  0  0
    1.7389   -7.6582    3.9006 H   0  0  0  0  0  0  0  0  0  0  0  0
    2.5611   -8.4604    1.0857 H   0  0  0  0  0  0  0  0  0  0  0  0
    0.9750   -8.0594    1.6214 H   0  0  0  0  0  0  0  0  0  0  0  0
    1.9159   -6.2381    0.3849 H   0  0  0  0  0  0  0  0  0  0  0  0
    1.4683   -5.7771    1.9933 H   0  0  0  0  0  0  0  0  0  0  0  0
    4.2197   -7.3525    0.1999 H   0  0  0  0  0  0  0  0  0  0  0  0
    5.5849   -6.6082    1.0534 H   0  0  0  0  0  0  0  0  0  0  0  0
    4.7939   -5.8293   -0.2648 H   0  0  0  0  0  0  0  0  0  0  0  0
    2.2738   -1.7043    1.3438 H   0  0  0  0  0  0  0  0  0  0  0  0
  1  2  2  0
  1 32  1  0
  1 33  1  0
  2  3  1  0
  2  4  1  0
  3 34  1  0
  3 35  1  0
  3 36  1  0
  4 31  1  0
  4  5  1  0
  4 37  1  1
  5  6  1  0
  5 38  1  0
  5 39  1  0
  6  7  1  0
  6 40  1  0
  6 41  1  0
  7 31  1  0
  7  8  1  6
  7  9  1  0
  8 42  1  0
  8 43  1  0
  8 44  1  0
  9 10  1  0
  9 45  1  0
  9 46  1  0
 10 11  1  0
 10 47  1  0
 10 48  1  0
 11 29  1  0
 11 12  1  6
 11 13  1  0
 12 49  1  0
 12 50  1  0
 12 51  1  0
 13 14  1  0
 13 31  1  0
 13 52  1  1
 14 15  1  0
 14 53  1  0
 14 54  1  0
 15 16  1  0
 15 55  1  0
 15 56  1  0
 16 29  1  0
 16 17  1  0
 16 57  1  6
 17 26  1  0
 17 18  1  1
 17 19  1  0
 18 58  1  0
 18 59  1  0
 18 60  1  0
 19 20  1  0
 19 61  1  0
 19 62  1  0
 20 21  1  0
 20 63  1  0
 20 64  1  0
 21 22  1  0
 21 23  1  0
 21 65  1  6
 22 66  1  0
 23 24  1  0
 23 25  1  0
 23 26  1  0
 24 67  1  0
 24 68  1  0
 24 69  1  0
 25 70  1  0
 25 71  1  0
 25 72  1  0
 26 27  1  0
 26 73  1  1
 27 28  1  0
 27 74  1  0
 27 75  1  0
 28 29  1  0
 28 76  1  0
 28 77  1  0
 29 30  1  6
 30 78  1  0
 30 79  1  0
 30 80  1  0
 31 81  1  6
M  END
>  <i_m_ct_stereo_status>  (278) 
1

>  <s_m_source_file>  (278) 
/var/tmp/pbs.5076255.sched01/tmpthapbt4w/86pc0xbys0.sdf

>  <i_m_source_file_index>  (278) 
38

>  <i_lp_mmshare_version>  (278) 
48012

>  <i_f3d_flags>  (278) 
0

>  <s_epik_input>  (278) 
W0NIMl09QyhbQ0gzXSlbQ0BIXShbQ0gyXVtDSDJdMSlbQ0BASF0oW0NAQF0xMltDSDNdKVtDQEhdM1tDQEBdKFtDSDNdKShbQ0gyXVtDSDJdMilbQ0BAXTQoW0NIM10pW0NAQEhdKFtDSDJdW0NIMl0zKVtDQEBdNShbQ0gzXSlbQ0BASF0oW0NIMl1bQ0gyXTQpQyhbQ0gzXSkoW0NIM10pW0NASF0oW09IXSlbQ0gyXVtDSDJdNQ==

>  <s_epik_cmdline>  (278) 
J2VwaWtfcHl0aG9uJywgJy1waHQnLCAnMi4wJywgJy1waCcsICc3LjAnLCAnLXRuJywgJzgnLCAnLW1hJywgJzIwMCcsICctaW1hZScsICc8aW5maWxlLm1hZT4nLCAnLW9tYWUnLCAnPG91dGZpbGUubWFlPic=

>  <r_lp_tautomer_probability>  (278) 
1

>  <r_epik_Ionization_Penalty>  (278) 
3.18421e-06

>  <r_epik_Ionization_Penalty_Charging>  (278) 
0

>  <r_epik_Ionization_Penalty_Neutral>  (278) 
3.18421e-06

>  <r_epik_State_Penalty>  (278) 
-0

>  <r_epik_Charging_Adjusted_Penalty>  (278) 
0

>  <i_epik_Tot_Q>  (278) 
0

>  <i_epik_Tot_abs_Q>  (278) 
0

>  <s_lp_Force_Field>  (278) 
OPLS3e

>  <r_lp_Energy>  (278) 
103.055

>  <b_lp_Chiralities_Consistent>  (278) 
1

>  <s_lp_Variant>  (278) 
82:0-1

>  <s_i_glide_gridfile>  (278) 
pfpi4k_grid

>  <i_i_glide_lignum>  (278) 
38

>  <i_i_glide_rotatable_bonds>  (278) 
2

>  <r_i_docking_score>  (278) 
-2.69813

>  <r_i_glide_ligand_efficiency>  (278) 
-0.0870364

>  <r_i_glide_ligand_efficiency_sa>  (278) 
-0.273414

>  <r_i_glide_ligand_efficiency_ln>  (278) 
-0.608511

>  <r_i_glide_gscore>  (278) 
-2.69813

>  <r_i_glide_lipo>  (278) 
-0.530302

>  <r_i_glide_hbond>  (278) 
-0.0516167

>  <r_i_glide_metal>  (278) 
-0

>  <r_i_glide_rewards>  (278) 
-0.499654

>  <r_i_glide_evdw>  (278) 
-30.3578

>  <r_i_glide_ecoul>  (278) 
-1.38445

>  <r_i_glide_erotb>  (278) 
0.109005

>  <r_i_glide_esite>  (278) 
0

>  <r_i_glide_emodel>  (278) 
-35.8508

>  <r_i_glide_energy>  (278) 
-31.7423

>  <r_i_glide_einternal>  (278) 
1.42742

>  <r_i_glide_intrahb_reward>  (278) 
-0

>  <i_i_glide_confnum>  (278) 
3

>  <i_i_glide_posenum>  (278) 
34

>  <r_i_glide_eff_state_penalty>  (278) 
0

>  <ligand_id>  (278) 
82

>  <original_smiles>  (278) 
C=C(C)C1CCC2(C)CCC3(C)C(CCC4C5(C)CCC(O)C(C)(C)C5CCC43C)C12

>  <smiles>  (278) 
[H]OC1([H])C([H])([H])C([H])([H])C2(C([H])([H])[H])C([H])(C([H])([H])C([H])([H])C3(C([H])([H])[H])C2([H])C([H])([H])C([H])([H])C2([H])C4([H])C([H])(C(=C([H])[H])C([H])([H])[H])C([H])([H])C([H])([H])C4(C([H])([H])[H])C([H])([H])C([H])([H])C23C([H])([H])[H])C1(C([H])([H])[H])C([H])([H])[H]

$$$$
82:0:1
     RDKit          3D

 81 85  0  0  1  0  0  0  0  0999 V2000
    1.5834    0.8991    1.2980 C   0  0  0  0  0  0  0  0  0  0  0  0
    1.8085    0.6272    2.5942 C   0  0  0  0  0  0  0  0  0  0  0  0
    1.2432    1.5771    3.6267 C   0  0  0  0  0  0  0  0  0  0  0  0
    2.5785   -0.5995    3.1349 C   0  0  2  0  0  0  0  0  0  0  0  0
    3.8242   -0.2439    3.9780 C   0  0  0  0  0  0  0  0  0  0  0  0
    5.0602   -0.8105    3.2577 C   0  0  0  0  0  0  0  0  0  0  0  0
    4.5849   -1.2653    1.8649 C   0  0  1  0  0  0  0  0  0  0  0  0
    4.7052   -0.0701    0.9055 C   0  0  0  0  0  0  0  0  0  0  0  0
    5.4393   -2.3907    1.2338 C   0  0  0  0  0  0  0  0  0  0  0  0
    5.0425   -3.8375    1.5692 C   0  0  0  0  0  0  0  0  0  0  0  0
    3.5100   -4.1344    1.4775 C   0  0  2  0  0  0  0  0  0  0  0  0
    3.0081   -3.8006    0.0358 C   0  0  0  0  0  0  0  0  0  0  0  0
    2.8220   -3.1327    2.4697 C   0  0  1  0  0  0  0  0  0  0  0  0
    3.1301   -3.5194    3.9317 C   0  0  0  0  0  0  0  0  0  0  0  0
    2.6859   -4.9459    4.2247 C   0  0  0  0  0  0  0  0  0  0  0  0
    3.3883   -6.0345    3.3428 C   0  0  1  0  0  0  0  0  0  0  0  0
    2.9587   -7.5026    3.8151 C   0  0  2  0  0  0  0  0  0  0  0  0
    3.2068   -7.5373    5.3518 C   0  0  0  0  0  0  0  0  0  0  0  0
    3.8269   -8.6604    3.2291 C   0  0  0  0  0  0  0  0  0  0  0  0
    3.3510  -10.0799    3.6010 C   0  0  0  0  0  0  0  0  0  0  0  0
    1.8745  -10.2987    3.2360 C   0  0  1  0  0  0  0  0  0  0  0  0
    1.4666  -11.5798    3.6677 O   0  0  0  0  0  0  0  0  0  0  0  0
    0.9159   -9.2090    3.7956 C   0  0  0  0  0  0  0  0  0  0  0  0
   -0.4795   -9.4156    3.1679 C   0  0  0  0  0  0  0  0  0  0  0  0
    0.7206   -9.3805    5.3273 C   0  0  0  0  0  0  0  0  0  0  0  0
    1.4566   -7.7712    3.4230 C   0  0  2  0  0  0  0  0  0  0  0  0
    1.2473   -7.4373    1.9172 C   0  0  0  0  0  0  0  0  0  0  0  0
    1.7003   -6.0307    1.4931 C   0  0  0  0  0  0  0  0  0  0  0  0
    3.1834   -5.6774    1.8111 C   0  0  1  0  0  0  0  0  0  0  0  0
    4.1082   -6.5473    0.9065 C   0  0  0  0  0  0  0  0  0  0  0  0
    3.0922   -1.6311    2.0933 C   0  0  1  0  0  0  0  0  0  0  0  0
    0.9858    1.7650    1.0331 H   0  0  0  0  0  0  0  0  0  0  0  0
    1.9607    0.3046    0.4897 H   0  0  0  0  0  0  0  0  0  0  0  0
    0.6809    1.0445    4.3883 H   0  0  0  0  0  0  0  0  0  0  0  0
    0.5620    2.2846    3.1462 H   0  0  0  0  0  0  0  0  0  0  0  0
    2.0287    2.1630    4.1005 H   0  0  0  0  0  0  0  0  0  0  0  0
    1.8375   -1.0640    3.7779 H   0  0  0  0  0  0  0  0  0  0  0  0
    3.9159    0.8289    4.1395 H   0  0  0  0  0  0  0  0  0  0  0  0
    3.7617   -0.6932    4.9690 H   0  0  0  0  0  0  0  0  0  0  0  0
    5.8644   -0.0767    3.2027 H   0  0  0  0  0  0  0  0  0  0  0  0
    5.4719   -1.6476    3.8165 H   0  0  0  0  0  0  0  0  0  0  0  0
    4.2411   -0.2861   -0.0572 H   0  0  0  0  0  0  0  0  0  0  0  0
    5.7522    0.1715    0.7160 H   0  0  0  0  0  0  0  0  0  0  0  0
    4.2346    0.8262    1.3025 H   0  0  0  0  0  0  0  0  0  0  0  0
    5.4232   -2.2895    0.1486 H   0  0  0  0  0  0  0  0  0  0  0  0
    6.4831   -2.2469    1.5078 H   0  0  0  0  0  0  0  0  0  0  0  0
    5.6236   -4.4752    0.9063 H   0  0  0  0  0  0  0  0  0  0  0  0
    5.4279   -4.0692    2.5592 H   0  0  0  0  0  0  0  0  0  0  0  0
    1.9233   -3.7398   -0.0042 H   0  0  0  0  0  0  0  0  0  0  0  0
    3.3098   -4.5186   -0.7198 H   0  0  0  0  0  0  0  0  0  0  0  0
    3.3641   -2.8434   -0.3352 H   0  0  0  0  0  0  0  0  0  0  0  0
    1.7423   -3.2448    2.3665 H   0  0  0  0  0  0  0  0  0  0  0  0
    4.1815   -3.4135    4.1918 H   0  0  0  0  0  0  0  0  0  0  0  0
    2.5882   -2.8796    4.6255 H   0  0  0  0  0  0  0  0  0  0  0  0
    2.8886   -5.0837    5.2845 H   0  0  0  0  0  0  0  0  0  0  0  0
    1.6014   -5.0007    4.1226 H   0  0  0  0  0  0  0  0  0  0  0  0
    4.4587   -5.9466    3.5475 H   0  0  0  0  0  0  0  0  0  0  0  0
    3.3949   -8.5271    5.7524 H   0  0  0  0  0  0  0  0  0  0  0  0
    2.3700   -7.1212    5.9132 H   0  0  0  0  0  0  0  0  0  0  0  0
    4.1053   -6.9727    5.6139 H   0  0  0  0  0  0  0  0  0  0  0  0
    3.8047   -8.6678    2.1523 H   0  0  0  0  0  0  0  0  0  0  0  0
    4.8729   -8.5269    3.5044 H   0  0  0  0  0  0  0  0  0  0  0  0
    3.9495  -10.8028    3.0493 H   0  0  0  0  0  0  0  0  0  0  0  0
    3.5302  -10.3131    4.6455 H   0  0  0  0  0  0  0  0  0  0  0  0
    1.8032  -10.2996    2.1493 H   0  0  0  0  0  0  0  0  0  0  0  0
    1.5688  -11.6323    4.6077 H   0  0  0  0  0  0  0  0  0  0  0  0
   -1.1566   -8.5938    3.4135 H   0  0  0  0  0  0  0  0  0  0  0  0
   -0.9342  -10.3259    3.5466 H   0  0  0  0  0  0  0  0  0  0  0  0
   -0.4402   -9.5379    2.0848 H   0  0  0  0  0  0  0  0  0  0  0  0
    0.3371   -8.4709    5.7904 H   0  0  0  0  0  0  0  0  0  0  0  0
    1.6272   -9.6777    5.8451 H   0  0  0  0  0  0  0  0  0  0  0  0
    0.0030  -10.1708    5.5558 H   0  0  0  0  0  0  0  0  0  0  0  0
    0.8281   -7.0709    3.9754 H   0  0  0  0  0  0  0  0  0  0  0  0
    1.7190   -8.1875    1.2888 H   0  0  0  0  0  0  0  0  0  0  0  0
    0.1921   -7.4840    1.6622 H   0  0  0  0  0  0  0  0  0  0  0  0
    1.5177   -5.9419    0.4224 H   0  0  0  0  0  0  0  0  0  0  0  0
    1.0352   -5.3184    1.9749 H   0  0  0  0  0  0  0  0  0  0  0  0
    3.6141   -7.4300    0.5086 H   0  0  0  0  0  0  0  0  0  0  0  0
    5.0106   -6.8504    1.4367 H   0  0  0  0  0  0  0  0  0  0  0  0
    4.4586   -6.0528    0.0079 H   0  0  0  0  0  0  0  0  0  0  0  0
    2.5372   -1.4991    1.1727 H   0  0  0  0  0  0  0  0  0  0  0  0
  1  2  2  0
  1 32  1  0
  1 33  1  0
  2  3  1  0
  2  4  1  0
  3 34  1  0
  3 35  1  0
  3 36  1  0
  4 31  1  0
  4  5  1  0
  4 37  1  1
  5  6  1  0
  5 38  1  0
  5 39  1  0
  6  7  1  0
  6 40  1  0
  6 41  1  0
  7 31  1  0
  7  8  1  6
  7  9  1  0
  8 42  1  0
  8 43  1  0
  8 44  1  0
  9 10  1  0
  9 45  1  0
  9 46  1  0
 10 11  1  0
 10 47  1  0
 10 48  1  0
 11 29  1  0
 11 12  1  6
 11 13  1  0
 12 49  1  0
 12 50  1  0
 12 51  1  0
 13 14  1  0
 13 31  1  0
 13 52  1  1
 14 15  1  0
 14 53  1  0
 14 54  1  0
 15 16  1  0
 15 55  1  0
 15 56  1  0
 16 29  1  0
 16 17  1  0
 16 57  1  1
 17 26  1  0
 17 18  1  1
 17 19  1  0
 18 58  1  0
 18 59  1  0
 18 60  1  0
 19 20  1  0
 19 61  1  0
 19 62  1  0
 20 21  1  0
 20 63  1  0
 20 64  1  0
 21 22  1  0
 21 23  1  0
 21 65  1  6
 22 66  1  0
 23 24  1  0
 23 25  1  0
 23 26  1  0
 24 67  1  0
 24 68  1  0
 24 69  1  0
 25 70  1  0
 25 71  1  0
 25 72  1  0
 26 27  1  0
 26 73  1  1
 27 28  1  0
 27 74  1  0
 27 75  1  0
 28 29  1  0
 28 76  1  0
 28 77  1  0
 29 30  1  6
 30 78  1  0
 30 79  1  0
 30 80  1  0
 31 81  1  6
M  END
>  <i_m_ct_stereo_status>  (279) 
1

>  <s_m_source_file>  (279) 
/var/tmp/pbs.5076255.sched01/tmpthapbt4w/86pc0xbys0.sdf

>  <i_m_source_file_index>  (279) 
38

>  <i_lp_mmshare_version>  (279) 
48012

>  <i_f3d_flags>  (279) 
0

>  <s_epik_input>  (279) 
W0NIMl09QyhbQ0gzXSlbQ0BIXShbQ0gyXVtDSDJdMSlbQ0BASF0oW0NAQF0xMltDSDNdKVtDQEhdM1tDQEBdKFtDSDNdKShbQ0gyXVtDSDJdMilbQ0BAXTQoW0NIM10pW0NAQEhdKFtDSDJdW0NIMl0zKVtDQEBdNShbQ0gzXSlbQ0BASF0oW0NIMl1bQ0gyXTQpQyhbQ0gzXSkoW0NIM10pW0NASF0oW09IXSlbQ0gyXVtDSDJdNQ==

>  <s_epik_cmdline>  (279) 
J2VwaWtfcHl0aG9uJywgJy1waHQnLCAnMi4wJywgJy1waCcsICc3LjAnLCAnLXRuJywgJzgnLCAnLW1hJywgJzIwMCcsICctaW1hZScsICc8aW5maWxlLm1hZT4nLCAnLW9tYWUnLCAnPG91dGZpbGUubWFlPic=

>  <r_lp_tautomer_probability>  (279) 
1

>  <r_epik_Ionization_Penalty>  (279) 
3.18421e-06

>  <r_epik_Ionization_Penalty_Charging>  (279) 
0

>  <r_epik_Ionization_Penalty_Neutral>  (279) 
3.18421e-06

>  <r_epik_State_Penalty>  (279) 
-0

>  <r_epik_Charging_Adjusted_Penalty>  (279) 
0

>  <i_epik_Tot_Q>  (279) 
0

>  <i_epik_Tot_abs_Q>  (279) 
0

>  <s_lp_Force_Field>  (279) 
OPLS3e

>  <r_lp_Energy>  (279) 
103.055

>  <b_lp_Chiralities_Consistent>  (279) 
1

>  <s_lp_Variant>  (279) 
82:0-1

>  <s_i_glide_gridfile>  (279) 
pfpi4k_grid

>  <i_i_glide_lignum>  (279) 
38

>  <i_i_glide_rotatable_bonds>  (279) 
2

>  <r_i_docking_score>  (279) 
-2.5339

>  <r_i_glide_ligand_efficiency>  (279) 
-0.0817387

>  <r_i_glide_ligand_efficiency_sa>  (279) 
-0.256772

>  <r_i_glide_ligand_efficiency_ln>  (279) 
-0.571472

>  <r_i_glide_gscore>  (279) 
-2.5339

>  <r_i_glide_lipo>  (279) 
-0.574799

>  <r_i_glide_hbond>  (279) 
0

>  <r_i_glide_metal>  (279) 
-0

>  <r_i_glide_rewards>  (279) 
-0.499654

>  <r_i_glide_evdw>  (279) 
-30.2229

>  <r_i_glide_ecoul>  (279) 
-0.382065

>  <r_i_glide_erotb>  (279) 
0.109005

>  <r_i_glide_esite>  (279) 
0

>  <r_i_glide_emodel>  (279) 
-34.9999

>  <r_i_glide_energy>  (279) 
-30.6049

>  <r_i_glide_einternal>  (279) 
0.918797

>  <r_i_glide_intrahb_reward>  (279) 
-0

>  <i_i_glide_confnum>  (279) 
3

>  <i_i_glide_posenum>  (279) 
1

>  <r_i_glide_eff_state_penalty>  (279) 
0

>  <ligand_id>  (279) 
82

>  <original_smiles>  (279) 
C=C(C)C1CCC2(C)CCC3(C)C(CCC4C5(C)CCC(O)C(C)(C)C5CCC43C)C12

>  <smiles>  (279) 
[H]OC1([H])C([H])([H])C([H])([H])C2(C([H])([H])[H])C([H])(C([H])([H])C([H])([H])C3(C([H])([H])[H])C2([H])C([H])([H])C([H])([H])C2([H])C4([H])C([H])(C(=C([H])[H])C([H])([H])[H])C([H])([H])C([H])([H])C4(C([H])([H])[H])C([H])([H])C([H])([H])C23C([H])([H])[H])C1(C([H])([H])[H])C([H])([H])[H]

$$$$
83:0:0
     RDKit          3D

 53 57  0  0  1  0  0  0  0  0999 V2000
    1.9098   -4.8973    2.5596 C   0  0  0  0  0  0  0  0  0  0  0  0
    2.6861   -5.6631    1.4644 C   0  0  0  0  0  0  0  0  0  0  0  0
    2.5147   -7.1603    1.8332 C   0  0  0  0  0  0  0  0  0  0  0  0
    1.9808   -5.4801    0.1083 C   0  0  0  0  0  0  0  0  0  0  0  0
    2.0387   -4.1243   -0.6535 C   0  0  0  0  0  0  0  0  0  0  0  0
    3.4236   -3.7323   -1.1242 C   0  0  1  0  0  0  0  0  0  0  0  0
    3.5302   -2.8396   -2.3926 C   0  0  2  0  0  0  0  0  0  0  0  0
    2.3664   -2.8553   -3.4070 C   0  0  0  0  0  0  0  0  0  0  0  0
    4.8731   -3.2260   -3.0382 C   0  0  0  0  0  0  0  0  0  0  0  0
    5.8833   -2.7533   -1.9834 C   0  0  0  0  0  0  0  0  0  0  0  0
    4.9969   -2.0110   -0.9478 C   0  0  1  0  0  0  0  0  0  0  0  0
    5.7280   -0.8955   -0.2184 C   0  0  0  0  0  0  0  0  0  0  0  0
    3.8261   -1.4796   -1.7876 C   0  0  1  0  0  0  0  0  0  0  0  0
    4.1921   -0.5134   -2.7533 O   0  0  0  0  0  0  0  0  0  0  0  0
    4.2758   -3.0522   -0.0771 C   0  0  1  0  0  0  0  0  0  0  0  0
    3.9297   -2.6371    1.3600 C   0  0  0  0  0  0  0  0  0  0  0  0
    4.6743   -3.9038    1.1079 C   0  0  2  0  0  0  0  0  0  0  0  0
    6.1542   -4.0679    1.1814 C   0  0  0  0  0  0  0  0  0  0  0  0
    6.9719   -3.2200    1.4299 O   0  0  0  0  0  0  0  0  0  0  0  0
    6.5541   -5.4675    0.8341 C   0  0  0  0  0  0  0  0  0  0  0  0
    5.2319   -6.2230    0.7208 C   0  0  1  0  0  0  0  0  0  0  0  0
    5.4302   -7.4775    1.3213 O   0  0  0  0  0  0  0  0  0  0  0  0
    4.2122   -5.3235    1.4803 C   0  0  2  0  0  0  0  0  0  0  0  0
    1.0866   -5.4884    2.9622 H   0  0  0  0  0  0  0  0  0  0  0  0
    1.4567   -3.9927    2.1782 H   0  0  0  0  0  0  0  0  0  0  0  0
    2.5521   -4.6239    3.3997 H   0  0  0  0  0  0  0  0  0  0  0  0
    2.9089   -7.8241    1.0643 H   0  0  0  0  0  0  0  0  0  0  0  0
    1.4666   -7.4381    1.9509 H   0  0  0  0  0  0  0  0  0  0  0  0
    3.0214   -7.3927    2.7736 H   0  0  0  0  0  0  0  0  0  0  0  0
    2.3806   -6.2456   -0.5529 H   0  0  0  0  0  0  0  0  0  0  0  0
    0.9427   -5.7782    0.2180 H   0  0  0  0  0  0  0  0  0  0  0  0
    1.3777   -4.2482   -1.5132 H   0  0  0  0  0  0  0  0  0  0  0  0
    1.6546   -3.2623   -0.1025 H   0  0  0  0  0  0  0  0  0  0  0  0
    3.9461   -4.6514   -1.3550 H   0  0  0  0  0  0  0  0  0  0  0  0
    2.5747   -2.2329   -4.2775 H   0  0  0  0  0  0  0  0  0  0  0  0
    1.4499   -2.4866   -2.9506 H   0  0  0  0  0  0  0  0  0  0  0  0
    2.1858   -3.8649   -3.7633 H   0  0  0  0  0  0  0  0  0  0  0  0
    4.9506   -4.2920   -3.2513 H   0  0  0  0  0  0  0  0  0  0  0  0
    5.0120   -2.6985   -3.9780 H   0  0  0  0  0  0  0  0  0  0  0  0
    6.4484   -3.5845   -1.5557 H   0  0  0  0  0  0  0  0  0  0  0  0
    6.6133   -2.0839   -2.4157 H   0  0  0  0  0  0  0  0  0  0  0  0
    5.0811   -0.3037    0.4328 H   0  0  0  0  0  0  0  0  0  0  0  0
    6.1159   -0.2298   -0.9804 H   0  0  0  0  0  0  0  0  0  0  0  0
    6.6163   -1.2069    0.3299 H   0  0  0  0  0  0  0  0  0  0  0  0
    3.0172   -1.0928   -1.1664 H   0  0  0  0  0  0  0  0  0  0  0  0
    3.3955   -0.1065   -3.0595 H   0  0  0  0  0  0  0  0  0  0  0  0
    4.5072   -1.8483    1.8386 H   0  0  0  0  0  0  0  0  0  0  0  0
    2.8852   -2.6085    1.6052 H   0  0  0  0  0  0  0  0  0  0  0  0
    7.1046   -5.4479   -0.1098 H   0  0  0  0  0  0  0  0  0  0  0  0
    7.2223   -5.8797    1.6117 H   0  0  0  0  0  0  0  0  0  0  0  0
    4.9621   -6.3449   -0.3385 H   0  0  0  0  0  0  0  0  0  0  0  0
    4.6298   -7.9778    1.2566 H   0  0  0  0  0  0  0  0  0  0  0  0
    4.4821   -5.4266    2.5381 H   0  0  0  0  0  0  0  0  0  0  0  0
  1  2  1  0
  1 24  1  0
  1 25  1  0
  1 26  1  0
  2 23  1  0
  2  3  1  0
  2  4  1  0
  3 27  1  0
  3 28  1  0
  3 29  1  0
  4  5  1  0
  4 30  1  0
  4 31  1  0
  5  6  1  0
  5 32  1  0
  5 33  1  0
  6 15  1  0
  6  7  1  0
  6 34  1  6
  7 13  1  0
  7  8  1  6
  7  9  1  0
  8 35  1  0
  8 36  1  0
  8 37  1  0
  9 10  1  0
  9 38  1  0
  9 39  1  0
 10 11  1  0
 10 40  1  0
 10 41  1  0
 11 12  1  1
 11 13  1  0
 11 15  1  0
 12 42  1  0
 12 43  1  0
 12 44  1  0
 13 14  1  0
 13 45  1  1
 14 46  1  0
 15 17  1  0
 15 16  1  1
 17 16  1  1
 16 47  1  0
 16 48  1  0
 17 23  1  0
 17 18  1  0
 18 19  2  0
 18 20  1  0
 20 21  1  0
 20 49  1  0
 20 50  1  0
 21 22  1  0
 21 23  1  0
 21 51  1  6
 22 52  1  0
 23 53  1  1
M  END
>  <i_m_ct_stereo_status>  (280) 
1

>  <s_m_source_file>  (280) 
/var/tmp/pbs.5076255.sched01/tmpthapbt4w/86pc0xbys0.sdf

>  <i_m_source_file_index>  (280) 
39

>  <i_lp_mmshare_version>  (280) 
48012

>  <i_f3d_flags>  (280) 
0

>  <s_epik_input>  (280) 
Tz1DMVtDSDJdW0NAQEhdKFtPSF0pW0NAQEhdKFtDQEBdMShDMjM0KVtDSDJdNClDKFtDSDNdKShbQ0gzXSlbQ0gyXVtDSDJdW0NASF0yW0NAXTUoW0NIM10pW0NIMl1bQ0gyXVtDQEBdMyhbQ0gzXSlbQ0BIXTVbT0hd

>  <s_epik_cmdline>  (280) 
J2VwaWtfcHl0aG9uJywgJy1waHQnLCAnMi4wJywgJy1waCcsICc3LjAnLCAnLXRuJywgJzgnLCAnLW1hJywgJzIwMCcsICctaW1hZScsICc8aW5maWxlLm1hZT4nLCAnLW9tYWUnLCAnPG91dGZpbGUubWFlPic=

>  <r_lp_tautomer_probability>  (280) 
1

>  <r_epik_Ionization_Penalty>  (280) 
2.47895e-06

>  <r_epik_Ionization_Penalty_Charging>  (280) 
0

>  <r_epik_Ionization_Penalty_Neutral>  (280) 
2.47895e-06

>  <r_epik_State_Penalty>  (280) 
-0

>  <r_epik_Charging_Adjusted_Penalty>  (280) 
0

>  <i_epik_Tot_Q>  (280) 
0

>  <i_epik_Tot_abs_Q>  (280) 
0

>  <s_lp_Force_Field>  (280) 
OPLS3e

>  <r_lp_Energy>  (280) 
66.7567

>  <b_lp_Chiralities_Consistent>  (280) 
1

>  <s_lp_Variant>  (280) 
83:0-1

>  <s_i_glide_gridfile>  (280) 
pfpi4k_grid

>  <i_i_glide_lignum>  (280) 
39

>  <i_i_glide_rotatable_bonds>  (280) 
2

>  <r_i_docking_score>  (280) 
-3.39822

>  <r_i_glide_ligand_efficiency>  (280) 
-0.147749

>  <r_i_glide_ligand_efficiency_sa>  (280) 
-0.420178

>  <r_i_glide_ligand_efficiency_ln>  (280) 
-0.821721

>  <r_i_glide_gscore>  (280) 
-3.39822

>  <r_i_glide_lipo>  (280) 
-0.701255

>  <r_i_glide_hbond>  (280) 
0

>  <r_i_glide_metal>  (280) 
-0

>  <r_i_glide_rewards>  (280) 
-1.3557

>  <r_i_glide_evdw>  (280) 
-20.2417

>  <r_i_glide_ecoul>  (280) 
-2.19454

>  <r_i_glide_erotb>  (280) 
0

>  <r_i_glide_esite>  (280) 
0

>  <r_i_glide_emodel>  (280) 
-23.7729

>  <r_i_glide_energy>  (280) 
-22.4362

>  <r_i_glide_einternal>  (280) 
0.842145

>  <r_i_glide_intrahb_reward>  (280) 
-0

>  <i_i_glide_confnum>  (280) 
1

>  <i_i_glide_posenum>  (280) 
10

>  <r_i_glide_eff_state_penalty>  (280) 
0

>  <ligand_id>  (280) 
83

>  <original_smiles>  (280) 
CC1(C)CCC2C3(C)CCC(C)(C3O)C23CC32C(=O)CC(O)C12

>  <smiles>  (280) 
[H]OC1([H])C([H])([H])C(=O)C23C([H])([H])C24C([H])(C([H])([H])C([H])([H])C(C([H])([H])[H])(C([H])([H])[H])C13[H])C1(C([H])([H])[H])C([H])([H])C([H])([H])C4(C([H])([H])[H])C1([H])O[H]

$$$$
83:0:1
     RDKit          3D

 53 57  0  0  1  0  0  0  0  0999 V2000
    1.9235   -4.8659    2.5688 C   0  0  0  0  0  0  0  0  0  0  0  0
    2.7062   -5.6398    1.4809 C   0  0  0  0  0  0  0  0  0  0  0  0
    2.5486   -7.1319    1.8701 C   0  0  0  0  0  0  0  0  0  0  0  0
    2.0132   -5.4721    0.1111 C   0  0  0  0  0  0  0  0  0  0  0  0
    2.0637   -4.1201   -0.6496 C   0  0  0  0  0  0  0  0  0  0  0  0
    3.4380   -3.7337   -1.1304 C   0  0  1  0  0  0  0  0  0  0  0  0
    3.5388   -2.8467   -2.3998 C   0  0  2  0  0  0  0  0  0  0  0  0
    2.3779   -2.8790   -3.4088 C   0  0  0  0  0  0  0  0  0  0  0  0
    4.8819   -3.2335   -3.0394 C   0  0  0  0  0  0  0  0  0  0  0  0
    5.8886   -2.7525   -1.9882 C   0  0  0  0  0  0  0  0  0  0  0  0
    5.0017   -2.0063   -0.9585 C   0  0  1  0  0  0  0  0  0  0  0  0
    5.7284   -0.8787   -0.2376 C   0  0  0  0  0  0  0  0  0  0  0  0
    3.8316   -1.4816   -1.7969 C   0  0  1  0  0  0  0  0  0  0  0  0
    4.2094   -0.5080   -2.7562 O   0  0  0  0  0  0  0  0  0  0  0  0
    4.2809   -3.0379   -0.0723 C   0  0  1  0  0  0  0  0  0  0  0  0
    3.9414   -2.6078    1.3456 C   0  0  0  0  0  0  0  0  0  0  0  0
    4.6891   -3.8793    1.1171 C   0  0  2  0  0  0  0  0  0  0  0  0
    6.1737   -4.0418    1.1819 C   0  0  0  0  0  0  0  0  0  0  0  0
    6.9771   -3.1774    1.3872 O   0  0  0  0  0  0  0  0  0  0  0  0
    6.5790   -5.4439    0.8481 C   0  0  0  0  0  0  0  0  0  0  0  0
    5.2584   -6.2046    0.7497 C   0  0  1  0  0  0  0  0  0  0  0  0
    5.4712   -7.4420    1.3900 O   0  0  0  0  0  0  0  0  0  0  0  0
    4.2364   -5.2938    1.4995 C   0  0  2  0  0  0  0  0  0  0  0  0
    1.1171   -5.4660    2.9856 H   0  0  0  0  0  0  0  0  0  0  0  0
    1.4364   -3.9726    2.1834 H   0  0  0  0  0  0  0  0  0  0  0  0
    2.5670   -4.5726    3.4011 H   0  0  0  0  0  0  0  0  0  0  0  0
    2.9660   -7.7948    1.1152 H   0  0  0  0  0  0  0  0  0  0  0  0
    1.5060   -7.4162    1.9842 H   0  0  0  0  0  0  0  0  0  0  0  0
    3.0566   -7.3443    2.8085 H   0  0  0  0  0  0  0  0  0  0  0  0
    2.4149   -6.2474   -0.5246 H   0  0  0  0  0  0  0  0  0  0  0  0
    0.9757   -5.7718    0.2301 H   0  0  0  0  0  0  0  0  0  0  0  0
    1.4018   -4.2508   -1.5015 H   0  0  0  0  0  0  0  0  0  0  0  0
    1.6859   -3.2586   -0.1020 H   0  0  0  0  0  0  0  0  0  0  0  0
    3.9693   -4.6506   -1.3426 H   0  0  0  0  0  0  0  0  0  0  0  0
    2.5802   -2.2621   -4.2847 H   0  0  0  0  0  0  0  0  0  0  0  0
    1.4570   -2.5132   -2.9564 H   0  0  0  0  0  0  0  0  0  0  0  0
    2.2039   -3.8940   -3.7573 H   0  0  0  0  0  0  0  0  0  0  0  0
    4.9609   -4.3022   -3.2439 H   0  0  0  0  0  0  0  0  0  0  0  0
    5.0125   -2.7128   -3.9843 H   0  0  0  0  0  0  0  0  0  0  0  0
    6.4539   -3.5741   -1.5549 H   0  0  0  0  0  0  0  0  0  0  0  0
    6.6188   -2.0896   -2.4269 H   0  0  0  0  0  0  0  0  0  0  0  0
    5.0780   -0.2855    0.4081 H   0  0  0  0  0  0  0  0  0  0  0  0
    6.1162   -0.2280   -1.0072 H   0  0  0  0  0  0  0  0  0  0  0  0
    6.6177   -1.1784    0.3036 H   0  0  0  0  0  0  0  0  0  0  0  0
    3.0153   -1.0978   -1.1759 H   0  0  0  0  0  0  0  0  0  0  0  0
    3.5414    0.1673   -2.7635 H   0  0  0  0  0  0  0  0  0  0  0  0
    4.5181   -1.8190    1.8251 H   0  0  0  0  0  0  0  0  0  0  0  0
    2.8911   -2.5889    1.5998 H   0  0  0  0  0  0  0  0  0  0  0  0
    7.1267   -5.4052   -0.0873 H   0  0  0  0  0  0  0  0  0  0  0  0
    7.2468   -5.8141    1.6296 H   0  0  0  0  0  0  0  0  0  0  0  0
    4.9957   -6.3432   -0.3078 H   0  0  0  0  0  0  0  0  0  0  0  0
    6.1350   -7.9141    0.9025 H   0  0  0  0  0  0  0  0  0  0  0  0
    4.5051   -5.3899    2.5508 H   0  0  0  0  0  0  0  0  0  0  0  0
  1  2  1  0
  1 24  1  0
  1 25  1  0
  1 26  1  0
  2 23  1  0
  2  3  1  0
  2  4  1  0
  3 27  1  0
  3 28  1  0
  3 29  1  0
  4  5  1  0
  4 30  1  0
  4 31  1  0
  5  6  1  0
  5 32  1  0
  5 33  1  0
  6 15  1  0
  6  7  1  0
  6 34  1  6
  7 13  1  0
  7  8  1  6
  7  9  1  0
  8 35  1  0
  8 36  1  0
  8 37  1  0
  9 10  1  0
  9 38  1  0
  9 39  1  0
 10 11  1  0
 10 40  1  0
 10 41  1  0
 11 12  1  1
 11 13  1  0
 11 15  1  0
 12 42  1  0
 12 43  1  0
 12 44  1  0
 13 14  1  0
 13 45  1  1
 14 46  1  0
 15 17  1  0
 15 16  1  1
 17 16  1  1
 16 47  1  0
 16 48  1  0
 17 23  1  0
 17 18  1  0
 18 19  2  0
 18 20  1  0
 20 21  1  0
 20 49  1  0
 20 50  1  0
 21 22  1  0
 21 23  1  0
 21 51  1  6
 22 52  1  0
 23 53  1  1
M  END
>  <i_m_ct_stereo_status>  (281) 
1

>  <s_m_source_file>  (281) 
/var/tmp/pbs.5076255.sched01/tmpthapbt4w/86pc0xbys0.sdf

>  <i_m_source_file_index>  (281) 
39

>  <i_lp_mmshare_version>  (281) 
48012

>  <i_f3d_flags>  (281) 
0

>  <s_epik_input>  (281) 
Tz1DMVtDSDJdW0NAQEhdKFtPSF0pW0NAQEhdKFtDQEBdMShDMjM0KVtDSDJdNClDKFtDSDNdKShbQ0gzXSlbQ0gyXVtDSDJdW0NASF0yW0NAXTUoW0NIM10pW0NIMl1bQ0gyXVtDQEBdMyhbQ0gzXSlbQ0BIXTVbT0hd

>  <s_epik_cmdline>  (281) 
J2VwaWtfcHl0aG9uJywgJy1waHQnLCAnMi4wJywgJy1waCcsICc3LjAnLCAnLXRuJywgJzgnLCAnLW1hJywgJzIwMCcsICctaW1hZScsICc8aW5maWxlLm1hZT4nLCAnLW9tYWUnLCAnPG91dGZpbGUubWFlPic=

>  <r_lp_tautomer_probability>  (281) 
1

>  <r_epik_Ionization_Penalty>  (281) 
2.47895e-06

>  <r_epik_Ionization_Penalty_Charging>  (281) 
0

>  <r_epik_Ionization_Penalty_Neutral>  (281) 
2.47895e-06

>  <r_epik_State_Penalty>  (281) 
-0

>  <r_epik_Charging_Adjusted_Penalty>  (281) 
0

>  <i_epik_Tot_Q>  (281) 
0

>  <i_epik_Tot_abs_Q>  (281) 
0

>  <s_lp_Force_Field>  (281) 
OPLS3e

>  <r_lp_Energy>  (281) 
66.7567

>  <b_lp_Chiralities_Consistent>  (281) 
1

>  <s_lp_Variant>  (281) 
83:0-1

>  <s_i_glide_gridfile>  (281) 
pfpi4k_grid

>  <i_i_glide_lignum>  (281) 
39

>  <i_i_glide_rotatable_bonds>  (281) 
2

>  <r_i_docking_score>  (281) 
-3.33133

>  <r_i_glide_ligand_efficiency>  (281) 
-0.144841

>  <r_i_glide_ligand_efficiency_sa>  (281) 
-0.411907

>  <r_i_glide_ligand_efficiency_ln>  (281) 
-0.805546

>  <r_i_glide_gscore>  (281) 
-3.33133

>  <r_i_glide_lipo>  (281) 
-0.699528

>  <r_i_glide_hbond>  (281) 
0

>  <r_i_glide_metal>  (281) 
-0

>  <r_i_glide_rewards>  (281) 
-1.35615

>  <r_i_glide_evdw>  (281) 
-20.9824

>  <r_i_glide_ecoul>  (281) 
-1.51021

>  <r_i_glide_erotb>  (281) 
0

>  <r_i_glide_esite>  (281) 
0

>  <r_i_glide_emodel>  (281) 
-23.2328

>  <r_i_glide_energy>  (281) 
-22.4926

>  <r_i_glide_einternal>  (281) 
1.7867

>  <r_i_glide_intrahb_reward>  (281) 
-0

>  <i_i_glide_confnum>  (281) 
1

>  <i_i_glide_posenum>  (281) 
1

>  <r_i_glide_eff_state_penalty>  (281) 
0

>  <ligand_id>  (281) 
83

>  <original_smiles>  (281) 
CC1(C)CCC2C3(C)CCC(C)(C3O)C23CC32C(=O)CC(O)C12

>  <smiles>  (281) 
[H]OC1([H])C([H])([H])C(=O)C23C([H])([H])C24C([H])(C([H])([H])C([H])([H])C(C([H])([H])[H])(C([H])([H])[H])C13[H])C1(C([H])([H])[H])C([H])([H])C([H])([H])C4(C([H])([H])[H])C1([H])O[H]

$$$$
83:0:2
     RDKit          3D

 53 57  0  0  1  0  0  0  0  0999 V2000
    1.8914   -4.8568    2.5462 C   0  0  0  0  0  0  0  0  0  0  0  0
    2.6749   -5.6326    1.4622 C   0  0  0  0  0  0  0  0  0  0  0  0
    2.4950   -7.1244    1.8472 C   0  0  0  0  0  0  0  0  0  0  0  0
    1.9702   -5.4642    0.0769 C   0  0  0  0  0  0  0  0  0  0  0  0
    2.0242   -4.1111   -0.6747 C   0  0  0  0  0  0  0  0  0  0  0  0
    3.4100   -3.7202   -1.1417 C   0  0  1  0  0  0  0  0  0  0  0  0
    3.5334   -2.8423   -2.4163 C   0  0  2  0  0  0  0  0  0  0  0  0
    2.3711   -2.8678   -3.4288 C   0  0  0  0  0  0  0  0  0  0  0  0
    4.8750   -3.2418   -3.0524 C   0  0  0  0  0  0  0  0  0  0  0  0
    5.8804   -2.7561   -2.0031 C   0  0  0  0  0  0  0  0  0  0  0  0
    5.0077   -2.0030   -0.9679 C   0  0  1  0  0  0  0  0  0  0  0  0
    5.7475   -0.8891   -0.2472 C   0  0  0  0  0  0  0  0  0  0  0  0
    3.8324   -1.4794   -1.8250 C   0  0  1  0  0  0  0  0  0  0  0  0
    4.2202   -0.5130   -2.7747 O   0  0  0  0  0  0  0  0  0  0  0  0
    4.2695   -3.0373   -0.0991 C   0  0  1  0  0  0  0  0  0  0  0  0
    3.9224   -2.5992    1.3302 C   0  0  0  0  0  0  0  0  0  0  0  0
    4.6668   -3.8723    1.1082 C   0  0  2  0  0  0  0  0  0  0  0  0
    6.1296   -4.0619    1.2191 C   0  0  0  0  0  0  0  0  0  0  0  0
    6.9263   -3.2174    1.6181 O   0  0  0  0  0  0  0  0  0  0  0  0
    6.5531   -5.4383    0.8415 C   0  0  0  0  0  0  0  0  0  0  0  0
    5.2277   -6.1925    0.7375 C   0  0  1  0  0  0  0  0  0  0  0  0
    5.4180   -7.4483    1.3454 O   0  0  0  0  0  0  0  0  0  0  0  0
    4.1995   -5.2861    1.4810 C   0  0  2  0  0  0  0  0  0  0  0  0
    1.0667   -5.4369    2.9597 H   0  0  0  0  0  0  0  0  0  0  0  0
    1.4293   -3.9555    2.1587 H   0  0  0  0  0  0  0  0  0  0  0  0
    2.5273   -4.5719    3.3871 H   0  0  0  0  0  0  0  0  0  0  0  0
    2.8881   -7.8002    1.0900 H   0  0  0  0  0  0  0  0  0  0  0  0
    1.4485   -7.4026    1.9681 H   0  0  0  0  0  0  0  0  0  0  0  0
    2.9972   -7.3476    2.7911 H   0  0  0  0  0  0  0  0  0  0  0  0
    2.3639   -6.2364   -0.5599 H   0  0  0  0  0  0  0  0  0  0  0  0
    0.9309   -5.7678    0.2026 H   0  0  0  0  0  0  0  0  0  0  0  0
    1.3563   -4.2420   -1.5294 H   0  0  0  0  0  0  0  0  0  0  0  0
    1.6249   -3.2638   -0.1238 H   0  0  0  0  0  0  0  0  0  0  0  0
    3.9069   -4.6583   -1.3567 H   0  0  0  0  0  0  0  0  0  0  0  0
    2.5817   -2.2541   -4.3039 H   0  0  0  0  0  0  0  0  0  0  0  0
    1.4538   -2.4897   -2.9786 H   0  0  0  0  0  0  0  0  0  0  0  0
    2.1845   -3.8812   -3.7781 H   0  0  0  0  0  0  0  0  0  0  0  0
    4.9532   -4.3095   -3.2522 H   0  0  0  0  0  0  0  0  0  0  0  0
    5.0101   -2.7241   -3.9980 H   0  0  0  0  0  0  0  0  0  0  0  0
    6.4502   -3.5758   -1.5672 H   0  0  0  0  0  0  0  0  0  0  0  0
    6.6112   -2.1012   -2.4542 H   0  0  0  0  0  0  0  0  0  0  0  0
    5.1017   -0.2576    0.3642 H   0  0  0  0  0  0  0  0  0  0  0  0
    6.1561   -0.2439   -1.0015 H   0  0  0  0  0  0  0  0  0  0  0  0
    6.6078   -1.2127    0.3410 H   0  0  0  0  0  0  0  0  0  0  0  0
    3.0175   -1.0915   -1.2122 H   0  0  0  0  0  0  0  0  0  0  0  0
    4.1477    0.3470   -2.3687 H   0  0  0  0  0  0  0  0  0  0  0  0
    4.4932   -1.8019    1.8061 H   0  0  0  0  0  0  0  0  0  0  0  0
    2.8781   -2.5897    1.5824 H   0  0  0  0  0  0  0  0  0  0  0  0
    7.1024   -5.4391   -0.1000 H   0  0  0  0  0  0  0  0  0  0  0  0
    7.2158   -5.8445    1.6181 H   0  0  0  0  0  0  0  0  0  0  0  0
    4.9495   -6.3246   -0.3160 H   0  0  0  0  0  0  0  0  0  0  0  0
    4.5994   -7.9466    1.2795 H   0  0  0  0  0  0  0  0  0  0  0  0
    4.4679   -5.3783    2.5380 H   0  0  0  0  0  0  0  0  0  0  0  0
  1  2  1  0
  1 24  1  0
  1 25  1  0
  1 26  1  0
  2 23  1  0
  2  3  1  0
  2  4  1  0
  3 27  1  0
  3 28  1  0
  3 29  1  0
  4  5  1  0
  4 30  1  0
  4 31  1  0
  5  6  1  0
  5 32  1  0
  5 33  1  0
  6 15  1  0
  6  7  1  0
  6 34  1  6
  7 13  1  0
  7  8  1  6
  7  9  1  0
  8 35  1  0
  8 36  1  0
  8 37  1  0
  9 10  1  0
  9 38  1  0
  9 39  1  0
 10 11  1  0
 10 40  1  0
 10 41  1  0
 11 12  1  1
 11 13  1  0
 11 15  1  0
 12 42  1  0
 12 43  1  0
 12 44  1  0
 13 14  1  0
 13 45  1  1
 14 46  1  0
 15 17  1  0
 15 16  1  1
 17 16  1  1
 16 47  1  0
 16 48  1  0
 17 23  1  0
 17 18  1  0
 18 19  2  0
 18 20  1  0
 20 21  1  0
 20 49  1  0
 20 50  1  0
 21 22  1  0
 21 23  1  0
 21 51  1  6
 22 52  1  0
 23 53  1  1
M  END
>  <i_m_ct_stereo_status>  (282) 
1

>  <s_m_source_file>  (282) 
/var/tmp/pbs.5076255.sched01/tmpthapbt4w/86pc0xbys0.sdf

>  <i_m_source_file_index>  (282) 
39

>  <i_lp_mmshare_version>  (282) 
48012

>  <i_f3d_flags>  (282) 
0

>  <s_epik_input>  (282) 
Tz1DMVtDSDJdW0NAQEhdKFtPSF0pW0NAQEhdKFtDQEBdMShDMjM0KVtDSDJdNClDKFtDSDNdKShbQ0gzXSlbQ0gyXVtDSDJdW0NASF0yW0NAXTUoW0NIM10pW0NIMl1bQ0gyXVtDQEBdMyhbQ0gzXSlbQ0BIXTVbT0hd

>  <s_epik_cmdline>  (282) 
J2VwaWtfcHl0aG9uJywgJy1waHQnLCAnMi4wJywgJy1waCcsICc3LjAnLCAnLXRuJywgJzgnLCAnLW1hJywgJzIwMCcsICctaW1hZScsICc8aW5maWxlLm1hZT4nLCAnLW9tYWUnLCAnPG91dGZpbGUubWFlPic=

>  <r_lp_tautomer_probability>  (282) 
1

>  <r_epik_Ionization_Penalty>  (282) 
2.47895e-06

>  <r_epik_Ionization_Penalty_Charging>  (282) 
0

>  <r_epik_Ionization_Penalty_Neutral>  (282) 
2.47895e-06

>  <r_epik_State_Penalty>  (282) 
-0

>  <r_epik_Charging_Adjusted_Penalty>  (282) 
0

>  <i_epik_Tot_Q>  (282) 
0

>  <i_epik_Tot_abs_Q>  (282) 
0

>  <s_lp_Force_Field>  (282) 
OPLS3e

>  <r_lp_Energy>  (282) 
66.7567

>  <b_lp_Chiralities_Consistent>  (282) 
1

>  <s_lp_Variant>  (282) 
83:0-1

>  <s_i_glide_gridfile>  (282) 
pfpi4k_grid

>  <i_i_glide_lignum>  (282) 
39

>  <i_i_glide_rotatable_bonds>  (282) 
2

>  <r_i_docking_score>  (282) 
-3.30864

>  <r_i_glide_ligand_efficiency>  (282) 
-0.143854

>  <r_i_glide_ligand_efficiency_sa>  (282) 
-0.409102

>  <r_i_glide_ligand_efficiency_ln>  (282) 
-0.80006

>  <r_i_glide_gscore>  (282) 
-3.30864

>  <r_i_glide_lipo>  (282) 
-0.712198

>  <r_i_glide_hbond>  (282) 
0

>  <r_i_glide_metal>  (282) 
-0

>  <r_i_glide_rewards>  (282) 
-1.3548

>  <r_i_glide_evdw>  (282) 
-18.2755

>  <r_i_glide_ecoul>  (282) 
-2.18582

>  <r_i_glide_erotb>  (282) 
0

>  <r_i_glide_esite>  (282) 
0

>  <r_i_glide_emodel>  (282) 
-22.2622

>  <r_i_glide_energy>  (282) 
-20.4613

>  <r_i_glide_einternal>  (282) 
0.898671

>  <r_i_glide_intrahb_reward>  (282) 
-0

>  <i_i_glide_confnum>  (282) 
2

>  <i_i_glide_posenum>  (282) 
9

>  <r_i_glide_eff_state_penalty>  (282) 
0

>  <ligand_id>  (282) 
83

>  <original_smiles>  (282) 
CC1(C)CCC2C3(C)CCC(C)(C3O)C23CC32C(=O)CC(O)C12

>  <smiles>  (282) 
[H]OC1([H])C([H])([H])C(=O)C23C([H])([H])C24C([H])(C([H])([H])C([H])([H])C(C([H])([H])[H])(C([H])([H])[H])C13[H])C1(C([H])([H])[H])C([H])([H])C([H])([H])C4(C([H])([H])[H])C1([H])O[H]

$$$$
83:1:0
     RDKit          3D

 53 57  0  0  1  0  0  0  0  0999 V2000
    3.2168   -1.9495    3.7493 C   0  0  0  0  0  0  0  0  0  0  0  0
    3.1597   -3.1640    2.7961 C   0  0  0  0  0  0  0  0  0  0  0  0
    1.9891   -4.0443    3.3129 C   0  0  0  0  0  0  0  0  0  0  0  0
    2.7317   -2.6142    1.3904 C   0  0  0  0  0  0  0  0  0  0  0  0
    2.6512   -3.5461    0.1105 C   0  0  0  0  0  0  0  0  0  0  0  0
    3.9550   -3.9001   -0.6939 C   0  0  1  0  0  0  0  0  0  0  0  0
    4.3806   -2.9384   -1.8528 C   0  0  2  0  0  0  0  0  0  0  0  0
    3.3120   -2.6756   -2.9264 C   0  0  0  0  0  0  0  0  0  0  0  0
    5.7189   -3.4395   -2.4534 C   0  0  0  0  0  0  0  0  0  0  0  0
    6.7716   -3.0415   -1.3902 C   0  0  0  0  0  0  0  0  0  0  0  0
    5.8622   -2.5539   -0.2344 C   0  0  1  0  0  0  0  0  0  0  0  0
    6.5787   -1.7471    0.8529 C   0  0  0  0  0  0  0  0  0  0  0  0
    4.8404   -1.7320   -1.0545 C   0  0  1  0  0  0  0  0  0  0  0  0
    5.3814   -0.6730   -1.8236 O   0  0  0  0  0  0  0  0  0  0  0  0
    5.1139   -3.8296    0.2516 C   0  0  2  0  0  0  0  0  0  0  0  0
    6.0963   -4.8799    0.7743 C   0  0  0  0  0  0  0  0  0  0  0  0
    4.8771   -4.5976    1.5731 C   0  0  2  0  0  0  0  0  0  0  0  0
    4.2210   -5.9253    1.8441 C   0  0  0  0  0  0  0  0  0  0  0  0
    3.7267   -6.6913    1.0121 O   0  0  0  0  0  0  0  0  0  0  0  0
    4.2313   -6.2053    3.3426 C   0  0  0  0  0  0  0  0  0  0  0  0
    4.7924   -4.8969    3.9414 C   0  0  1  0  0  0  0  0  0  0  0  0
    6.1725   -5.0801    4.2034 O   0  0  0  0  0  0  0  0  0  0  0  0
    4.6053   -3.8293    2.8321 C   0  0  2  0  0  0  0  0  0  0  0  0
    2.2612   -1.4239    3.7848 H   0  0  0  0  0  0  0  0  0  0  0  0
    3.9691   -1.2243    3.4319 H   0  0  0  0  0  0  0  0  0  0  0  0
    3.4632   -2.2524    4.7679 H   0  0  0  0  0  0  0  0  0  0  0  0
    1.7956   -4.9098    2.6812 H   0  0  0  0  0  0  0  0  0  0  0  0
    1.0585   -3.4760    3.3403 H   0  0  0  0  0  0  0  0  0  0  0  0
    2.1510   -4.3950    4.3315 H   0  0  0  0  0  0  0  0  0  0  0  0
    1.7210   -2.2147    1.5066 H   0  0  0  0  0  0  0  0  0  0  0  0
    3.3126   -1.7171    1.2371 H   0  0  0  0  0  0  0  0  0  0  0  0
    2.1787   -4.4822    0.4015 H   0  0  0  0  0  0  0  0  0  0  0  0
    1.9372   -3.1083   -0.5816 H   0  0  0  0  0  0  0  0  0  0  0  0
    3.8790   -4.9153   -1.0785 H   0  0  0  0  0  0  0  0  0  0  0  0
    3.7174   -2.0577   -3.7285 H   0  0  0  0  0  0  0  0  0  0  0  0
    2.4473   -2.1480   -2.5224 H   0  0  0  0  0  0  0  0  0  0  0  0
    2.9639   -3.6078   -3.3727 H   0  0  0  0  0  0  0  0  0  0  0  0
    5.6719   -4.5103   -2.6193 H   0  0  0  0  0  0  0  0  0  0  0  0
    5.9569   -2.9650   -3.4074 H   0  0  0  0  0  0  0  0  0  0  0  0
    7.4485   -3.8519   -1.1243 H   0  0  0  0  0  0  0  0  0  0  0  0
    7.4151   -2.2465   -1.7705 H   0  0  0  0  0  0  0  0  0  0  0  0
    5.8611   -1.3168    1.5516 H   0  0  0  0  0  0  0  0  0  0  0  0
    7.1529   -0.9252    0.4257 H   0  0  0  0  0  0  0  0  0  0  0  0
    7.2680   -2.3797    1.4035 H   0  0  0  0  0  0  0  0  0  0  0  0
    4.0204   -1.2793   -0.5228 H   0  0  0  0  0  0  0  0  0  0  0  0
    5.0293    0.1369   -1.4698 H   0  0  0  0  0  0  0  0  0  0  0  0
    6.1605   -5.7911    0.1796 H   0  0  0  0  0  0  0  0  0  0  0  0
    7.0424   -4.5683    1.2076 H   0  0  0  0  0  0  0  0  0  0  0  0
    3.2139   -6.3944    3.6816 H   0  0  0  0  0  0  0  0  0  0  0  0
    4.8412   -7.0764    3.5878 H   0  0  0  0  0  0  0  0  0  0  0  0
    4.3170   -4.6127    4.8784 H   0  0  0  0  0  0  0  0  0  0  0  0
    6.5938   -5.3784    3.4117 H   0  0  0  0  0  0  0  0  0  0  0  0
    5.3657   -3.0557    2.9358 H   0  0  0  0  0  0  0  0  0  0  0  0
  1  2  1  0
  1 24  1  0
  1 25  1  0
  1 26  1  0
  2 23  1  0
  2  3  1  0
  2  4  1  0
  3 27  1  0
  3 28  1  0
  3 29  1  0
  4  5  1  0
  4 30  1  0
  4 31  1  0
  5  6  1  0
  5 32  1  0
  5 33  1  0
  6 15  1  0
  6  7  1  0
  6 34  1  6
  7 13  1  0
  7  8  1  6
  7  9  1  0
  8 35  1  0
  8 36  1  0
  8 37  1  0
  9 10  1  0
  9 38  1  0
  9 39  1  0
 10 11  1  0
 10 40  1  0
 10 41  1  0
 11 12  1  1
 11 13  1  0
 11 15  1  0
 12 42  1  0
 12 43  1  0
 12 44  1  0
 13 14  1  0
 13 45  1  1
 14 46  1  0
 15 17  1  0
 15 16  1  6
 17 16  1  1
 16 47  1  0
 16 48  1  0
 17 23  1  0
 17 18  1  0
 18 19  2  0
 18 20  1  0
 20 21  1  0
 20 49  1  0
 20 50  1  0
 21 22  1  0
 21 23  1  0
 21 51  1  1
 22 52  1  0
 23 53  1  1
M  END
>  <i_m_ct_stereo_status>  (283) 
1

>  <s_m_source_file>  (283) 
/var/tmp/pbs.5076255.sched01/tmpthapbt4w/86pc0xbys0.sdf

>  <i_m_source_file_index>  (283) 
40

>  <i_lp_mmshare_version>  (283) 
48012

>  <i_f3d_flags>  (283) 
0

>  <s_epik_input>  (283) 
Tz1DMVtDSDJdW0NAQEhdKFtPSF0pW0NAQEhdKFtDQEBdMShDMjM0KVtDSDJdNClDKFtDSDNdKShbQ0gzXSlbQ0gyXVtDSDJdW0NASF0yW0NAXTUoW0NIM10pW0NIMl1bQ0gyXVtDQEBdMyhbQ0gzXSlbQ0BIXTVbT0hd

>  <s_epik_cmdline>  (283) 
J2VwaWtfcHl0aG9uJywgJy1waHQnLCAnMi4wJywgJy1waCcsICc3LjAnLCAnLXRuJywgJzgnLCAnLW1hJywgJzIwMCcsICctaW1hZScsICc8aW5maWxlLm1hZT4nLCAnLW9tYWUnLCAnPG91dGZpbGUubWFlPic=

>  <r_lp_tautomer_probability>  (283) 
1

>  <r_epik_Ionization_Penalty>  (283) 
2.47895e-06

>  <r_epik_Ionization_Penalty_Charging>  (283) 
0

>  <r_epik_Ionization_Penalty_Neutral>  (283) 
2.47895e-06

>  <r_epik_State_Penalty>  (283) 
-0

>  <r_epik_Charging_Adjusted_Penalty>  (283) 
0

>  <i_epik_Tot_Q>  (283) 
0

>  <i_epik_Tot_abs_Q>  (283) 
0

>  <s_lp_Force_Field>  (283) 
OPLS3e

>  <r_lp_Energy>  (283) 
90.1679

>  <b_lp_Chiralities_Consistent>  (283) 
1

>  <s_lp_Variant>  (283) 
83:0-2

>  <s_i_glide_gridfile>  (283) 
pfpi4k_grid

>  <i_i_glide_lignum>  (283) 
40

>  <i_i_glide_rotatable_bonds>  (283) 
2

>  <r_i_docking_score>  (283) 
-3.77326

>  <r_i_glide_ligand_efficiency>  (283) 
-0.164055

>  <r_i_glide_ligand_efficiency_sa>  (283) 
-0.46655

>  <r_i_glide_ligand_efficiency_ln>  (283) 
-0.912408

>  <r_i_glide_gscore>  (283) 
-3.77326

>  <r_i_glide_lipo>  (283) 
-0.531531

>  <r_i_glide_hbond>  (283) 
-0.26702

>  <r_i_glide_metal>  (283) 
-0

>  <r_i_glide_rewards>  (283) 
-1.27477

>  <r_i_glide_evdw>  (283) 
-22.3595

>  <r_i_glide_ecoul>  (283) 
-3.87971

>  <r_i_glide_erotb>  (283) 
0

>  <r_i_glide_esite>  (283) 
0

>  <r_i_glide_emodel>  (283) 
-31.2276

>  <r_i_glide_energy>  (283) 
-26.2392

>  <r_i_glide_einternal>  (283) 
1.35784

>  <r_i_glide_intrahb_reward>  (283) 
-0

>  <i_i_glide_confnum>  (283) 
1

>  <i_i_glide_posenum>  (283) 
36

>  <r_i_glide_eff_state_penalty>  (283) 
0

>  <ligand_id>  (283) 
83

>  <original_smiles>  (283) 
CC1(C)CCC2C3(C)CCC(C)(C3O)C23CC32C(=O)CC(O)C12

>  <smiles>  (283) 
[H]OC1([H])C([H])([H])C(=O)C23C([H])([H])C24C([H])(C([H])([H])C([H])([H])C(C([H])([H])[H])(C([H])([H])[H])C13[H])C1(C([H])([H])[H])C([H])([H])C([H])([H])C4(C([H])([H])[H])C1([H])O[H]

$$$$
83:1:1
     RDKit          3D

 53 57  0  0  1  0  0  0  0  0999 V2000
    3.1965   -2.0092    3.7690 C   0  0  0  0  0  0  0  0  0  0  0  0
    3.1470   -3.2159    2.8042 C   0  0  0  0  0  0  0  0  0  0  0  0
    1.9777   -4.1046    3.3088 C   0  0  0  0  0  0  0  0  0  0  0  0
    2.7213   -2.6550    1.4014 C   0  0  0  0  0  0  0  0  0  0  0  0
    2.6461   -3.5765    0.1128 C   0  0  0  0  0  0  0  0  0  0  0  0
    3.9568   -3.9162   -0.6879 C   0  0  1  0  0  0  0  0  0  0  0  0
    4.3834   -2.9428   -1.8374 C   0  0  2  0  0  0  0  0  0  0  0  0
    3.3163   -2.6748   -2.9116 C   0  0  0  0  0  0  0  0  0  0  0  0
    5.7260   -3.4318   -2.4395 C   0  0  0  0  0  0  0  0  0  0  0  0
    6.7712   -3.0407   -1.3718 C   0  0  0  0  0  0  0  0  0  0  0  0
    5.8587   -2.5690   -0.2125 C   0  0  1  0  0  0  0  0  0  0  0  0
    6.5676   -1.7669    0.8817 C   0  0  0  0  0  0  0  0  0  0  0  0
    4.8370   -1.7425   -1.0281 C   0  0  1  0  0  0  0  0  0  0  0  0
    5.3752   -0.6684   -1.7851 O   0  0  0  0  0  0  0  0  0  0  0  0
    5.1119   -3.8487    0.2626 C   0  0  2  0  0  0  0  0  0  0  0  0
    6.0987   -4.9015    0.7786 C   0  0  0  0  0  0  0  0  0  0  0  0
    4.8760   -4.6306    1.5773 C   0  0  2  0  0  0  0  0  0  0  0  0
    4.2272   -5.9657    1.8338 C   0  0  0  0  0  0  0  0  0  0  0  0
    3.7381   -6.7225    0.9943 O   0  0  0  0  0  0  0  0  0  0  0  0
    4.2266   -6.2581    3.3302 C   0  0  0  0  0  0  0  0  0  0  0  0
    4.7801   -4.9515    3.9453 C   0  0  1  0  0  0  0  0  0  0  0  0
    6.1640   -5.1255    4.1887 O   0  0  0  0  0  0  0  0  0  0  0  0
    4.5944   -3.8768    2.8434 C   0  0  2  0  0  0  0  0  0  0  0  0
    2.2384   -1.4872    3.8061 H   0  0  0  0  0  0  0  0  0  0  0  0
    3.9463   -1.2786    3.4578 H   0  0  0  0  0  0  0  0  0  0  0  0
    3.4402   -2.3186    4.7859 H   0  0  0  0  0  0  0  0  0  0  0  0
    1.7894   -4.9633    2.6673 H   0  0  0  0  0  0  0  0  0  0  0  0
    1.0444   -3.5397    3.3386 H   0  0  0  0  0  0  0  0  0  0  0  0
    2.1362   -4.4640    4.3241 H   0  0  0  0  0  0  0  0  0  0  0  0
    1.7116   -2.2559    1.5186 H   0  0  0  0  0  0  0  0  0  0  0  0
    3.3020   -1.7553    1.2573 H   0  0  0  0  0  0  0  0  0  0  0  0
    2.1775   -4.5176    0.3952 H   0  0  0  0  0  0  0  0  0  0  0  0
    1.9317   -3.1357   -0.5779 H   0  0  0  0  0  0  0  0  0  0  0  0
    3.8902   -4.9264   -1.0829 H   0  0  0  0  0  0  0  0  0  0  0  0
    3.7215   -2.0486   -3.7076 H   0  0  0  0  0  0  0  0  0  0  0  0
    2.4495   -2.1541   -2.5055 H   0  0  0  0  0  0  0  0  0  0  0  0
    2.9740   -3.6045   -3.3686 H   0  0  0  0  0  0  0  0  0  0  0  0
    5.6847   -4.5018   -2.6150 H   0  0  0  0  0  0  0  0  0  0  0  0
    5.9646   -2.9490   -3.3863 H   0  0  0  0  0  0  0  0  0  0  0  0
    7.4511   -3.8513   -1.1123 H   0  0  0  0  0  0  0  0  0  0  0  0
    7.4129   -2.2416   -1.7387 H   0  0  0  0  0  0  0  0  0  0  0  0
    5.8457   -1.3430    1.5793 H   0  0  0  0  0  0  0  0  0  0  0  0
    7.1440   -0.9423    0.4650 H   0  0  0  0  0  0  0  0  0  0  0  0
    7.2504   -2.4033    1.4347 H   0  0  0  0  0  0  0  0  0  0  0  0
    4.0140   -1.2972   -0.4945 H   0  0  0  0  0  0  0  0  0  0  0  0
    5.0293    0.1341   -1.4189 H   0  0  0  0  0  0  0  0  0  0  0  0
    6.1688   -5.8071    0.1751 H   0  0  0  0  0  0  0  0  0  0  0  0
    7.0414   -4.5936    1.2213 H   0  0  0  0  0  0  0  0  0  0  0  0
    3.2079   -6.4552    3.6591 H   0  0  0  0  0  0  0  0  0  0  0  0
    4.8385   -7.1302    3.5670 H   0  0  0  0  0  0  0  0  0  0  0  0
    4.2979   -4.6803    4.8862 H   0  0  0  0  0  0  0  0  0  0  0  0
    6.2713   -5.8370    4.7985 H   0  0  0  0  0  0  0  0  0  0  0  0
    5.3531   -3.1064    2.9565 H   0  0  0  0  0  0  0  0  0  0  0  0
  1  2  1  0
  1 24  1  0
  1 25  1  0
  1 26  1  0
  2 23  1  0
  2  3  1  0
  2  4  1  0
  3 27  1  0
  3 28  1  0
  3 29  1  0
  4  5  1  0
  4 30  1  0
  4 31  1  0
  5  6  1  0
  5 32  1  0
  5 33  1  0
  6 15  1  0
  6  7  1  0
  6 34  1  6
  7 13  1  0
  7  8  1  6
  7  9  1  0
  8 35  1  0
  8 36  1  0
  8 37  1  0
  9 10  1  0
  9 38  1  0
  9 39  1  0
 10 11  1  0
 10 40  1  0
 10 41  1  0
 11 12  1  1
 11 13  1  0
 11 15  1  0
 12 42  1  0
 12 43  1  0
 12 44  1  0
 13 14  1  0
 13 45  1  1
 14 46  1  0
 15 17  1  0
 15 16  1  6
 17 16  1  1
 16 47  1  0
 16 48  1  0
 17 23  1  0
 17 18  1  0
 18 19  2  0
 18 20  1  0
 20 21  1  0
 20 49  1  0
 20 50  1  0
 21 22  1  0
 21 23  1  0
 21 51  1  1
 22 52  1  0
 23 53  1  1
M  END
>  <i_m_ct_stereo_status>  (284) 
1

>  <s_m_source_file>  (284) 
/var/tmp/pbs.5076255.sched01/tmpthapbt4w/86pc0xbys0.sdf

>  <i_m_source_file_index>  (284) 
40

>  <i_lp_mmshare_version>  (284) 
48012

>  <i_f3d_flags>  (284) 
0

>  <s_epik_input>  (284) 
Tz1DMVtDSDJdW0NAQEhdKFtPSF0pW0NAQEhdKFtDQEBdMShDMjM0KVtDSDJdNClDKFtDSDNdKShbQ0gzXSlbQ0gyXVtDSDJdW0NASF0yW0NAXTUoW0NIM10pW0NIMl1bQ0gyXVtDQEBdMyhbQ0gzXSlbQ0BIXTVbT0hd

>  <s_epik_cmdline>  (284) 
J2VwaWtfcHl0aG9uJywgJy1waHQnLCAnMi4wJywgJy1waCcsICc3LjAnLCAnLXRuJywgJzgnLCAnLW1hJywgJzIwMCcsICctaW1hZScsICc8aW5maWxlLm1hZT4nLCAnLW9tYWUnLCAnPG91dGZpbGUubWFlPic=

>  <r_lp_tautomer_probability>  (284) 
1

>  <r_epik_Ionization_Penalty>  (284) 
2.47895e-06

>  <r_epik_Ionization_Penalty_Charging>  (284) 
0

>  <r_epik_Ionization_Penalty_Neutral>  (284) 
2.47895e-06

>  <r_epik_State_Penalty>  (284) 
-0

>  <r_epik_Charging_Adjusted_Penalty>  (284) 
0

>  <i_epik_Tot_Q>  (284) 
0

>  <i_epik_Tot_abs_Q>  (284) 
0

>  <s_lp_Force_Field>  (284) 
OPLS3e

>  <r_lp_Energy>  (284) 
90.1679

>  <b_lp_Chiralities_Consistent>  (284) 
1

>  <s_lp_Variant>  (284) 
83:0-2

>  <s_i_glide_gridfile>  (284) 
pfpi4k_grid

>  <i_i_glide_lignum>  (284) 
40

>  <i_i_glide_rotatable_bonds>  (284) 
2

>  <r_i_docking_score>  (284) 
-3.76255

>  <r_i_glide_ligand_efficiency>  (284) 
-0.163589

>  <r_i_glide_ligand_efficiency_sa>  (284) 
-0.465226

>  <r_i_glide_ligand_efficiency_ln>  (284) 
-0.909819

>  <r_i_glide_gscore>  (284) 
-3.76255

>  <r_i_glide_lipo>  (284) 
-0.533957

>  <r_i_glide_hbond>  (284) 
-0.262855

>  <r_i_glide_metal>  (284) 
-0

>  <r_i_glide_rewards>  (284) 
-1.27677

>  <r_i_glide_evdw>  (284) 
-22.3132

>  <r_i_glide_ecoul>  (284) 
-3.82208

>  <r_i_glide_erotb>  (284) 
0

>  <r_i_glide_esite>  (284) 
0

>  <r_i_glide_emodel>  (284) 
-30.8937

>  <r_i_glide_energy>  (284) 
-26.1353

>  <r_i_glide_einternal>  (284) 
1.65973

>  <r_i_glide_intrahb_reward>  (284) 
-0

>  <i_i_glide_confnum>  (284) 
2

>  <i_i_glide_posenum>  (284) 
20

>  <r_i_glide_eff_state_penalty>  (284) 
0

>  <ligand_id>  (284) 
83

>  <original_smiles>  (284) 
CC1(C)CCC2C3(C)CCC(C)(C3O)C23CC32C(=O)CC(O)C12

>  <smiles>  (284) 
[H]OC1([H])C([H])([H])C(=O)C23C([H])([H])C24C([H])(C([H])([H])C([H])([H])C(C([H])([H])[H])(C([H])([H])[H])C13[H])C1(C([H])([H])[H])C([H])([H])C([H])([H])C4(C([H])([H])[H])C1([H])O[H]

$$$$
83:1:2
     RDKit          3D

 53 57  0  0  1  0  0  0  0  0999 V2000
    3.2769   -2.0413    4.0456 C   0  0  0  0  0  0  0  0  0  0  0  0
    3.1819   -3.2332    3.0672 C   0  0  0  0  0  0  0  0  0  0  0  0
    2.0067   -4.1069    3.5887 C   0  0  0  0  0  0  0  0  0  0  0  0
    2.7370   -2.6440    1.6825 C   0  0  0  0  0  0  0  0  0  0  0  0
    2.6192   -3.5485    0.3860 C   0  0  0  0  0  0  0  0  0  0  0  0
    3.8924   -3.9125   -0.4578 C   0  0  1  0  0  0  0  0  0  0  0  0
    4.3021   -2.9313   -1.6067 C   0  0  2  0  0  0  0  0  0  0  0  0
    3.2129   -2.6276   -2.6512 C   0  0  0  0  0  0  0  0  0  0  0  0
    5.6224   -3.4344   -2.2506 C   0  0  0  0  0  0  0  0  0  0  0  0
    6.6991   -3.0539   -1.2057 C   0  0  0  0  0  0  0  0  0  0  0  0
    5.8246   -2.5974   -0.0152 C   0  0  1  0  0  0  0  0  0  0  0  0
    6.5676   -1.8236    1.0723 C   0  0  0  0  0  0  0  0  0  0  0  0
    4.7991   -1.7447   -0.7951 C   0  0  1  0  0  0  0  0  0  0  0  0
    5.3439   -0.6816   -1.5641 O   0  0  0  0  0  0  0  0  0  0  0  0
    5.0724   -3.8773    0.4588 C   0  0  2  0  0  0  0  0  0  0  0  0
    6.0487   -4.9507    0.9390 C   0  0  0  0  0  0  0  0  0  0  0  0
    4.8539   -4.6630    1.7715 C   0  0  2  0  0  0  0  0  0  0  0  0
    4.1794   -5.9915    2.0318 C   0  0  0  0  0  0  0  0  0  0  0  0
    3.6492   -6.7246    1.1981 O   0  0  0  0  0  0  0  0  0  0  0  0
    4.2156   -6.3024    3.5218 C   0  0  0  0  0  0  0  0  0  0  0  0
    4.8096   -5.0155    4.1373 C   0  0  1  0  0  0  0  0  0  0  0  0
    6.1970   -5.2159    4.3412 O   0  0  0  0  0  0  0  0  0  0  0  0
    4.6155   -3.9217    3.0558 C   0  0  2  0  0  0  0  0  0  0  0  0
    2.3301   -1.5015    4.1144 H   0  0  0  0  0  0  0  0  0  0  0  0
    4.0328   -1.3197    3.7275 H   0  0  0  0  0  0  0  0  0  0  0  0
    3.5408   -2.3699    5.0515 H   0  0  0  0  0  0  0  0  0  0  0  0
    1.7863   -4.9541    2.9417 H   0  0  0  0  0  0  0  0  0  0  0  0
    1.0851   -3.5257    3.6503 H   0  0  0  0  0  0  0  0  0  0  0  0
    2.1845   -4.4835    4.5948 H   0  0  0  0  0  0  0  0  0  0  0  0
    1.7317   -2.2413    1.8245 H   0  0  0  0  0  0  0  0  0  0  0  0
    3.3239   -1.7476    1.5367 H   0  0  0  0  0  0  0  0  0  0  0  0
    2.1394   -4.4815    0.6707 H   0  0  0  0  0  0  0  0  0  0  0  0
    1.9035   -3.0813   -0.2829 H   0  0  0  0  0  0  0  0  0  0  0  0
    3.7858   -4.9213   -0.8512 H   0  0  0  0  0  0  0  0  0  0  0  0
    3.6092   -1.9963   -3.4469 H   0  0  0  0  0  0  0  0  0  0  0  0
    2.3662   -2.0948   -2.2191 H   0  0  0  0  0  0  0  0  0  0  0  0
    2.8361   -3.5420   -3.1125 H   0  0  0  0  0  0  0  0  0  0  0  0
    5.5633   -4.5045   -2.4346 H   0  0  0  0  0  0  0  0  0  0  0  0
    5.8384   -2.9420   -3.1983 H   0  0  0  0  0  0  0  0  0  0  0  0
    7.3849   -3.8610   -0.9644 H   0  0  0  0  0  0  0  0  0  0  0  0
    7.3330   -2.2483   -1.5779 H   0  0  0  0  0  0  0  0  0  0  0  0
    5.8733   -1.3934    1.7928 H   0  0  0  0  0  0  0  0  0  0  0  0
    7.1535   -1.0076    0.6483 H   0  0  0  0  0  0  0  0  0  0  0  0
    7.2419   -2.4873    1.6029 H   0  0  0  0  0  0  0  0  0  0  0  0
    4.0108   -1.2827   -0.2259 H   0  0  0  0  0  0  0  0  0  0  0  0
    4.6271   -0.1085   -1.7965 H   0  0  0  0  0  0  0  0  0  0  0  0
    6.0856   -5.8492    0.3208 H   0  0  0  0  0  0  0  0  0  0  0  0
    7.0082   -4.6644    1.3603 H   0  0  0  0  0  0  0  0  0  0  0  0
    3.2025   -6.4845    3.8767 H   0  0  0  0  0  0  0  0  0  0  0  0
    4.8153   -7.1884    3.7306 H   0  0  0  0  0  0  0  0  0  0  0  0
    4.3564   -4.7487    5.0954 H   0  0  0  0  0  0  0  0  0  0  0  0
    6.3061   -5.9413    4.9398 H   0  0  0  0  0  0  0  0  0  0  0  0
    5.3896   -3.1659    3.1602 H   0  0  0  0  0  0  0  0  0  0  0  0
  1  2  1  0
  1 24  1  0
  1 25  1  0
  1 26  1  0
  2 23  1  0
  2  3  1  0
  2  4  1  0
  3 27  1  0
  3 28  1  0
  3 29  1  0
  4  5  1  0
  4 30  1  0
  4 31  1  0
  5  6  1  0
  5 32  1  0
  5 33  1  0
  6 15  1  0
  6  7  1  0
  6 34  1  6
  7 13  1  0
  7  8  1  6
  7  9  1  0
  8 35  1  0
  8 36  1  0
  8 37  1  0
  9 10  1  0
  9 38  1  0
  9 39  1  0
 10 11  1  0
 10 40  1  0
 10 41  1  0
 11 12  1  1
 11 13  1  0
 11 15  1  0
 12 42  1  0
 12 43  1  0
 12 44  1  0
 13 14  1  0
 13 45  1  1
 14 46  1  0
 15 17  1  0
 15 16  1  6
 17 16  1  1
 16 47  1  0
 16 48  1  0
 17 23  1  0
 17 18  1  0
 18 19  2  0
 18 20  1  0
 20 21  1  0
 20 49  1  0
 20 50  1  0
 21 22  1  0
 21 23  1  0
 21 51  1  1
 22 52  1  0
 23 53  1  1
M  END
>  <i_m_ct_stereo_status>  (285) 
1

>  <s_m_source_file>  (285) 
/var/tmp/pbs.5076255.sched01/tmpthapbt4w/86pc0xbys0.sdf

>  <i_m_source_file_index>  (285) 
40

>  <i_lp_mmshare_version>  (285) 
48012

>  <i_f3d_flags>  (285) 
0

>  <s_epik_input>  (285) 
Tz1DMVtDSDJdW0NAQEhdKFtPSF0pW0NAQEhdKFtDQEBdMShDMjM0KVtDSDJdNClDKFtDSDNdKShbQ0gzXSlbQ0gyXVtDSDJdW0NASF0yW0NAXTUoW0NIM10pW0NIMl1bQ0gyXVtDQEBdMyhbQ0gzXSlbQ0BIXTVbT0hd

>  <s_epik_cmdline>  (285) 
J2VwaWtfcHl0aG9uJywgJy1waHQnLCAnMi4wJywgJy1waCcsICc3LjAnLCAnLXRuJywgJzgnLCAnLW1hJywgJzIwMCcsICctaW1hZScsICc8aW5maWxlLm1hZT4nLCAnLW9tYWUnLCAnPG91dGZpbGUubWFlPic=

>  <r_lp_tautomer_probability>  (285) 
1

>  <r_epik_Ionization_Penalty>  (285) 
2.47895e-06

>  <r_epik_Ionization_Penalty_Charging>  (285) 
0

>  <r_epik_Ionization_Penalty_Neutral>  (285) 
2.47895e-06

>  <r_epik_State_Penalty>  (285) 
-0

>  <r_epik_Charging_Adjusted_Penalty>  (285) 
0

>  <i_epik_Tot_Q>  (285) 
0

>  <i_epik_Tot_abs_Q>  (285) 
0

>  <s_lp_Force_Field>  (285) 
OPLS3e

>  <r_lp_Energy>  (285) 
90.1679

>  <b_lp_Chiralities_Consistent>  (285) 
1

>  <s_lp_Variant>  (285) 
83:0-2

>  <s_i_glide_gridfile>  (285) 
pfpi4k_grid

>  <i_i_glide_lignum>  (285) 
40

>  <i_i_glide_rotatable_bonds>  (285) 
2

>  <r_i_docking_score>  (285) 
-3.21455

>  <r_i_glide_ligand_efficiency>  (285) 
-0.139763

>  <r_i_glide_ligand_efficiency_sa>  (285) 
-0.397468

>  <r_i_glide_ligand_efficiency_ln>  (285) 
-0.777308

>  <r_i_glide_gscore>  (285) 
-3.21455

>  <r_i_glide_lipo>  (285) 
-0.518149

>  <r_i_glide_hbond>  (285) 
-0.00342906

>  <r_i_glide_metal>  (285) 
-0

>  <r_i_glide_rewards>  (285) 
-1.26274

>  <r_i_glide_evdw>  (285) 
-21.776

>  <r_i_glide_ecoul>  (285) 
-2.27625

>  <r_i_glide_erotb>  (285) 
0

>  <r_i_glide_esite>  (285) 
0

>  <r_i_glide_emodel>  (285) 
-28.4364

>  <r_i_glide_energy>  (285) 
-24.0522

>  <r_i_glide_einternal>  (285) 
0.950615

>  <r_i_glide_intrahb_reward>  (285) 
-0

>  <i_i_glide_confnum>  (285) 
1

>  <i_i_glide_posenum>  (285) 
11

>  <r_i_glide_eff_state_penalty>  (285) 
0

>  <ligand_id>  (285) 
83

>  <original_smiles>  (285) 
CC1(C)CCC2C3(C)CCC(C)(C3O)C23CC32C(=O)CC(O)C12

>  <smiles>  (285) 
[H]OC1([H])C([H])([H])C(=O)C23C([H])([H])C24C([H])(C([H])([H])C([H])([H])C(C([H])([H])[H])(C([H])([H])[H])C13[H])C1(C([H])([H])[H])C([H])([H])C([H])([H])C4(C([H])([H])[H])C1([H])O[H]

$$$$
84:0:0
     RDKit          3D

 62 66  0  0  1  0  0  0  0  0999 V2000
    3.5129   -0.2484    0.5934 C   0  0  0  0  0  0  0  0  0  0  0  0
    3.8170   -1.5288    0.4366 C   0  0  0  0  0  0  0  0  0  0  0  0
    2.9745   -2.6458    1.0340 C   0  0  1  0  0  0  0  0  0  0  0  0
    2.3100   -3.5063   -0.0810 C   0  0  0  0  0  0  0  0  0  0  0  0
    2.9731   -3.6048   -1.4530 C   0  0  0  0  0  0  0  0  0  0  0  0
    4.4244   -4.1267   -1.4974 C   0  0  1  0  0  0  0  0  0  0  0  0
    4.8514   -3.9127   -2.9542 C   0  0  0  0  0  0  0  0  0  0  0  0
    5.2322   -3.4949   -0.3323 C   0  0  2  0  0  0  0  0  0  0  0  0
    5.0496   -1.9666   -0.3353 C   0  0  2  0  0  0  0  0  0  0  0  0
    6.4191   -1.7964    0.2749 C   0  0  1  0  0  0  0  0  0  0  0  0
    6.5213   -1.3975    1.6307 O   0  0  0  0  0  0  0  0  0  0  0  0
    6.7557   -3.2541   -0.1834 C   0  0  2  0  0  0  0  0  0  0  0  0
    7.7471   -3.4144   -1.3827 C   0  0  0  0  0  0  0  0  0  0  0  0
    8.4967   -2.2499   -1.5973 O   0  0  0  0  0  0  0  0  0  0  0  0
    7.2094   -4.1822    0.9544 C   0  0  0  0  0  0  0  0  0  0  0  0
    8.3818   -4.3276    1.2810 O   0  0  0  0  0  0  0  0  0  0  0  0
    6.0393   -4.9442    1.6493 C   0  0  1  0  0  0  0  0  0  0  0  0
    6.1910   -6.5018    1.3605 C   0  0  0  0  0  0  0  0  0  0  0  0
    4.9943   -7.4275    1.7181 C   0  0  0  0  0  0  0  0  0  0  0  0
    7.4584   -7.1645    1.9631 C   0  0  0  0  0  0  0  0  0  0  0  0
    5.9736   -4.6658    3.1988 C   0  0  0  0  0  0  0  0  0  0  0  0
    4.5973   -4.8892    3.8918 C   0  0  0  0  0  0  0  0  0  0  0  0
    3.4101   -4.3012    3.0854 C   0  0  1  0  0  0  0  0  0  0  0  0
    2.4741   -3.5462    4.0264 C   0  0  0  0  0  0  0  0  0  0  0  0
    3.0550   -2.3742    4.8241 C   0  0  0  0  0  0  0  0  0  0  0  0
    1.3058   -3.8913    4.1624 O   0  0  0  0  0  0  0  0  0  0  0  0
    3.9419   -3.4419    1.9117 C   0  0  1  0  0  0  0  0  0  0  0  0
    4.8130   -4.2936    0.9616 C   0  0  1  0  0  0  0  0  0  0  0  0
    4.1649    0.4978    0.1504 H   0  0  0  0  0  0  0  0  0  0  0  0
    2.6087    0.0622    1.0979 H   0  0  0  0  0  0  0  0  0  0  0  0
    2.2059   -2.1740    1.6457 H   0  0  0  0  0  0  0  0  0  0  0  0
    2.0006   -4.4796    0.3127 H   0  0  0  0  0  0  0  0  0  0  0  0
    1.4086   -3.0084   -0.4078 H   0  0  0  0  0  0  0  0  0  0  0  0
    2.2945   -4.2080   -2.0535 H   0  0  0  0  0  0  0  0  0  0  0  0
    2.9016   -2.6166   -1.9239 H   0  0  0  0  0  0  0  0  0  0  0  0
    4.4344   -5.1962   -1.3274 H   0  0  0  0  0  0  0  0  0  0  0  0
    5.1611   -2.8906   -3.1770 H   0  0  0  0  0  0  0  0  0  0  0  0
    4.0480   -4.1765   -3.6570 H   0  0  0  0  0  0  0  0  0  0  0  0
    5.6548   -4.5998   -3.1810 H   0  0  0  0  0  0  0  0  0  0  0  0
    5.0268   -1.5520   -1.3454 H   0  0  0  0  0  0  0  0  0  0  0  0
    6.8965   -1.0108   -0.3162 H   0  0  0  0  0  0  0  0  0  0  0  0
    5.8847   -1.9106    2.1432 H   0  0  0  0  0  0  0  0  0  0  0  0
    8.5032   -4.1763   -1.2107 H   0  0  0  0  0  0  0  0  0  0  0  0
    7.2691   -3.6579   -2.3504 H   0  0  0  0  0  0  0  0  0  0  0  0
    9.3195   -2.5107   -2.0299 H   0  0  0  0  0  0  0  0  0  0  0  0
    6.3130   -6.5691    0.2846 H   0  0  0  0  0  0  0  0  0  0  0  0
    4.7548   -7.4586    2.7891 H   0  0  0  0  0  0  0  0  0  0  0  0
    5.2259   -8.4595    1.4567 H   0  0  0  0  0  0  0  0  0  0  0  0
    4.0863   -7.1855    1.1716 H   0  0  0  0  0  0  0  0  0  0  0  0
    7.4480   -7.1886    3.0554 H   0  0  0  0  0  0  0  0  0  0  0  0
    8.4040   -6.7189    1.6583 H   0  0  0  0  0  0  0  0  0  0  0  0
    7.5255   -8.2038    1.6483 H   0  0  0  0  0  0  0  0  0  0  0  0
    6.7446   -5.2160    3.7192 H   0  0  0  0  0  0  0  0  0  0  0  0
    6.2013   -3.6213    3.3444 H   0  0  0  0  0  0  0  0  0  0  0  0
    4.3824   -5.9344    4.1285 H   0  0  0  0  0  0  0  0  0  0  0  0
    4.6805   -4.4545    4.8899 H   0  0  0  0  0  0  0  0  0  0  0  0
    2.8326   -5.1216    2.6596 H   0  0  0  0  0  0  0  0  0  0  0  0
    3.8899   -2.6878    5.4500 H   0  0  0  0  0  0  0  0  0  0  0  0
    2.3029   -1.9508    5.4906 H   0  0  0  0  0  0  0  0  0  0  0  0
    3.4233   -1.5969    4.1543 H   0  0  0  0  0  0  0  0  0  0  0  0
    4.5454   -2.6849    2.4030 H   0  0  0  0  0  0  0  0  0  0  0  0
    4.1617   -5.1163    0.6878 H   0  0  0  0  0  0  0  0  0  0  0  0
  1  2  2  0
  1 29  1  0
  1 30  1  0
  2  9  1  0
  2  3  1  0
  3 27  1  0
  3  4  1  0
  3 31  1  1
  4  5  1  0
  4 32  1  0
  4 33  1  0
  5  6  1  0
  5 34  1  0
  5 35  1  0
  6  7  1  0
  6  8  1  0
  6 36  1  1
  7 37  1  0
  7 38  1  0
  7 39  1  0
  8 12  1  6
  8 28  1  0
  8  9  1  0
  9 10  1  0
  9 40  1  6
 10 11  1  0
 10 12  1  0
 10 41  1  6
 11 42  1  0
 12 13  1  6
 12 15  1  0
 13 14  1  0
 13 43  1  0
 13 44  1  0
 14 45  1  0
 15 16  2  0
 15 17  1  0
 17 28  1  0
 17 18  1  1
 17 21  1  0
 18 19  1  0
 18 20  1  0
 18 46  1  0
 19 47  1  0
 19 48  1  0
 19 49  1  0
 20 50  1  0
 20 51  1  0
 20 52  1  0
 21 22  1  0
 21 53  1  0
 21 54  1  0
 22 23  1  0
 22 55  1  0
 22 56  1  0
 23 24  1  0
 23 27  1  0
 23 57  1  6
 24 25  1  0
 24 26  2  0
 25 58  1  0
 25 59  1  0
 25 60  1  0
 27 28  1  0
 27 61  1  1
 28 62  1  6
M  END
>  <i_m_ct_stereo_status>  (286) 
1

>  <s_m_source_file>  (286) 
/var/tmp/pbs.5076255.sched01/tmpthapbt4w/86pc0xbys0.sdf

>  <i_m_source_file_index>  (286) 
41

>  <i_lp_mmshare_version>  (286) 
48012

>  <i_f3d_flags>  (286) 
0

>  <s_epik_input>  (286) 
W0NIM11bQ0BASF0xW0NIMl1bQ0gyXVtDQEhdKEMoPVtDSDJdKVtDQEBIXTJbQ0BAXTEzNClbQ0BASF01W0NAQEhdNFtDQEBdKFtDSF0oW0NIM10pW0NIM10pKEMoPU8pW0NAQF0zKFtDQEBIXTJbT0hdKVtDSDJdW09IXSlbQ0gyXVtDSDJdW0NASF01Qyg9TylbQ0gzXQ==

>  <s_epik_cmdline>  (286) 
J2VwaWtfcHl0aG9uJywgJy1waHQnLCAnMi4wJywgJy1waCcsICc3LjAnLCAnLXRuJywgJzgnLCAnLW1hJywgJzIwMCcsICctaW1hZScsICc8aW5maWxlLm1hZT4nLCAnLW9tYWUnLCAnPG91dGZpbGUubWFlPic=

>  <r_lp_tautomer_probability>  (286) 
1

>  <r_epik_Ionization_Penalty>  (286) 
2.16193e-07

>  <r_epik_Ionization_Penalty_Charging>  (286) 
0

>  <r_epik_Ionization_Penalty_Neutral>  (286) 
2.16193e-07

>  <r_epik_State_Penalty>  (286) 
-0

>  <r_epik_Charging_Adjusted_Penalty>  (286) 
0

>  <i_epik_Tot_Q>  (286) 
0

>  <i_epik_Tot_abs_Q>  (286) 
0

>  <s_lp_Force_Field>  (286) 
OPLS3e

>  <r_lp_Energy>  (286) 
60.3075

>  <b_lp_Chiralities_Consistent>  (286) 
1

>  <s_lp_Variant>  (286) 
84:0-1

>  <s_i_glide_gridfile>  (286) 
pfpi4k_grid

>  <i_i_glide_lignum>  (286) 
41

>  <i_i_glide_rotatable_bonds>  (286) 
5

>  <r_i_docking_score>  (286) 
-2.78632

>  <r_i_glide_ligand_efficiency>  (286) 
-0.0995113

>  <r_i_glide_ligand_efficiency_sa>  (286) 
-0.302175

>  <r_i_glide_ligand_efficiency_ln>  (286) 
-0.643163

>  <r_i_glide_gscore>  (286) 
-2.78632

>  <r_i_glide_lipo>  (286) 
-0.523169

>  <r_i_glide_hbond>  (286) 
-0.291379

>  <r_i_glide_metal>  (286) 
-0

>  <r_i_glide_rewards>  (286) 
-0.941326

>  <r_i_glide_evdw>  (286) 
-9.08057

>  <r_i_glide_ecoul>  (286) 
-4.46163

>  <r_i_glide_erotb>  (286) 
0.0911974

>  <r_i_glide_esite>  (286) 
0

>  <r_i_glide_emodel>  (286) 
-4.37396

>  <r_i_glide_energy>  (286) 
-13.5422

>  <r_i_glide_einternal>  (286) 
13.1349

>  <r_i_glide_intrahb_reward>  (286) 
-0

>  <i_i_glide_confnum>  (286) 
3

>  <i_i_glide_posenum>  (286) 
40

>  <r_i_glide_eff_state_penalty>  (286) 
0

>  <ligand_id>  (286) 
84

>  <original_smiles>  (286) 
C=C1C2CCC(C)C34C1C(O)C3(CO)C(=O)C1(C(C)C)CCC(C(C)=O)C2C14

>  <smiles>  (286) 
[H]OC([H])([H])C12C(=O)C3(C([H])(C([H])([H])[H])C([H])([H])[H])C([H])([H])C([H])([H])C([H])(C(=O)C([H])([H])[H])C4([H])C5([H])C(=C([H])[H])C([H])(C1([H])O[H])C2(C([H])(C([H])([H])[H])C([H])([H])C5([H])[H])C43[H]

$$$$
84:0:1
     RDKit          3D

 62 66  0  0  1  0  0  0  0  0999 V2000
    3.1773    0.1161    1.1346 C   0  0  0  0  0  0  0  0  0  0  0  0
    3.5642   -1.1012    0.7647 C   0  0  0  0  0  0  0  0  0  0  0  0
    2.8769   -2.3797    1.2403 C   0  0  1  0  0  0  0  0  0  0  0  0
    2.1667   -3.1223    0.0900 C   0  0  0  0  0  0  0  0  0  0  0  0
    2.6350   -2.9818   -1.3783 C   0  0  0  0  0  0  0  0  0  0  0  0
    4.1017   -3.3641   -1.6827 C   0  0  1  0  0  0  0  0  0  0  0  0
    4.3384   -2.8576   -3.1287 C   0  0  0  0  0  0  0  0  0  0  0  0
    4.9848   -2.8643   -0.4774 C   0  0  2  0  0  0  0  0  0  0  0  0
    4.7257   -1.3608   -0.1965 C   0  0  2  0  0  0  0  0  0  0  0  0
    6.1689   -1.2202    0.2539 C   0  0  1  0  0  0  0  0  0  0  0  0
    6.4764   -1.0414    1.6225 O   0  0  0  0  0  0  0  0  0  0  0  0
    6.5073   -2.5655   -0.4243 C   0  0  2  0  0  0  0  0  0  0  0  0
    7.3095   -2.4099   -1.7087 C   0  0  0  0  0  0  0  0  0  0  0  0
    7.0196   -3.4574   -2.5255 O   0  0  0  0  0  0  0  0  0  0  0  0
    7.1366   -3.5952    0.5142 C   0  0  0  0  0  0  0  0  0  0  0  0
    8.3529   -3.6530    0.7425 O   0  0  0  0  0  0  0  0  0  0  0  0
    6.0936   -4.5513    1.1530 C   0  0  1  0  0  0  0  0  0  0  0  0
    6.3078   -6.0276    0.6109 C   0  0  0  0  0  0  0  0  0  0  0  0
    5.3109   -7.0978    1.1081 C   0  0  0  0  0  0  0  0  0  0  0  0
    7.7395   -6.6132    0.8201 C   0  0  0  0  0  0  0  0  0  0  0  0
    6.1420   -4.5296    2.7186 C   0  0  0  0  0  0  0  0  0  0  0  0
    4.8863   -5.0093    3.4690 C   0  0  0  0  0  0  0  0  0  0  0  0
    3.6055   -4.3316    2.9194 C   0  0  1  0  0  0  0  0  0  0  0  0
    2.7442   -3.8034    4.0702 C   0  0  0  0  0  0  0  0  0  0  0  0
    3.3565   -2.7492    4.9953 C   0  0  0  0  0  0  0  0  0  0  0  0
    1.6165   -4.2525    4.2751 O   0  0  0  0  0  0  0  0  0  0  0  0
    3.9636   -3.2442    1.8585 C   0  0  1  0  0  0  0  0  0  0  0  0
    4.7590   -3.8881    0.6944 C   0  0  1  0  0  0  0  0  0  0  0  0
    3.7030    0.9829    0.7550 H   0  0  0  0  0  0  0  0  0  0  0  0
    2.3116    0.2824    1.7653 H   0  0  0  0  0  0  0  0  0  0  0  0
    2.1448   -2.0906    1.9949 H   0  0  0  0  0  0  0  0  0  0  0  0
    1.9507   -4.1629    0.3429 H   0  0  0  0  0  0  0  0  0  0  0  0
    1.2301   -2.6651    0.0888 H   0  0  0  0  0  0  0  0  0  0  0  0
    1.9497   -3.5460   -2.0084 H   0  0  0  0  0  0  0  0  0  0  0  0
    2.4907   -1.9479   -1.6948 H   0  0  0  0  0  0  0  0  0  0  0  0
    4.1452   -4.4472   -1.7103 H   0  0  0  0  0  0  0  0  0  0  0  0
    4.5255   -1.7844   -3.1551 H   0  0  0  0  0  0  0  0  0  0  0  0
    3.4509   -3.0502   -3.7421 H   0  0  0  0  0  0  0  0  0  0  0  0
    5.1154   -3.3968   -3.6393 H   0  0  0  0  0  0  0  0  0  0  0  0
    4.5633   -0.7919   -1.1146 H   0  0  0  0  0  0  0  0  0  0  0  0
    6.5832   -0.3688   -0.2868 H   0  0  0  0  0  0  0  0  0  0  0  0
    6.9971   -0.2543    1.6869 H   0  0  0  0  0  0  0  0  0  0  0  0
    6.9941   -1.5309   -2.2798 H   0  0  0  0  0  0  0  0  0  0  0  0
    8.4034   -2.3745   -1.5534 H   0  0  0  0  0  0  0  0  0  0  0  0
    7.6084   -3.3666   -3.2856 H   0  0  0  0  0  0  0  0  0  0  0  0
    6.1516   -5.9093   -0.4662 H   0  0  0  0  0  0  0  0  0  0  0  0
    5.3584   -7.2445    2.1761 H   0  0  0  0  0  0  0  0  0  0  0  0
    5.5358   -8.0625    0.6432 H   0  0  0  0  0  0  0  0  0  0  0  0
    4.2925   -6.8646    0.8140 H   0  0  0  0  0  0  0  0  0  0  0  0
    7.9843   -6.7626    1.8751 H   0  0  0  0  0  0  0  0  0  0  0  0
    8.5436   -6.0352    0.3639 H   0  0  0  0  0  0  0  0  0  0  0  0
    7.8254   -7.6041    0.3747 H   0  0  0  0  0  0  0  0  0  0  0  0
    7.0252   -5.0455    3.0680 H   0  0  0  0  0  0  0  0  0  0  0  0
    6.2141   -3.4830    3.0219 H   0  0  0  0  0  0  0  0  0  0  0  0
    4.7495   -6.0833    3.4879 H   0  0  0  0  0  0  0  0  0  0  0  0
    5.0749   -4.7246    4.5093 H   0  0  0  0  0  0  0  0  0  0  0  0
    3.0243   -5.0945    2.4086 H   0  0  0  0  0  0  0  0  0  0  0  0
    4.2706   -3.1133    5.4661 H   0  0  0  0  0  0  0  0  0  0  0  0
    2.6629   -2.4903    5.7936 H   0  0  0  0  0  0  0  0  0  0  0  0
    3.6081   -1.8529    4.4288 H   0  0  0  0  0  0  0  0  0  0  0  0
    4.5558   -2.5028    2.3919 H   0  0  0  0  0  0  0  0  0  0  0  0
    4.1492   -4.7201    0.3580 H   0  0  0  0  0  0  0  0  0  0  0  0
  1  2  2  0
  1 29  1  0
  1 30  1  0
  2  9  1  0
  2  3  1  0
  3 27  1  0
  3  4  1  0
  3 31  1  1
  4  5  1  0
  4 32  1  0
  4 33  1  0
  5  6  1  0
  5 34  1  0
  5 35  1  0
  6  7  1  0
  6  8  1  0
  6 36  1  6
  7 37  1  0
  7 38  1  0
  7 39  1  0
  8 12  1  6
  8 28  1  0
  8  9  1  0
  9 10  1  0
  9 40  1  6
 10 11  1  0
 10 12  1  0
 10 41  1  6
 11 42  1  0
 12 13  1  6
 12 15  1  0
 13 14  1  0
 13 43  1  0
 13 44  1  0
 14 45  1  0
 15 16  2  0
 15 17  1  0
 17 28  1  0
 17 18  1  6
 17 21  1  0
 18 19  1  0
 18 20  1  0
 18 46  1  0
 19 47  1  0
 19 48  1  0
 19 49  1  0
 20 50  1  0
 20 51  1  0
 20 52  1  0
 21 22  1  0
 21 53  1  0
 21 54  1  0
 22 23  1  0
 22 55  1  0
 22 56  1  0
 23 24  1  0
 23 27  1  0
 23 57  1  6
 24 25  1  0
 24 26  2  0
 25 58  1  0
 25 59  1  0
 25 60  1  0
 27 28  1  0
 27 61  1  1
 28 62  1  6
M  END
>  <i_m_ct_stereo_status>  (287) 
1

>  <s_m_source_file>  (287) 
/var/tmp/pbs.5076255.sched01/tmpthapbt4w/86pc0xbys0.sdf

>  <i_m_source_file_index>  (287) 
41

>  <i_lp_mmshare_version>  (287) 
48012

>  <i_f3d_flags>  (287) 
0

>  <s_epik_input>  (287) 
W0NIM11bQ0BASF0xW0NIMl1bQ0gyXVtDQEhdKEMoPVtDSDJdKVtDQEBIXTJbQ0BAXTEzNClbQ0BASF01W0NAQEhdNFtDQEBdKFtDSF0oW0NIM10pW0NIM10pKEMoPU8pW0NAQF0zKFtDQEBIXTJbT0hdKVtDSDJdW09IXSlbQ0gyXVtDSDJdW0NASF01Qyg9TylbQ0gzXQ==

>  <s_epik_cmdline>  (287) 
J2VwaWtfcHl0aG9uJywgJy1waHQnLCAnMi4wJywgJy1waCcsICc3LjAnLCAnLXRuJywgJzgnLCAnLW1hJywgJzIwMCcsICctaW1hZScsICc8aW5maWxlLm1hZT4nLCAnLW9tYWUnLCAnPG91dGZpbGUubWFlPic=

>  <r_lp_tautomer_probability>  (287) 
1

>  <r_epik_Ionization_Penalty>  (287) 
2.16193e-07

>  <r_epik_Ionization_Penalty_Charging>  (287) 
0

>  <r_epik_Ionization_Penalty_Neutral>  (287) 
2.16193e-07

>  <r_epik_State_Penalty>  (287) 
-0

>  <r_epik_Charging_Adjusted_Penalty>  (287) 
0

>  <i_epik_Tot_Q>  (287) 
0

>  <i_epik_Tot_abs_Q>  (287) 
0

>  <s_lp_Force_Field>  (287) 
OPLS3e

>  <r_lp_Energy>  (287) 
60.3075

>  <b_lp_Chiralities_Consistent>  (287) 
1

>  <s_lp_Variant>  (287) 
84:0-1

>  <s_i_glide_gridfile>  (287) 
pfpi4k_grid

>  <i_i_glide_lignum>  (287) 
41

>  <i_i_glide_rotatable_bonds>  (287) 
5

>  <r_i_docking_score>  (287) 
-1.85154

>  <r_i_glide_ligand_efficiency>  (287) 
-0.0661264

>  <r_i_glide_ligand_efficiency_sa>  (287) 
-0.200799

>  <r_i_glide_ligand_efficiency_ln>  (287) 
-0.427389

>  <r_i_glide_gscore>  (287) 
-1.85154

>  <r_i_glide_lipo>  (287) 
-0.448167

>  <r_i_glide_hbond>  (287) 
-0.302248

>  <r_i_glide_metal>  (287) 
-0

>  <r_i_glide_rewards>  (287) 
-0.949425

>  <r_i_glide_evdw>  (287) 
-2.88379

>  <r_i_glide_ecoul>  (287) 
-5.95123

>  <r_i_glide_erotb>  (287) 
0.130282

>  <r_i_glide_esite>  (287) 
0

>  <r_i_glide_emodel>  (287) 
1.78095

>  <r_i_glide_energy>  (287) 
-8.83502

>  <r_i_glide_einternal>  (287) 
9.82124

>  <r_i_glide_intrahb_reward>  (287) 
-0

>  <i_i_glide_confnum>  (287) 
2

>  <i_i_glide_posenum>  (287) 
13

>  <r_i_glide_eff_state_penalty>  (287) 
0

>  <ligand_id>  (287) 
84

>  <original_smiles>  (287) 
C=C1C2CCC(C)C34C1C(O)C3(CO)C(=O)C1(C(C)C)CCC(C(C)=O)C2C14

>  <smiles>  (287) 
[H]OC([H])([H])C12C(=O)C3(C([H])(C([H])([H])[H])C([H])([H])[H])C([H])([H])C([H])([H])C([H])(C(=O)C([H])([H])[H])C4([H])C5([H])C(=C([H])[H])C([H])(C1([H])O[H])C2(C([H])(C([H])([H])[H])C([H])([H])C5([H])[H])C43[H]

$$$$
84:0:2
     RDKit          3D

 62 66  0  0  1  0  0  0  0  0999 V2000
    7.2870   -5.7121    3.4068 C   0  0  0  0  0  0  0  0  0  0  0  0
    6.0908   -5.9437    2.8331 C   0  0  0  0  0  0  0  0  0  0  0  0
    5.7766   -5.4390    1.4461 C   0  0  1  0  0  0  0  0  0  0  0  0
    5.8495   -6.6232    0.4705 C   0  0  0  0  0  0  0  0  0  0  0  0
    5.4960   -8.0765    0.9267 C   0  0  0  0  0  0  0  0  0  0  0  0
    4.1201   -8.2795    1.6012 C   0  0  1  0  0  0  0  0  0  0  0  0
    4.1394   -9.6748    2.2207 C   0  0  0  0  0  0  0  0  0  0  0  0
    3.8234   -7.0705    2.5243 C   0  0  2  0  0  0  0  0  0  0  0  0
    5.0290   -6.8368    3.4573 C   0  0  2  0  0  0  0  0  0  0  0  0
    4.0786   -6.3470    4.5368 C   0  0  1  0  0  0  0  0  0  0  0  0
    4.0862   -4.9542    4.8227 O   0  0  0  0  0  0  0  0  0  0  0  0
    2.8975   -7.0091    3.7691 C   0  0  2  0  0  0  0  0  0  0  0  0
    2.3749   -8.3291    4.3738 C   0  0  0  0  0  0  0  0  0  0  0  0
    1.7527   -8.1464    5.6277 O   0  0  0  0  0  0  0  0  0  0  0  0
    1.7847   -6.0416    3.4113 C   0  0  0  0  0  0  0  0  0  0  0  0
    0.7755   -5.7739    4.0756 O   0  0  0  0  0  0  0  0  0  0  0  0
    1.9776   -5.4087    2.0241 C   0  0  1  0  0  0  0  0  0  0  0  0
    0.8413   -5.9740    1.1164 C   0  0  0  0  0  0  0  0  0  0  0  0
    0.4526   -7.4735    1.2203 C   0  0  0  0  0  0  0  0  0  0  0  0
    1.0442   -5.6321   -0.3670 C   0  0  0  0  0  0  0  0  0  0  0  0
    1.9802   -3.8410    2.1116 C   0  0  0  0  0  0  0  0  0  0  0  0
    2.5926   -3.1306    0.8608 C   0  0  0  0  0  0  0  0  0  0  0  0
    3.9533   -3.7493    0.4106 C   0  0  1  0  0  0  0  0  0  0  0  0
    4.9741   -2.6226    0.1766 C   0  0  0  0  0  0  0  0  0  0  0  0
    5.3174   -1.7306    1.3681 C   0  0  0  0  0  0  0  0  0  0  0  0
    5.4662   -2.4115   -0.9352 O   0  0  0  0  0  0  0  0  0  0  0  0
    4.4005   -4.7873    1.4824 C   0  0  1  0  0  0  0  0  0  0  0  0
    3.3662   -5.9166    1.5896 C   0  0  1  0  0  0  0  0  0  0  0  0
    7.4631   -6.0769    4.4015 H   0  0  0  0  0  0  0  0  0  0  0  0
    8.0079   -5.0771    2.9014 H   0  0  0  0  0  0  0  0  0  0  0  0
    6.5039   -4.6884    1.1370 H   0  0  0  0  0  0  0  0  0  0  0  0
    5.3192   -6.3449   -0.4441 H   0  0  0  0  0  0  0  0  0  0  0  0
    6.9034   -6.6455    0.2260 H   0  0  0  0  0  0  0  0  0  0  0  0
    5.5379   -8.7720    0.0773 H   0  0  0  0  0  0  0  0  0  0  0  0
    6.3002   -8.3702    1.6162 H   0  0  0  0  0  0  0  0  0  0  0  0
    3.4046   -8.3331    0.7882 H   0  0  0  0  0  0  0  0  0  0  0  0
    4.7927   -9.7404    3.0913 H   0  0  0  0  0  0  0  0  0  0  0  0
    4.5683  -10.3522    1.4897 H   0  0  0  0  0  0  0  0  0  0  0  0
    3.1385  -10.0399    2.4500 H   0  0  0  0  0  0  0  0  0  0  0  0
    5.4972   -7.7705    3.7619 H   0  0  0  0  0  0  0  0  0  0  0  0
    4.3066   -6.8923    5.4500 H   0  0  0  0  0  0  0  0  0  0  0  0
    3.9881   -4.4903    4.0074 H   0  0  0  0  0  0  0  0  0  0  0  0
    1.6808   -8.8217    3.6941 H   0  0  0  0  0  0  0  0  0  0  0  0
    3.1952   -9.0230    4.5529 H   0  0  0  0  0  0  0  0  0  0  0  0
    0.8819   -7.8157    5.4782 H   0  0  0  0  0  0  0  0  0  0  0  0
   -0.0640   -5.5975    1.5691 H   0  0  0  0  0  0  0  0  0  0  0  0
    1.2855   -8.1478    1.0428 H   0  0  0  0  0  0  0  0  0  0  0  0
   -0.3181   -7.7222    0.4861 H   0  0  0  0  0  0  0  0  0  0  0  0
   -0.0070   -7.7373    2.1783 H   0  0  0  0  0  0  0  0  0  0  0  0
    1.8208   -6.2414   -0.7907 H   0  0  0  0  0  0  0  0  0  0  0  0
    1.1000   -4.5972   -0.7050 H   0  0  0  0  0  0  0  0  0  0  0  0
    0.1691   -5.9356   -0.8396 H   0  0  0  0  0  0  0  0  0  0  0  0
    1.0237   -3.4493    2.3805 H   0  0  0  0  0  0  0  0  0  0  0  0
    2.5766   -3.5756    2.9816 H   0  0  0  0  0  0  0  0  0  0  0  0
    1.9480   -3.0744   -0.0181 H   0  0  0  0  0  0  0  0  0  0  0  0
    2.6864   -2.0749    1.0957 H   0  0  0  0  0  0  0  0  0  0  0  0
    3.8298   -4.2598   -0.5536 H   0  0  0  0  0  0  0  0  0  0  0  0
    4.4278   -1.2409    1.7686 H   0  0  0  0  0  0  0  0  0  0  0  0
    6.0160   -0.9492    1.0716 H   0  0  0  0  0  0  0  0  0  0  0  0
    5.7606   -2.3226    2.1692 H   0  0  0  0  0  0  0  0  0  0  0  0
    4.4350   -4.2218    2.4044 H   0  0  0  0  0  0  0  0  0  0  0  0
    3.2932   -6.3061    0.5764 H   0  0  0  0  0  0  0  0  0  0  0  0
  1  2  2  0
  1 29  1  0
  1 30  1  0
  2  9  1  0
  2  3  1  0
  3 27  1  0
  3  4  1  0
  3 31  1  6
  4  5  1  0
  4 32  1  0
  4 33  1  0
  5  6  1  0
  5 34  1  0
  5 35  1  0
  6  7  1  0
  6  8  1  0
  6 36  1  6
  7 37  1  0
  7 38  1  0
  7 39  1  0
  8 12  1  1
  8 28  1  0
  8  9  1  0
  9 10  1  0
  9 40  1  1
 10 11  1  0
 10 12  1  0
 10 41  1  1
 11 42  1  0
 12 13  1  1
 12 15  1  0
 13 14  1  0
 13 43  1  0
 13 44  1  0
 14 45  1  0
 15 16  2  0
 15 17  1  0
 17 28  1  0
 17 18  1  6
 17 21  1  0
 18 19  1  0
 18 20  1  0
 18 46  1  0
 19 47  1  0
 19 48  1  0
 19 49  1  0
 20 50  1  0
 20 51  1  0
 20 52  1  0
 21 22  1  0
 21 53  1  0
 21 54  1  0
 22 23  1  0
 22 55  1  0
 22 56  1  0
 23 24  1  0
 23 27  1  0
 23 57  1  6
 24 25  1  0
 24 26  2  0
 25 58  1  0
 25 59  1  0
 25 60  1  0
 27 28  1  0
 27 61  1  1
 28 62  1  6
M  END
>  <i_m_ct_stereo_status>  (288) 
1

>  <s_m_source_file>  (288) 
/var/tmp/pbs.5076255.sched01/tmpthapbt4w/86pc0xbys0.sdf

>  <i_m_source_file_index>  (288) 
41

>  <i_lp_mmshare_version>  (288) 
48012

>  <i_f3d_flags>  (288) 
0

>  <s_epik_input>  (288) 
W0NIM11bQ0BASF0xW0NIMl1bQ0gyXVtDQEhdKEMoPVtDSDJdKVtDQEBIXTJbQ0BAXTEzNClbQ0BASF01W0NAQEhdNFtDQEBdKFtDSF0oW0NIM10pW0NIM10pKEMoPU8pW0NAQF0zKFtDQEBIXTJbT0hdKVtDSDJdW09IXSlbQ0gyXVtDSDJdW0NASF01Qyg9TylbQ0gzXQ==

>  <s_epik_cmdline>  (288) 
J2VwaWtfcHl0aG9uJywgJy1waHQnLCAnMi4wJywgJy1waCcsICc3LjAnLCAnLXRuJywgJzgnLCAnLW1hJywgJzIwMCcsICctaW1hZScsICc8aW5maWxlLm1hZT4nLCAnLW9tYWUnLCAnPG91dGZpbGUubWFlPic=

>  <r_lp_tautomer_probability>  (288) 
1

>  <r_epik_Ionization_Penalty>  (288) 
2.16193e-07

>  <r_epik_Ionization_Penalty_Charging>  (288) 
0

>  <r_epik_Ionization_Penalty_Neutral>  (288) 
2.16193e-07

>  <r_epik_State_Penalty>  (288) 
-0

>  <r_epik_Charging_Adjusted_Penalty>  (288) 
0

>  <i_epik_Tot_Q>  (288) 
0

>  <i_epik_Tot_abs_Q>  (288) 
0

>  <s_lp_Force_Field>  (288) 
OPLS3e

>  <r_lp_Energy>  (288) 
60.3075

>  <b_lp_Chiralities_Consistent>  (288) 
1

>  <s_lp_Variant>  (288) 
84:0-1

>  <s_i_glide_gridfile>  (288) 
pfpi4k_grid

>  <i_i_glide_lignum>  (288) 
41

>  <i_i_glide_rotatable_bonds>  (288) 
5

>  <r_i_docking_score>  (288) 
-1.32479

>  <r_i_glide_ligand_efficiency>  (288) 
-0.0473139

>  <r_i_glide_ligand_efficiency_sa>  (288) 
-0.143673

>  <r_i_glide_ligand_efficiency_ln>  (288) 
-0.3058

>  <r_i_glide_gscore>  (288) 
-1.32479

>  <r_i_glide_lipo>  (288) 
-0.324983

>  <r_i_glide_hbond>  (288) 
0

>  <r_i_glide_metal>  (288) 
-0

>  <r_i_glide_rewards>  (288) 
-0.790429

>  <r_i_glide_evdw>  (288) 
-2.75848

>  <r_i_glide_ecoul>  (288) 
-1.29138

>  <r_i_glide_erotb>  (288) 
0.130282

>  <r_i_glide_esite>  (288) 
-0.00802867

>  <r_i_glide_emodel>  (288) 
0.211645

>  <r_i_glide_energy>  (288) 
-4.04986

>  <r_i_glide_einternal>  (288) 
4.95929

>  <r_i_glide_intrahb_reward>  (288) 
-0

>  <i_i_glide_confnum>  (288) 
1

>  <i_i_glide_posenum>  (288) 
5

>  <r_i_glide_eff_state_penalty>  (288) 
0

>  <ligand_id>  (288) 
84

>  <original_smiles>  (288) 
C=C1C2CCC(C)C34C1C(O)C3(CO)C(=O)C1(C(C)C)CCC(C(C)=O)C2C14

>  <smiles>  (288) 
[H]OC([H])([H])C12C(=O)C3(C([H])(C([H])([H])[H])C([H])([H])[H])C([H])([H])C([H])([H])C([H])(C(=O)C([H])([H])[H])C4([H])C5([H])C(=C([H])[H])C([H])(C1([H])O[H])C2(C([H])(C([H])([H])[H])C([H])([H])C5([H])[H])C43[H]

$$$$
85:0:0
     RDKit          3D

 41 43  0  0  1  0  0  0  0  0999 V2000
    4.0484   -0.8473    3.7554 C   0  0  0  0  0  0  0  0  0  0  0  0
    4.7127   -0.4364    2.6664 C   0  0  0  0  0  0  0  0  0  0  0  0
    4.8273   -1.1601    1.4127 C   0  0  0  0  0  0  0  0  0  0  0  0
    5.5463   -0.6667    0.3984 C   0  0  0  0  0  0  0  0  0  0  0  0
    5.6927   -1.4743   -0.9005 C   0  0  2  0  0  0  0  0  0  0  0  0
    4.2852   -1.9832   -1.4177 C   0  0  1  0  0  0  0  0  0  0  0  0
    3.6434   -0.9788   -2.3731 C   0  0  0  0  0  0  0  0  0  0  0  0
    4.2163   -0.5393   -3.4201 N   0  0  0  0  0  0  0  0  0  0  0  0
    3.3386    0.3889   -4.0753 O   0  0  0  0  0  0  0  0  0  0  0  0
    4.3605   -3.3065   -2.1773 C   0  0  0  0  0  0  0  0  0  0  0  0
    4.9518   -4.3976   -1.3020 C   0  0  0  0  0  0  0  0  0  0  0  0
    5.8762   -3.8982   -0.1746 C   0  0  2  0  0  0  0  0  0  0  0  0
    5.0359   -3.6756    1.1197 C   0  0  0  0  0  0  0  0  0  0  0  0
    4.0849   -2.4587    1.1080 C   0  0  2  0  0  0  0  0  0  0  0  0
    3.3584   -2.2445   -0.2107 C   0  0  0  0  0  0  0  0  0  0  0  0
    6.6994   -2.6553   -0.6285 C   0  0  0  0  0  0  0  0  0  0  0  0
    7.5623   -2.9705   -1.8670 C   0  0  0  0  0  0  0  0  0  0  0  0
    7.7846   -2.3378    0.4337 C   0  0  0  0  0  0  0  0  0  0  0  0
    3.5284   -1.7970    3.8052 H   0  0  0  0  0  0  0  0  0  0  0  0
    4.0117   -0.2325    4.6440 H   0  0  0  0  0  0  0  0  0  0  0  0
    5.1994    0.5308    2.7499 H   0  0  0  0  0  0  0  0  0  0  0  0
    6.1091    0.2602    0.4774 H   0  0  0  0  0  0  0  0  0  0  0  0
    6.1275   -0.8212   -1.6540 H   0  0  0  0  0  0  0  0  0  0  0  0
    2.6147   -0.6912   -2.1281 H   0  0  0  0  0  0  0  0  0  0  0  0
    2.8486    0.7783   -3.3495 H   0  0  0  0  0  0  0  0  0  0  0  0
    3.3690   -3.6192   -2.5052 H   0  0  0  0  0  0  0  0  0  0  0  0
    4.9229   -3.1907   -3.1021 H   0  0  0  0  0  0  0  0  0  0  0  0
    4.1714   -5.0289   -0.8825 H   0  0  0  0  0  0  0  0  0  0  0  0
    5.4223   -5.0445   -2.0083 H   0  0  0  0  0  0  0  0  0  0  0  0
    6.5755   -4.7054    0.0591 H   0  0  0  0  0  0  0  0  0  0  0  0
    4.4261   -4.5655    1.2833 H   0  0  0  0  0  0  0  0  0  0  0  0
    5.6859   -3.6111    1.9973 H   0  0  0  0  0  0  0  0  0  0  0  0
    3.2931   -2.6404    1.8251 H   0  0  0  0  0  0  0  0  0  0  0  0
    2.7813   -1.3466   -0.0145 H   0  0  0  0  0  0  0  0  0  0  0  0
    2.6451   -3.0450   -0.4025 H   0  0  0  0  0  0  0  0  0  0  0  0
    8.1787   -3.8571   -1.7175 H   0  0  0  0  0  0  0  0  0  0  0  0
    8.2580   -2.1614   -2.1026 H   0  0  0  0  0  0  0  0  0  0  0  0
    6.9684   -3.1300   -2.7580 H   0  0  0  0  0  0  0  0  0  0  0  0
    8.4882   -3.1718    0.5443 H   0  0  0  0  0  0  0  0  0  0  0  0
    7.3340   -2.1831    1.4112 H   0  0  0  0  0  0  0  0  0  0  0  0
    8.3702   -1.4428    0.1914 H   0  0  0  0  0  0  0  0  0  0  0  0
  1  2  2  0
  1 19  1  0
  1 20  1  0
  2  3  1  0
  2 21  1  0
  3 14  1  0
  3  4  2  0
  4  5  1  0
  4 22  1  0
  5 16  1  0
  5  6  1  0
  5 23  1  6
  6 15  1  0
  6  7  1  6
  6 10  1  0
  7  8  2  3
  7 24  1  0
  8  9  1  0
  9 25  1  0
 10 11  1  0
 10 26  1  0
 10 27  1  0
 11 12  1  0
 11 28  1  0
 11 29  1  0
 12 13  1  0
 12 16  1  0
 12 30  1  1
 13 14  1  0
 13 31  1  0
 13 32  1  0
 14 15  1  0
 14 33  1  1
 15 34  1  0
 15 35  1  0
 16 17  1  0
 16 18  1  0
 17 36  1  0
 17 37  1  0
 17 38  1  0
 18 39  1  0
 18 40  1  0
 18 41  1  0
M  END
>  <i_m_ct_stereo_status>  (289) 
1

>  <s_m_source_file>  (289) 
/var/tmp/pbs.5076255.sched01/tmpthapbt4w/86pc0xbys0.sdf

>  <i_m_source_file_index>  (289) 
42

>  <i_lp_mmshare_version>  (289) 
48012

>  <i_f3d_flags>  (289) 
0

>  <s_epik_input>  (289) 
W0NIMl0xW0NIMl1bQ0BASF0oQzIoW0NIM10pW0NIM10pW0NIMl1bQ0BIXShbQ0gyXTMpQyhbQ0hdPVtDSDJdKT1bQ0hdW0NAQEhdMltDQEBdMTMvW0NIXT1OL1tPSF0=

>  <s_epik_cmdline>  (289) 
J2VwaWtfcHl0aG9uJywgJy1waHQnLCAnMi4wJywgJy1waCcsICc3LjAnLCAnLXRuJywgJzgnLCAnLW1hJywgJzIwMCcsICctaW1hZScsICc8aW5maWxlLm1hZT4nLCAnLW9tYWUnLCAnPG91dGZpbGUubWFlPic=

>  <r_lp_tautomer_probability>  (289) 
1

>  <r_epik_Ionization_Penalty>  (289) 
1.31691e-06

>  <r_epik_Ionization_Penalty_Charging>  (289) 
0

>  <r_epik_Ionization_Penalty_Neutral>  (289) 
1.31691e-06

>  <r_epik_State_Penalty>  (289) 
-0

>  <r_epik_Charging_Adjusted_Penalty>  (289) 
0

>  <i_epik_Tot_Q>  (289) 
0

>  <i_epik_Tot_abs_Q>  (289) 
0

>  <s_epik_Chemistry_Notes>  (289) 
This compound has an imine and may undergo hydrolysis.

>  <s_lp_Force_Field>  (289) 
OPLS3e

>  <r_lp_Energy>  (289) 
56.2982

>  <b_lp_Chiralities_Consistent>  (289) 
1

>  <s_lp_Variant>  (289) 
85:0-1

>  <s_i_glide_gridfile>  (289) 
pfpi4k_grid

>  <i_i_glide_lignum>  (289) 
42

>  <i_i_glide_rotatable_bonds>  (289) 
3

>  <r_i_docking_score>  (289) 
-3.54405

>  <r_i_glide_ligand_efficiency>  (289) 
-0.196892

>  <r_i_glide_ligand_efficiency_sa>  (289) 
-0.516002

>  <r_i_glide_ligand_efficiency_ln>  (289) 
-0.91098

>  <r_i_glide_gscore>  (289) 
-3.54405

>  <r_i_glide_lipo>  (289) 
-0.616738

>  <r_i_glide_hbond>  (289) 
-0.275979

>  <r_i_glide_metal>  (289) 
-0

>  <r_i_glide_rewards>  (289) 
-1.73618

>  <r_i_glide_evdw>  (289) 
-18.3669

>  <r_i_glide_ecoul>  (289) 
-5.3817

>  <r_i_glide_erotb>  (289) 
0.867385

>  <r_i_glide_esite>  (289) 
-0.0569358

>  <r_i_glide_emodel>  (289) 
-28.5871

>  <r_i_glide_energy>  (289) 
-23.7486

>  <r_i_glide_einternal>  (289) 
0.743892

>  <r_i_glide_intrahb_reward>  (289) 
-0

>  <i_i_glide_confnum>  (289) 
2

>  <i_i_glide_posenum>  (289) 
3

>  <r_i_glide_eff_state_penalty>  (289) 
0

>  <ligand_id>  (289) 
85

>  <original_smiles>  (289) 
C=CC1=CC2C3(C=NO)CCC(CC1C3)C2(C)C

>  <smiles>  (289) 
[H]ON=C([H])C12C([H])([H])C([H])([H])C3([H])C([H])([H])C([H])(C(C([H])=C([H])[H])=C([H])C1([H])C3(C([H])([H])[H])C([H])([H])[H])C2([H])[H]

$$$$
85:0:1
     RDKit          3D

 41 43  0  0  1  0  0  0  0  0999 V2000
    0.9303   -5.8698    7.8559 C   0  0  0  0  0  0  0  0  0  0  0  0
    1.5420   -5.8879    6.6563 C   0  0  0  0  0  0  0  0  0  0  0  0
    1.4869   -6.9945    5.7060 C   0  0  0  0  0  0  0  0  0  0  0  0
    2.2476   -6.9938    4.5963 C   0  0  0  0  0  0  0  0  0  0  0  0
    2.2226   -8.2090    3.6668 C   0  0  2  0  0  0  0  0  0  0  0  0
    0.7132   -8.6035    3.3293 C   0  0  1  0  0  0  0  0  0  0  0  0
    0.1984   -7.8482    2.0927 C   0  0  0  0  0  0  0  0  0  0  0  0
    0.4661   -6.6401    1.8096 N   0  0  0  0  0  0  0  0  0  0  0  0
   -0.1805   -6.3251    0.5784 O   0  0  0  0  0  0  0  0  0  0  0  0
    0.5700  -10.1210    3.0483 C   0  0  0  0  0  0  0  0  0  0  0  0
    1.0640  -10.9925    4.2182 C   0  0  0  0  0  0  0  0  0  0  0  0
    2.0442  -10.2505    5.1542 C   0  0  2  0  0  0  0  0  0  0  0  0
    1.2761   -9.4693    6.2672 C   0  0  0  0  0  0  0  0  0  0  0  0
    0.5385   -8.1736    5.8475 C   0  0  2  0  0  0  0  0  0  0  0  0
   -0.2337   -8.2995    4.5294 C   0  0  0  0  0  0  0  0  0  0  0  0
    3.0450   -9.3798    4.3366 C   0  0  0  0  0  0  0  0  0  0  0  0
    3.7859  -10.2256    3.2625 C   0  0  0  0  0  0  0  0  0  0  0  0
    4.1944   -8.8992    5.2721 C   0  0  0  0  0  0  0  0  0  0  0  0
    0.3514   -6.7056    8.2201 H   0  0  0  0  0  0  0  0  0  0  0  0
    1.0075   -5.0068    8.5032 H   0  0  0  0  0  0  0  0  0  0  0  0
    2.1091   -5.0124    6.3810 H   0  0  0  0  0  0  0  0  0  0  0  0
    2.9454   -6.2005    4.3761 H   0  0  0  0  0  0  0  0  0  0  0  0
    2.7387   -7.9116    2.7519 H   0  0  0  0  0  0  0  0  0  0  0  0
   -0.4724   -8.4389    1.4608 H   0  0  0  0  0  0  0  0  0  0  0  0
   -0.4807   -7.1795    0.2915 H   0  0  0  0  0  0  0  0  0  0  0  0
   -0.4723  -10.3748    2.8480 H   0  0  0  0  0  0  0  0  0  0  0  0
    1.0944  -10.3780    2.1294 H   0  0  0  0  0  0  0  0  0  0  0  0
    0.2155  -11.3607    4.7967 H   0  0  0  0  0  0  0  0  0  0  0  0
    1.5433  -11.8842    3.8155 H   0  0  0  0  0  0  0  0  0  0  0  0
    2.6109  -11.0260    5.6768 H   0  0  0  0  0  0  0  0  0  0  0  0
    0.5498  -10.1462    6.7178 H   0  0  0  0  0  0  0  0  0  0  0  0
    1.9596   -9.2294    7.0807 H   0  0  0  0  0  0  0  0  0  0  0  0
   -0.1894   -7.9593    6.6201 H   0  0  0  0  0  0  0  0  0  0  0  0
   -0.7555   -7.3536    4.3727 H   0  0  0  0  0  0  0  0  0  0  0  0
   -1.0211   -9.0465    4.6259 H   0  0  0  0  0  0  0  0  0  0  0  0
    4.2281  -11.1199    3.7058 H   0  0  0  0  0  0  0  0  0  0  0  0
    4.5958   -9.6582    2.8019 H   0  0  0  0  0  0  0  0  0  0  0  0
    3.1546  -10.5648    2.4447 H   0  0  0  0  0  0  0  0  0  0  0  0
    4.7710   -9.7479    5.6457 H   0  0  0  0  0  0  0  0  0  0  0  0
    3.8445   -8.3646    6.1567 H   0  0  0  0  0  0  0  0  0  0  0  0
    4.8888   -8.2407    4.7471 H   0  0  0  0  0  0  0  0  0  0  0  0
  1  2  2  0
  1 19  1  0
  1 20  1  0
  2  3  1  0
  2 21  1  0
  3 14  1  0
  3  4  2  0
  4  5  1  0
  4 22  1  0
  5 16  1  0
  5  6  1  0
  5 23  1  6
  6 15  1  0
  6  7  1  6
  6 10  1  0
  7  8  2  3
  7 24  1  0
  8  9  1  0
  9 25  1  0
 10 11  1  0
 10 26  1  0
 10 27  1  0
 11 12  1  0
 11 28  1  0
 11 29  1  0
 12 13  1  0
 12 16  1  0
 12 30  1  1
 13 14  1  0
 13 31  1  0
 13 32  1  0
 14 15  1  0
 14 33  1  1
 15 34  1  0
 15 35  1  0
 16 17  1  0
 16 18  1  0
 17 36  1  0
 17 37  1  0
 17 38  1  0
 18 39  1  0
 18 40  1  0
 18 41  1  0
M  END
>  <i_m_ct_stereo_status>  (290) 
1

>  <s_m_source_file>  (290) 
/var/tmp/pbs.5076255.sched01/tmpthapbt4w/86pc0xbys0.sdf

>  <i_m_source_file_index>  (290) 
42

>  <i_lp_mmshare_version>  (290) 
48012

>  <i_f3d_flags>  (290) 
0

>  <s_epik_input>  (290) 
W0NIMl0xW0NIMl1bQ0BASF0oQzIoW0NIM10pW0NIM10pW0NIMl1bQ0BIXShbQ0gyXTMpQyhbQ0hdPVtDSDJdKT1bQ0hdW0NAQEhdMltDQEBdMTMvW0NIXT1OL1tPSF0=

>  <s_epik_cmdline>  (290) 
J2VwaWtfcHl0aG9uJywgJy1waHQnLCAnMi4wJywgJy1waCcsICc3LjAnLCAnLXRuJywgJzgnLCAnLW1hJywgJzIwMCcsICctaW1hZScsICc8aW5maWxlLm1hZT4nLCAnLW9tYWUnLCAnPG91dGZpbGUubWFlPic=

>  <r_lp_tautomer_probability>  (290) 
1

>  <r_epik_Ionization_Penalty>  (290) 
1.31691e-06

>  <r_epik_Ionization_Penalty_Charging>  (290) 
0

>  <r_epik_Ionization_Penalty_Neutral>  (290) 
1.31691e-06

>  <r_epik_State_Penalty>  (290) 
-0

>  <r_epik_Charging_Adjusted_Penalty>  (290) 
0

>  <i_epik_Tot_Q>  (290) 
0

>  <i_epik_Tot_abs_Q>  (290) 
0

>  <s_epik_Chemistry_Notes>  (290) 
This compound has an imine and may undergo hydrolysis.

>  <s_lp_Force_Field>  (290) 
OPLS3e

>  <r_lp_Energy>  (290) 
56.2982

>  <b_lp_Chiralities_Consistent>  (290) 
1

>  <s_lp_Variant>  (290) 
85:0-1

>  <s_i_glide_gridfile>  (290) 
pfpi4k_grid

>  <i_i_glide_lignum>  (290) 
42

>  <i_i_glide_rotatable_bonds>  (290) 
3

>  <r_i_docking_score>  (290) 
-3.00276

>  <r_i_glide_ligand_efficiency>  (290) 
-0.16682

>  <r_i_glide_ligand_efficiency_sa>  (290) 
-0.437192

>  <r_i_glide_ligand_efficiency_ln>  (290) 
-0.771844

>  <r_i_glide_gscore>  (290) 
-3.00276

>  <r_i_glide_lipo>  (290) 
-0.116026

>  <r_i_glide_hbond>  (290) 
0

>  <r_i_glide_metal>  (290) 
-0

>  <r_i_glide_rewards>  (290) 
-1.73618

>  <r_i_glide_evdw>  (290) 
-17.701

>  <r_i_glide_ecoul>  (290) 
-5.81174

>  <r_i_glide_erotb>  (290) 
0.867385

>  <r_i_glide_esite>  (290) 
-0.261127

>  <r_i_glide_emodel>  (290) 
-28.5636

>  <r_i_glide_energy>  (290) 
-23.5128

>  <r_i_glide_einternal>  (290) 
0.0824755

>  <r_i_glide_intrahb_reward>  (290) 
-0

>  <i_i_glide_confnum>  (290) 
3

>  <i_i_glide_posenum>  (290) 
22

>  <r_i_glide_eff_state_penalty>  (290) 
0

>  <ligand_id>  (290) 
85

>  <original_smiles>  (290) 
C=CC1=CC2C3(C=NO)CCC(CC1C3)C2(C)C

>  <smiles>  (290) 
[H]ON=C([H])C12C([H])([H])C([H])([H])C3([H])C([H])([H])C([H])(C(C([H])=C([H])[H])=C([H])C1([H])C3(C([H])([H])[H])C([H])([H])[H])C2([H])[H]

$$$$
85:0:2
     RDKit          3D

 41 43  0  0  1  0  0  0  0  0999 V2000
    0.5401   -6.1296    7.8703 C   0  0  0  0  0  0  0  0  0  0  0  0
    1.5178   -6.1766    6.9483 C   0  0  0  0  0  0  0  0  0  0  0  0
    1.5730   -7.1232    5.8399 C   0  0  0  0  0  0  0  0  0  0  0  0
    2.6623   -7.2096    5.0562 C   0  0  0  0  0  0  0  0  0  0  0  0
    2.7168   -8.2697    3.9542 C   0  0  2  0  0  0  0  0  0  0  0  0
    1.3848   -8.2116    3.0743 C   0  0  1  0  0  0  0  0  0  0  0  0
    1.5405   -7.2284    1.8955 C   0  0  0  0  0  0  0  0  0  0  0  0
    0.5589   -6.6983    1.2846 N   0  0  0  0  0  0  0  0  0  0  0  0
    1.0529   -5.8597    0.2376 O   0  0  0  0  0  0  0  0  0  0  0  0
    1.0393   -9.5986    2.4872 C   0  0  0  0  0  0  0  0  0  0  0  0
    0.8789  -10.6869    3.5640 C   0  0  0  0  0  0  0  0  0  0  0  0
    1.5830  -10.3334    4.8903 C   0  0  2  0  0  0  0  0  0  0  0  0
    0.6541   -9.4949    5.8248 C   0  0  0  0  0  0  0  0  0  0  0  0
    0.4061   -8.0149    5.4419 C   0  0  2  0  0  0  0  0  0  0  0  0
    0.1597   -7.7972    3.9493 C   0  0  0  0  0  0  0  0  0  0  0  0
    2.9719   -9.6818    4.6230 C   0  0  0  0  0  0  0  0  0  0  0  0
    3.8538  -10.5834    3.7114 C   0  0  0  0  0  0  0  0  0  0  0  0
    3.7759   -9.6289    5.9570 C   0  0  0  0  0  0  0  0  0  0  0  0
   -0.2871   -6.8225    7.8675 H   0  0  0  0  0  0  0  0  0  0  0  0
    0.5562   -5.3924    8.6593 H   0  0  0  0  0  0  0  0  0  0  0  0
    2.3147   -5.4518    7.0394 H   0  0  0  0  0  0  0  0  0  0  0  0
    3.5498   -6.6170    5.2310 H   0  0  0  0  0  0  0  0  0  0  0  0
    3.5866   -8.0339    3.3389 H   0  0  0  0  0  0  0  0  0  0  0  0
    2.5793   -7.0240    1.6090 H   0  0  0  0  0  0  0  0  0  0  0  0
    1.9815   -6.0513    0.2313 H   0  0  0  0  0  0  0  0  0  0  0  0
    0.1037   -9.5445    1.9315 H   0  0  0  0  0  0  0  0  0  0  0  0
    1.7866   -9.8902    1.7496 H   0  0  0  0  0  0  0  0  0  0  0  0
   -0.1803  -10.8668    3.7502 H   0  0  0  0  0  0  0  0  0  0  0  0
    1.2654  -11.6294    3.1743 H   0  0  0  0  0  0  0  0  0  0  0  0
    1.7467  -11.2831    5.4075 H   0  0  0  0  0  0  0  0  0  0  0  0
   -0.3102   -9.9906    5.8865 H   0  0  0  0  0  0  0  0  0  0  0  0
    1.0349   -9.5353    6.8463 H   0  0  0  0  0  0  0  0  0  0  0  0
   -0.5031   -7.6826    5.9358 H   0  0  0  0  0  0  0  0  0  0  0  0
   -0.0528   -6.7328    3.8376 H   0  0  0  0  0  0  0  0  0  0  0  0
   -0.7553   -8.3036    3.6400 H   0  0  0  0  0  0  0  0  0  0  0  0
    3.8996  -11.6041    4.0960 H   0  0  0  0  0  0  0  0  0  0  0  0
    4.8780  -10.2125    3.6590 H   0  0  0  0  0  0  0  0  0  0  0  0
    3.5072  -10.6568    2.6828 H   0  0  0  0  0  0  0  0  0  0  0  0
    3.9761  -10.6357    6.3308 H   0  0  0  0  0  0  0  0  0  0  0  0
    3.2517   -9.1156    6.7643 H   0  0  0  0  0  0  0  0  0  0  0  0
    4.7391   -9.1332    5.8276 H   0  0  0  0  0  0  0  0  0  0  0  0
  1  2  2  0
  1 19  1  0
  1 20  1  0
  2  3  1  0
  2 21  1  0
  3 14  1  0
  3  4  2  0
  4  5  1  0
  4 22  1  0
  5 16  1  0
  5  6  1  0
  5 23  1  6
  6 15  1  0
  6  7  1  6
  6 10  1  0
  7  8  2  3
  7 24  1  0
  8  9  1  0
  9 25  1  0
 10 11  1  0
 10 26  1  0
 10 27  1  0
 11 12  1  0
 11 28  1  0
 11 29  1  0
 12 13  1  0
 12 16  1  0
 12 30  1  1
 13 14  1  0
 13 31  1  0
 13 32  1  0
 14 15  1  0
 14 33  1  1
 15 34  1  0
 15 35  1  0
 16 17  1  0
 16 18  1  0
 17 36  1  0
 17 37  1  0
 17 38  1  0
 18 39  1  0
 18 40  1  0
 18 41  1  0
M  END
>  <i_m_ct_stereo_status>  (291) 
1

>  <s_m_source_file>  (291) 
/var/tmp/pbs.5076255.sched01/tmpthapbt4w/86pc0xbys0.sdf

>  <i_m_source_file_index>  (291) 
42

>  <i_lp_mmshare_version>  (291) 
48012

>  <i_f3d_flags>  (291) 
0

>  <s_epik_input>  (291) 
W0NIMl0xW0NIMl1bQ0BASF0oQzIoW0NIM10pW0NIM10pW0NIMl1bQ0BIXShbQ0gyXTMpQyhbQ0hdPVtDSDJdKT1bQ0hdW0NAQEhdMltDQEBdMTMvW0NIXT1OL1tPSF0=

>  <s_epik_cmdline>  (291) 
J2VwaWtfcHl0aG9uJywgJy1waHQnLCAnMi4wJywgJy1waCcsICc3LjAnLCAnLXRuJywgJzgnLCAnLW1hJywgJzIwMCcsICctaW1hZScsICc8aW5maWxlLm1hZT4nLCAnLW9tYWUnLCAnPG91dGZpbGUubWFlPic=

>  <r_lp_tautomer_probability>  (291) 
1

>  <r_epik_Ionization_Penalty>  (291) 
1.31691e-06

>  <r_epik_Ionization_Penalty_Charging>  (291) 
0

>  <r_epik_Ionization_Penalty_Neutral>  (291) 
1.31691e-06

>  <r_epik_State_Penalty>  (291) 
-0

>  <r_epik_Charging_Adjusted_Penalty>  (291) 
0

>  <i_epik_Tot_Q>  (291) 
0

>  <i_epik_Tot_abs_Q>  (291) 
0

>  <s_epik_Chemistry_Notes>  (291) 
This compound has an imine and may undergo hydrolysis.

>  <s_lp_Force_Field>  (291) 
OPLS3e

>  <r_lp_Energy>  (291) 
56.2982

>  <b_lp_Chiralities_Consistent>  (291) 
1

>  <s_lp_Variant>  (291) 
85:0-1

>  <s_i_glide_gridfile>  (291) 
pfpi4k_grid

>  <i_i_glide_lignum>  (291) 
42

>  <i_i_glide_rotatable_bonds>  (291) 
3

>  <r_i_docking_score>  (291) 
-2.92776

>  <r_i_glide_ligand_efficiency>  (291) 
-0.162653

>  <r_i_glide_ligand_efficiency_sa>  (291) 
-0.426273

>  <r_i_glide_ligand_efficiency_ln>  (291) 
-0.752566

>  <r_i_glide_gscore>  (291) 
-2.92776

>  <r_i_glide_lipo>  (291) 
-0.175833

>  <r_i_glide_hbond>  (291) 
0

>  <r_i_glide_metal>  (291) 
-0

>  <r_i_glide_rewards>  (291) 
-1.73618

>  <r_i_glide_evdw>  (291) 
-17.4854

>  <r_i_glide_ecoul>  (291) 
-5.17971

>  <r_i_glide_erotb>  (291) 
0.867385

>  <r_i_glide_esite>  (291) 
-0.231905

>  <r_i_glide_emodel>  (291) 
-27.3538

>  <r_i_glide_energy>  (291) 
-22.6651

>  <r_i_glide_einternal>  (291) 
0.437231

>  <r_i_glide_intrahb_reward>  (291) 
-0

>  <i_i_glide_confnum>  (291) 
3

>  <i_i_glide_posenum>  (291) 
15

>  <r_i_glide_eff_state_penalty>  (291) 
0

>  <ligand_id>  (291) 
85

>  <original_smiles>  (291) 
C=CC1=CC2C3(C=NO)CCC(CC1C3)C2(C)C

>  <smiles>  (291) 
[H]ON=C([H])C12C([H])([H])C([H])([H])C3([H])C([H])([H])C([H])(C(C([H])=C([H])[H])=C([H])C1([H])C3(C([H])([H])[H])C([H])([H])[H])C2([H])[H]

$$$$
85:1:0
     RDKit          3D

 41 43  0  0  1  0  0  0  0  0999 V2000
    3.0293   -1.0408   -3.7479 C   0  0  0  0  0  0  0  0  0  0  0  0
    3.4639   -2.2442   -3.3291 C   0  0  0  0  0  0  0  0  0  0  0  0
    3.9863   -2.5206   -1.9983 C   0  0  0  0  0  0  0  0  0  0  0  0
    4.5805   -3.6964   -1.7310 C   0  0  0  0  0  0  0  0  0  0  0  0
    5.1753   -3.9328   -0.3498 C   0  0  2  0  0  0  0  0  0  0  0  0
    4.0958   -3.5661    0.7638 C   0  0  1  0  0  0  0  0  0  0  0  0
    3.2592   -4.8205    1.1319 C   0  0  0  0  0  0  0  0  0  0  0  0
    2.3210   -5.4333    0.5131 N   0  0  0  0  0  0  0  0  0  0  0  0
    1.9805   -4.7894   -0.7175 O   0  0  0  0  0  0  0  0  0  0  0  0
    4.7961   -3.0775    2.0702 C   0  0  0  0  0  0  0  0  0  0  0  0
    5.7234   -1.8623    1.8403 C   0  0  0  0  0  0  0  0  0  0  0  0
    6.1866   -1.7223    0.3794 C   0  0  2  0  0  0  0  0  0  0  0  0
    5.1617   -0.8883   -0.4459 C   0  0  0  0  0  0  0  0  0  0  0  0
    3.8260   -1.5731   -0.8151 C   0  0  2  0  0  0  0  0  0  0  0  0
    3.2031   -2.3530    0.3476 C   0  0  0  0  0  0  0  0  0  0  0  0
    6.5255   -3.1140   -0.2313 C   0  0  0  0  0  0  0  0  0  0  0  0
    7.5713   -3.8775    0.6298 C   0  0  0  0  0  0  0  0  0  0  0  0
    7.2687   -2.8895   -1.5769 C   0  0  0  0  0  0  0  0  0  0  0  0
    3.0580   -0.1636   -3.1159 H   0  0  0  0  0  0  0  0  0  0  0  0
    2.6290   -0.9055   -4.7420 H   0  0  0  0  0  0  0  0  0  0  0  0
    3.3992   -3.0626   -4.0340 H   0  0  0  0  0  0  0  0  0  0  0  0
    4.7217   -4.4654   -2.4781 H   0  0  0  0  0  0  0  0  0  0  0  0
    5.4146   -4.9963   -0.2874 H   0  0  0  0  0  0  0  0  0  0  0  0
    3.5710   -5.2447    2.0890 H   0  0  0  0  0  0  0  0  0  0  0  0
    2.4493   -5.3093   -1.3744 H   0  0  0  0  0  0  0  0  0  0  0  0
    4.0490   -2.8076    2.8213 H   0  0  0  0  0  0  0  0  0  0  0  0
    5.3575   -3.8873    2.5314 H   0  0  0  0  0  0  0  0  0  0  0  0
    5.2327   -0.9439    2.1663 H   0  0  0  0  0  0  0  0  0  0  0  0
    6.5954   -1.9592    2.4823 H   0  0  0  0  0  0  0  0  0  0  0  0
    7.1057   -1.1310    0.4161 H   0  0  0  0  0  0  0  0  0  0  0  0
    4.9321    0.0229    0.1079 H   0  0  0  0  0  0  0  0  0  0  0  0
    5.6302   -0.5399   -1.3668 H   0  0  0  0  0  0  0  0  0  0  0  0
    3.1052   -0.7971   -1.0650 H   0  0  0  0  0  0  0  0  0  0  0  0
    2.2090   -2.6425    0.0214 H   0  0  0  0  0  0  0  0  0  0  0  0
    2.9984   -1.6800    1.1822 H   0  0  0  0  0  0  0  0  0  0  0  0
    8.4508   -3.2608    0.8238 H   0  0  0  0  0  0  0  0  0  0  0  0
    7.9128   -4.7823    0.1254 H   0  0  0  0  0  0  0  0  0  0  0  0
    7.2000   -4.1982    1.6001 H   0  0  0  0  0  0  0  0  0  0  0  0
    8.2285   -2.3946   -1.4301 H   0  0  0  0  0  0  0  0  0  0  0  0
    6.7169   -2.2723   -2.2839 H   0  0  0  0  0  0  0  0  0  0  0  0
    7.4811   -3.8216   -2.0923 H   0  0  0  0  0  0  0  0  0  0  0  0
  1  2  2  0
  1 19  1  0
  1 20  1  0
  2  3  1  0
  2 21  1  0
  3 14  1  0
  3  4  2  0
  4  5  1  0
  4 22  1  0
  5 16  1  0
  5  6  1  0
  5 23  1  6
  6 15  1  0
  6  7  1  1
  6 10  1  0
  7  8  2  3
  7 24  1  0
  8  9  1  0
  9 25  1  0
 10 11  1  0
 10 26  1  0
 10 27  1  0
 11 12  1  0
 11 28  1  0
 11 29  1  0
 12 13  1  0
 12 16  1  0
 12 30  1  1
 13 14  1  0
 13 31  1  0
 13 32  1  0
 14 15  1  0
 14 33  1  6
 15 34  1  0
 15 35  1  0
 16 17  1  0
 16 18  1  0
 17 36  1  0
 17 37  1  0
 17 38  1  0
 18 39  1  0
 18 40  1  0
 18 41  1  0
M  END
>  <i_m_ct_stereo_status>  (292) 
1

>  <s_m_source_file>  (292) 
/var/tmp/pbs.5076255.sched01/tmpthapbt4w/86pc0xbys0.sdf

>  <i_m_source_file_index>  (292) 
43

>  <i_lp_mmshare_version>  (292) 
48012

>  <i_f3d_flags>  (292) 
0

>  <s_epik_input>  (292) 
W0NIMl0xW0NIMl1bQ0BASF0oQzIoW0NIM10pW0NIM10pW0NIMl1bQ0BIXShbQ0gyXTMpQyhbQ0hdPVtDSDJdKT1bQ0hdW0NAQEhdMltDQEBdMTMvW0NIXT1OL1tPSF0=

>  <s_epik_cmdline>  (292) 
J2VwaWtfcHl0aG9uJywgJy1waHQnLCAnMi4wJywgJy1waCcsICc3LjAnLCAnLXRuJywgJzgnLCAnLW1hJywgJzIwMCcsICctaW1hZScsICc8aW5maWxlLm1hZT4nLCAnLW9tYWUnLCAnPG91dGZpbGUubWFlPic=

>  <r_lp_tautomer_probability>  (292) 
1

>  <r_epik_Ionization_Penalty>  (292) 
1.31691e-06

>  <r_epik_Ionization_Penalty_Charging>  (292) 
0

>  <r_epik_Ionization_Penalty_Neutral>  (292) 
1.31691e-06

>  <r_epik_State_Penalty>  (292) 
-0

>  <r_epik_Charging_Adjusted_Penalty>  (292) 
0

>  <i_epik_Tot_Q>  (292) 
0

>  <i_epik_Tot_abs_Q>  (292) 
0

>  <s_epik_Chemistry_Notes>  (292) 
This compound has an imine and may undergo hydrolysis.

>  <s_lp_Force_Field>  (292) 
OPLS3e

>  <r_lp_Energy>  (292) 
62.009

>  <b_lp_Chiralities_Consistent>  (292) 
1

>  <s_lp_Variant>  (292) 
85:0-2

>  <s_i_glide_gridfile>  (292) 
pfpi4k_grid

>  <i_i_glide_lignum>  (292) 
43

>  <i_i_glide_rotatable_bonds>  (292) 
3

>  <r_i_docking_score>  (292) 
-4.37084

>  <r_i_glide_ligand_efficiency>  (292) 
-0.242824

>  <r_i_glide_ligand_efficiency_sa>  (292) 
-0.63638

>  <r_i_glide_ligand_efficiency_ln>  (292) 
-1.1235

>  <r_i_glide_gscore>  (292) 
-4.37084

>  <r_i_glide_lipo>  (292) 
-0.866766

>  <r_i_glide_hbond>  (292) 
-0.32

>  <r_i_glide_metal>  (292) 
-0

>  <r_i_glide_rewards>  (292) 
-1.73618

>  <r_i_glide_evdw>  (292) 
-21.1893

>  <r_i_glide_ecoul>  (292) 
-7.43232

>  <r_i_glide_erotb>  (292) 
0.867385

>  <r_i_glide_esite>  (292) 
-0.140963

>  <r_i_glide_emodel>  (292) 
-34.3143

>  <r_i_glide_energy>  (292) 
-28.6216

>  <r_i_glide_einternal>  (292) 
3.49014

>  <r_i_glide_intrahb_reward>  (292) 
-0

>  <i_i_glide_confnum>  (292) 
5

>  <i_i_glide_posenum>  (292) 
32

>  <r_i_glide_eff_state_penalty>  (292) 
0

>  <ligand_id>  (292) 
85

>  <original_smiles>  (292) 
C=CC1=CC2C3(C=NO)CCC(CC1C3)C2(C)C

>  <smiles>  (292) 
[H]ON=C([H])C12C([H])([H])C([H])([H])C3([H])C([H])([H])C([H])(C(C([H])=C([H])[H])=C([H])C1([H])C3(C([H])([H])[H])C([H])([H])[H])C2([H])[H]

$$$$
85:1:1
     RDKit          3D

 41 43  0  0  1  0  0  0  0  0999 V2000
    0.8566   -5.9646   -0.1830 C   0  0  0  0  0  0  0  0  0  0  0  0
    1.9533   -5.7393    0.5594 C   0  0  0  0  0  0  0  0  0  0  0  0
    2.9176   -4.6856    0.3049 C   0  0  0  0  0  0  0  0  0  0  0  0
    2.5812   -3.5095   -0.2524 C   0  0  0  0  0  0  0  0  0  0  0  0
    3.6228   -2.4156   -0.3950 C   0  0  2  0  0  0  0  0  0  0  0  0
    4.9231   -2.9929   -1.1071 C   0  0  1  0  0  0  0  0  0  0  0  0
    4.7826   -2.9187   -2.6472 C   0  0  0  0  0  0  0  0  0  0  0  0
    4.6109   -1.9062   -3.4015 N   0  0  0  0  0  0  0  0  0  0  0  0
    4.5568   -0.6855   -2.6566 O   0  0  0  0  0  0  0  0  0  0  0  0
    6.2193   -2.2626   -0.6659 C   0  0  0  0  0  0  0  0  0  0  0  0
    6.4183   -2.2741    0.8633 C   0  0  0  0  0  0  0  0  0  0  0  0
    5.1128   -2.5410    1.6487 C   0  0  2  0  0  0  0  0  0  0  0  0
    4.8654   -4.0717    1.8389 C   0  0  0  0  0  0  0  0  0  0  0  0
    4.3943   -4.8761    0.5949 C   0  0  2  0  0  0  0  0  0  0  0  0
    5.1507   -4.4892   -0.6872 C   0  0  0  0  0  0  0  0  0  0  0  0
    3.9132   -1.7774    1.0148 C   0  0  0  0  0  0  0  0  0  0  0  0
    4.2159   -0.2609    0.8792 C   0  0  0  0  0  0  0  0  0  0  0  0
    2.6952   -1.8148    1.9828 C   0  0  0  0  0  0  0  0  0  0  0  0
    0.6283   -5.3707   -1.0564 H   0  0  0  0  0  0  0  0  0  0  0  0
    0.1780   -6.7663    0.0777 H   0  0  0  0  0  0  0  0  0  0  0  0
    2.1232   -6.3883    1.4090 H   0  0  0  0  0  0  0  0  0  0  0  0
    1.5776   -3.2588   -0.5512 H   0  0  0  0  0  0  0  0  0  0  0  0
    3.1156   -1.6658   -0.9991 H   0  0  0  0  0  0  0  0  0  0  0  0
    4.8620   -3.8939   -3.1384 H   0  0  0  0  0  0  0  0  0  0  0  0
    4.1069   -0.9451   -1.8638 H   0  0  0  0  0  0  0  0  0  0  0  0
    7.0937   -2.7131   -1.1430 H   0  0  0  0  0  0  0  0  0  0  0  0
    6.2212   -1.2375   -1.0186 H   0  0  0  0  0  0  0  0  0  0  0  0
    7.1694   -3.0132    1.1414 H   0  0  0  0  0  0  0  0  0  0  0  0
    6.8382   -1.3152    1.1689 H   0  0  0  0  0  0  0  0  0  0  0  0
    5.2723   -2.1381    2.6508 H   0  0  0  0  0  0  0  0  0  0  0  0
    5.7854   -4.5249    2.2102 H   0  0  0  0  0  0  0  0  0  0  0  0
    4.1435   -4.2278    2.6421 H   0  0  0  0  0  0  0  0  0  0  0  0
    4.5528   -5.9384    0.7908 H   0  0  0  0  0  0  0  0  0  0  0  0
    4.8040   -5.1773   -1.4605 H   0  0  0  0  0  0  0  0  0  0  0  0
    6.2104   -4.7226   -0.5679 H   0  0  0  0  0  0  0  0  0  0  0  0
    4.5432    0.1631    1.8283 H   0  0  0  0  0  0  0  0  0  0  0  0
    3.3240    0.2823    0.5692 H   0  0  0  0  0  0  0  0  0  0  0  0
    4.9811   -0.0212    0.1458 H   0  0  0  0  0  0  0  0  0  0  0  0
    2.9143   -1.2819    2.9089 H   0  0  0  0  0  0  0  0  0  0  0  0
    2.4013   -2.8222    2.2749 H   0  0  0  0  0  0  0  0  0  0  0  0
    1.8207   -1.3409    1.5331 H   0  0  0  0  0  0  0  0  0  0  0  0
  1  2  2  0
  1 19  1  0
  1 20  1  0
  2  3  1  0
  2 21  1  0
  3 14  1  0
  3  4  2  0
  4  5  1  0
  4 22  1  0
  5 16  1  0
  5  6  1  0
  5 23  1  6
  6 15  1  0
  6  7  1  6
  6 10  1  0
  7  8  2  3
  7 24  1  0
  8  9  1  0
  9 25  1  0
 10 11  1  0
 10 26  1  0
 10 27  1  0
 11 12  1  0
 11 28  1  0
 11 29  1  0
 12 13  1  0
 12 16  1  0
 12 30  1  1
 13 14  1  0
 13 31  1  0
 13 32  1  0
 14 15  1  0
 14 33  1  1
 15 34  1  0
 15 35  1  0
 16 17  1  0
 16 18  1  0
 17 36  1  0
 17 37  1  0
 17 38  1  0
 18 39  1  0
 18 40  1  0
 18 41  1  0
M  END
>  <i_m_ct_stereo_status>  (293) 
1

>  <s_m_source_file>  (293) 
/var/tmp/pbs.5076255.sched01/tmpthapbt4w/86pc0xbys0.sdf

>  <i_m_source_file_index>  (293) 
43

>  <i_lp_mmshare_version>  (293) 
48012

>  <i_f3d_flags>  (293) 
0

>  <s_epik_input>  (293) 
W0NIMl0xW0NIMl1bQ0BASF0oQzIoW0NIM10pW0NIM10pW0NIMl1bQ0BIXShbQ0gyXTMpQyhbQ0hdPVtDSDJdKT1bQ0hdW0NAQEhdMltDQEBdMTMvW0NIXT1OL1tPSF0=

>  <s_epik_cmdline>  (293) 
J2VwaWtfcHl0aG9uJywgJy1waHQnLCAnMi4wJywgJy1waCcsICc3LjAnLCAnLXRuJywgJzgnLCAnLW1hJywgJzIwMCcsICctaW1hZScsICc8aW5maWxlLm1hZT4nLCAnLW9tYWUnLCAnPG91dGZpbGUubWFlPic=

>  <r_lp_tautomer_probability>  (293) 
1

>  <r_epik_Ionization_Penalty>  (293) 
1.31691e-06

>  <r_epik_Ionization_Penalty_Charging>  (293) 
0

>  <r_epik_Ionization_Penalty_Neutral>  (293) 
1.31691e-06

>  <r_epik_State_Penalty>  (293) 
-0

>  <r_epik_Charging_Adjusted_Penalty>  (293) 
0

>  <i_epik_Tot_Q>  (293) 
0

>  <i_epik_Tot_abs_Q>  (293) 
0

>  <s_epik_Chemistry_Notes>  (293) 
This compound has an imine and may undergo hydrolysis.

>  <s_lp_Force_Field>  (293) 
OPLS3e

>  <r_lp_Energy>  (293) 
62.009

>  <b_lp_Chiralities_Consistent>  (293) 
1

>  <s_lp_Variant>  (293) 
85:0-2

>  <s_i_glide_gridfile>  (293) 
pfpi4k_grid

>  <i_i_glide_lignum>  (293) 
43

>  <i_i_glide_rotatable_bonds>  (293) 
3

>  <r_i_docking_score>  (293) 
-3.05125

>  <r_i_glide_ligand_efficiency>  (293) 
-0.169514

>  <r_i_glide_ligand_efficiency_sa>  (293) 
-0.444252

>  <r_i_glide_ligand_efficiency_ln>  (293) 
-0.784308

>  <r_i_glide_gscore>  (293) 
-3.05125

>  <r_i_glide_lipo>  (293) 
-0.372761

>  <r_i_glide_hbond>  (293) 
0

>  <r_i_glide_metal>  (293) 
-0

>  <r_i_glide_rewards>  (293) 
-1.90696

>  <r_i_glide_evdw>  (293) 
-24.3765

>  <r_i_glide_ecoul>  (293) 
-2.79159

>  <r_i_glide_erotb>  (293) 
0.867385

>  <r_i_glide_esite>  (293) 
-0.00135251

>  <r_i_glide_emodel>  (293) 
-31.2289

>  <r_i_glide_energy>  (293) 
-27.1681

>  <r_i_glide_einternal>  (293) 
2.80986

>  <r_i_glide_intrahb_reward>  (293) 
-0

>  <i_i_glide_confnum>  (293) 
5

>  <i_i_glide_posenum>  (293) 
26

>  <r_i_glide_eff_state_penalty>  (293) 
0

>  <ligand_id>  (293) 
85

>  <original_smiles>  (293) 
C=CC1=CC2C3(C=NO)CCC(CC1C3)C2(C)C

>  <smiles>  (293) 
[H]ON=C([H])C12C([H])([H])C([H])([H])C3([H])C([H])([H])C([H])(C(C([H])=C([H])[H])=C([H])C1([H])C3(C([H])([H])[H])C([H])([H])[H])C2([H])[H]

$$$$
85:1:2
     RDKit          3D

 41 43  0  0  1  0  0  0  0  0999 V2000
    3.6325   -1.2154   -4.2627 C   0  0  0  0  0  0  0  0  0  0  0  0
    4.0587   -2.4113   -3.8129 C   0  0  0  0  0  0  0  0  0  0  0  0
    4.3844   -2.7068   -2.4240 C   0  0  0  0  0  0  0  0  0  0  0  0
    5.0120   -3.8470   -2.0935 C   0  0  0  0  0  0  0  0  0  0  0  0
    5.4264   -4.0885   -0.6446 C   0  0  2  0  0  0  0  0  0  0  0  0
    4.1848   -3.8641    0.3292 C   0  0  1  0  0  0  0  0  0  0  0  0
    3.3605   -5.1644    0.4799 C   0  0  0  0  0  0  0  0  0  0  0  0
    3.7078   -6.3037    0.9350 N   0  0  0  0  0  0  0  0  0  0  0  0
    5.0737   -6.3237    1.3471 O   0  0  0  0  0  0  0  0  0  0  0  0
    4.6013   -3.3544    1.7365 C   0  0  0  0  0  0  0  0  0  0  0  0
    5.4483   -2.0696    1.6762 C   0  0  0  0  0  0  0  0  0  0  0  0
    6.1200   -1.8407    0.3026 C   0  0  2  0  0  0  0  0  0  0  0  0
    5.1692   -1.0572   -0.6542 C   0  0  0  0  0  0  0  0  0  0  0  0
    3.9671   -1.8259   -1.2552 C   0  0  2  0  0  0  0  0  0  0  0  0
    3.2545   -2.7339   -0.2406 C   0  0  0  0  0  0  0  0  0  0  0  0
    6.6638   -3.1771   -0.2916 C   0  0  0  0  0  0  0  0  0  0  0  0
    7.6105   -3.9019    0.7049 C   0  0  0  0  0  0  0  0  0  0  0  0
    7.5866   -2.8668   -1.5063 C   0  0  0  0  0  0  0  0  0  0  0  0
    3.5124   -0.3678   -3.6028 H   0  0  0  0  0  0  0  0  0  0  0  0
    3.3957   -1.0589   -5.3053 H   0  0  0  0  0  0  0  0  0  0  0  0
    4.1554   -3.2133   -4.5282 H   0  0  0  0  0  0  0  0  0  0  0  0
    5.3172   -4.5711   -2.8341 H   0  0  0  0  0  0  0  0  0  0  0  0
    5.7573   -5.1254   -0.6302 H   0  0  0  0  0  0  0  0  0  0  0  0
    2.3287   -5.0637    0.1285 H   0  0  0  0  0  0  0  0  0  0  0  0
    5.3731   -5.4589    1.1113 H   0  0  0  0  0  0  0  0  0  0  0  0
    3.7135   -3.1675    2.3455 H   0  0  0  0  0  0  0  0  0  0  0  0
    5.1419   -4.1110    2.2990 H   0  0  0  0  0  0  0  0  0  0  0  0
    4.8389   -1.2046    1.9371 H   0  0  0  0  0  0  0  0  0  0  0  0
    6.2123   -2.1241    2.4507 H   0  0  0  0  0  0  0  0  0  0  0  0
    6.9721   -1.1820    0.4880 H   0  0  0  0  0  0  0  0  0  0  0  0
    4.7792   -0.1860   -0.1209 H   0  0  0  0  0  0  0  0  0  0  0  0
    5.7431   -0.6356   -1.4800 H   0  0  0  0  0  0  0  0  0  0  0  0
    3.2248   -1.0999   -1.5884 H   0  0  0  0  0  0  0  0  0  0  0  0
    2.3957   -3.1504   -0.7724 H   0  0  0  0  0  0  0  0  0  0  0  0
    2.8125   -2.1233    0.5496 H   0  0  0  0  0  0  0  0  0  0  0  0
    8.4008   -3.2327    1.0454 H   0  0  0  0  0  0  0  0  0  0  0  0
    8.0945   -4.7600    0.2372 H   0  0  0  0  0  0  0  0  0  0  0  0
    7.1172   -4.2812    1.5963 H   0  0  0  0  0  0  0  0  0  0  0  0
    8.4726   -2.3084   -1.1976 H   0  0  0  0  0  0  0  0  0  0  0  0
    7.1022   -2.2740   -2.2831 H   0  0  0  0  0  0  0  0  0  0  0  0
    7.9437   -3.7806   -1.9837 H   0  0  0  0  0  0  0  0  0  0  0  0
  1  2  2  0
  1 19  1  0
  1 20  1  0
  2  3  1  0
  2 21  1  0
  3 14  1  0
  3  4  2  0
  4  5  1  0
  4 22  1  0
  5 16  1  0
  5  6  1  0
  5 23  1  6
  6 15  1  0
  6  7  1  1
  6 10  1  0
  7  8  2  3
  7 24  1  0
  8  9  1  0
  9 25  1  0
 10 11  1  0
 10 26  1  0
 10 27  1  0
 11 12  1  0
 11 28  1  0
 11 29  1  0
 12 13  1  0
 12 16  1  0
 12 30  1  1
 13 14  1  0
 13 31  1  0
 13 32  1  0
 14 15  1  0
 14 33  1  6
 15 34  1  0
 15 35  1  0
 16 17  1  0
 16 18  1  0
 17 36  1  0
 17 37  1  0
 17 38  1  0
 18 39  1  0
 18 40  1  0
 18 41  1  0
M  END
>  <i_m_ct_stereo_status>  (294) 
1

>  <s_m_source_file>  (294) 
/var/tmp/pbs.5076255.sched01/tmpthapbt4w/86pc0xbys0.sdf

>  <i_m_source_file_index>  (294) 
43

>  <i_lp_mmshare_version>  (294) 
48012

>  <i_f3d_flags>  (294) 
0

>  <s_epik_input>  (294) 
W0NIMl0xW0NIMl1bQ0BASF0oQzIoW0NIM10pW0NIM10pW0NIMl1bQ0BIXShbQ0gyXTMpQyhbQ0hdPVtDSDJdKT1bQ0hdW0NAQEhdMltDQEBdMTMvW0NIXT1OL1tPSF0=

>  <s_epik_cmdline>  (294) 
J2VwaWtfcHl0aG9uJywgJy1waHQnLCAnMi4wJywgJy1waCcsICc3LjAnLCAnLXRuJywgJzgnLCAnLW1hJywgJzIwMCcsICctaW1hZScsICc8aW5maWxlLm1hZT4nLCAnLW9tYWUnLCAnPG91dGZpbGUubWFlPic=

>  <r_lp_tautomer_probability>  (294) 
1

>  <r_epik_Ionization_Penalty>  (294) 
1.31691e-06

>  <r_epik_Ionization_Penalty_Charging>  (294) 
0

>  <r_epik_Ionization_Penalty_Neutral>  (294) 
1.31691e-06

>  <r_epik_State_Penalty>  (294) 
-0

>  <r_epik_Charging_Adjusted_Penalty>  (294) 
0

>  <i_epik_Tot_Q>  (294) 
0

>  <i_epik_Tot_abs_Q>  (294) 
0

>  <s_epik_Chemistry_Notes>  (294) 
This compound has an imine and may undergo hydrolysis.

>  <s_lp_Force_Field>  (294) 
OPLS3e

>  <r_lp_Energy>  (294) 
62.009

>  <b_lp_Chiralities_Consistent>  (294) 
1

>  <s_lp_Variant>  (294) 
85:0-2

>  <s_i_glide_gridfile>  (294) 
pfpi4k_grid

>  <i_i_glide_lignum>  (294) 
43

>  <i_i_glide_rotatable_bonds>  (294) 
3

>  <r_i_docking_score>  (294) 
-2.89801

>  <r_i_glide_ligand_efficiency>  (294) 
-0.161

>  <r_i_glide_ligand_efficiency_sa>  (294) 
-0.421941

>  <r_i_glide_ligand_efficiency_ln>  (294) 
-0.744918

>  <r_i_glide_gscore>  (294) 
-2.89801

>  <r_i_glide_lipo>  (294) 
-0.627873

>  <r_i_glide_hbond>  (294) 
0

>  <r_i_glide_metal>  (294) 
-0

>  <r_i_glide_rewards>  (294) 
-1.73618

>  <r_i_glide_evdw>  (294) 
-25.7934

>  <r_i_glide_ecoul>  (294) 
-0.651104

>  <r_i_glide_erotb>  (294) 
0.867385

>  <r_i_glide_esite>  (294) 
-0.0140016

>  <r_i_glide_emodel>  (294) 
-31.4933

>  <r_i_glide_energy>  (294) 
-26.4445

>  <r_i_glide_einternal>  (294) 
0.433418

>  <r_i_glide_intrahb_reward>  (294) 
-0

>  <i_i_glide_confnum>  (294) 
5

>  <i_i_glide_posenum>  (294) 
7

>  <r_i_glide_eff_state_penalty>  (294) 
0

>  <ligand_id>  (294) 
85

>  <original_smiles>  (294) 
C=CC1=CC2C3(C=NO)CCC(CC1C3)C2(C)C

>  <smiles>  (294) 
[H]ON=C([H])C12C([H])([H])C([H])([H])C3([H])C([H])([H])C([H])(C(C([H])=C([H])[H])=C([H])C1([H])C3(C([H])([H])[H])C([H])([H])[H])C2([H])[H]

$$$$
86:0:0
     RDKit          3D

 26 29  0  0  1  0  0  0  0  0999 V2000
    4.5782   -3.3903    1.4881 O   0  0  0  0  0  0  0  0  0  0  0  0
    5.2547   -3.5576    0.2684 C   0  0  2  0  0  0  0  0  0  0  0  0
    5.9300   -2.2805   -0.2473 C   0  0  2  0  0  0  0  0  0  0  0  0
    5.6191   -0.6649    0.8827 Br  0  0  0  0  0  0  0  0  0  0  0  0
    5.4351   -2.0959   -1.6810 C   0  0  1  0  0  0  0  0  0  0  0  0
    5.0837   -3.5031   -2.1658 C   0  0  1  0  0  0  0  0  0  0  0  0
    4.3965   -4.0912   -0.9060 C   0  0  2  0  0  0  0  0  0  0  0  0
    2.9747   -3.5149   -1.1349 C   0  0  1  0  0  0  0  0  0  0  0  0
    2.3217   -2.9684   -0.0046 O   0  0  0  0  0  0  0  0  0  0  0  0
    3.1869   -2.5717   -2.2902 C   0  0  1  0  0  0  0  0  0  0  0  0
    2.7086   -2.7457   -3.6513 C   0  0  0  0  0  0  0  0  0  0  0  0
    4.0472   -3.3918   -3.2896 C   0  0  1  0  0  0  0  0  0  0  0  0
    4.0610   -1.4291   -1.8430 C   0  0  2  0  0  0  0  0  0  0  0  0
    4.1945   -0.1892   -3.1191 Cl  0  0  0  0  0  0  0  0  0  0  0  0
    3.7979   -2.8658    1.3079 H   0  0  0  0  0  0  0  0  0  0  0  0
    6.0435   -4.2887    0.4696 H   0  0  0  0  0  0  0  0  0  0  0  0
    7.0030   -2.4645   -0.2649 H   0  0  0  0  0  0  0  0  0  0  0  0
    6.1828   -1.5914   -2.2885 H   0  0  0  0  0  0  0  0  0  0  0  0
    5.9697   -4.0593   -2.4758 H   0  0  0  0  0  0  0  0  0  0  0  0
    4.3693   -5.1805   -0.9184 H   0  0  0  0  0  0  0  0  0  0  0  0
    2.2994   -4.2852   -1.5091 H   0  0  0  0  0  0  0  0  0  0  0  0
    1.7852   -2.2336   -0.2970 H   0  0  0  0  0  0  0  0  0  0  0  0
    1.8407   -3.3938   -3.7640 H   0  0  0  0  0  0  0  0  0  0  0  0
    2.7067   -1.9022   -4.3375 H   0  0  0  0  0  0  0  0  0  0  0  0
    3.8840   -4.3955   -3.6413 H   0  0  0  0  0  0  0  0  0  0  0  0
    3.6401   -0.9399   -0.9556 H   0  0  0  0  0  0  0  0  0  0  0  0
  1  2  1  0
  1 15  1  0
  2  7  1  0
  2  3  1  0
  2 16  1  1
  3  4  1  0
  3  5  1  0
  3 17  1  6
  5 13  1  0
  5  6  1  0
  5 18  1  6
  6 12  1  0
  6  7  1  0
  6 19  1  6
  7  8  1  0
  7 20  1  6
  8  9  1  0
  8 10  1  0
  8 21  1  6
  9 22  1  0
 10 12  1  0
 10 11  1  6
 10 13  1  0
 11 12  1  0
 11 23  1  0
 11 24  1  0
 12 25  1  1
 13 14  1  0
 13 26  1  1
M  END
>  <i_m_ct_stereo_status>  (295) 
1

>  <s_m_source_file>  (295) 
/var/tmp/pbs.5076255.sched01/tmpcwktr4ti/1290j0z1rin.sdf

>  <i_m_source_file_index>  (295) 
1

>  <i_lp_mmshare_version>  (295) 
48012

>  <i_f3d_flags>  (295) 
0

>  <s_epik_input>  (295) 
W09IXVtDQEBIXTFbQ0BASF0yW0NASF0oW09IXSlbQ0BIXShCcilbQ0hdKFtDQEhdM0NsKVtDQEBIXTJbQ0BASF0oW0NAQF0xMzQpW0NIMl00

>  <s_epik_cmdline>  (295) 
J2VwaWtfcHl0aG9uJywgJy1waHQnLCAnMi4wJywgJy1waCcsICc3LjAnLCAnLXRuJywgJzgnLCAnLW1hJywgJzIwMCcsICctaW1hZScsICc8aW5maWxlLm1hZT4nLCAnLW9tYWUnLCAnPG91dGZpbGUubWFlPic=

>  <r_lp_tautomer_probability>  (295) 
1

>  <r_epik_Ionization_Penalty>  (295) 
4.06505e-07

>  <r_epik_Ionization_Penalty_Charging>  (295) 
0

>  <r_epik_Ionization_Penalty_Neutral>  (295) 
4.06505e-07

>  <r_epik_State_Penalty>  (295) 
-0

>  <r_epik_Charging_Adjusted_Penalty>  (295) 
0

>  <i_epik_Tot_Q>  (295) 
0

>  <i_epik_Tot_abs_Q>  (295) 
0

>  <s_lp_Force_Field>  (295) 
OPLS3e

>  <r_lp_Energy>  (295) 
71.735

>  <b_lp_Chiralities_Consistent>  (295) 
1

>  <s_lp_Variant>  (295) 
86:0-1

>  <s_i_glide_gridfile>  (295) 
pfpi4k_grid

>  <i_i_glide_lignum>  (295) 
1

>  <i_i_glide_rotatable_bonds>  (295) 
2

>  <r_i_docking_score>  (295) 
-4.47599

>  <r_i_glide_ligand_efficiency>  (295) 
-0.319714

>  <r_i_glide_ligand_efficiency_sa>  (295) 
-0.770556

>  <r_i_glide_ligand_efficiency_ln>  (295) 
-1.22999

>  <r_i_glide_gscore>  (295) 
-4.47599

>  <r_i_glide_lipo>  (295) 
-0.825094

>  <r_i_glide_hbond>  (295) 
0

>  <r_i_glide_metal>  (295) 
-0

>  <r_i_glide_rewards>  (295) 
-2.00302

>  <r_i_glide_evdw>  (295) 
-19.0627

>  <r_i_glide_ecoul>  (295) 
-4.63166

>  <r_i_glide_erotb>  (295) 
0

>  <r_i_glide_esite>  (295) 
0

>  <r_i_glide_emodel>  (295) 
-34.2948

>  <r_i_glide_energy>  (295) 
-23.6943

>  <r_i_glide_einternal>  (295) 
1.29447

>  <r_i_glide_intrahb_reward>  (295) 
-0.5

>  <i_i_glide_confnum>  (295) 
1

>  <i_i_glide_posenum>  (295) 
39

>  <r_i_glide_eff_state_penalty>  (295) 
0

>  <ligand_id>  (295) 
86

>  <original_smiles>  (295) 
OC1C(Br)C2C3C1C(O)C1(CC31)C2Cl

>  <smiles>  (295) 
[H]OC1([H])C([H])(Br)C2([H])C([H])(Cl)C34C([H])([H])C3([H])C2([H])C1([H])C4([H])O[H]

$$$$
86:0:1
     RDKit          3D

 26 29  0  0  1  0  0  0  0  0999 V2000
    3.7467   -3.5425   -2.7738 O   0  0  0  0  0  0  0  0  0  0  0  0
    4.7237   -3.8546   -1.8053 C   0  0  2  0  0  0  0  0  0  0  0  0
    4.2115   -4.4015   -0.4562 C   0  0  2  0  0  0  0  0  0  0  0  0
    2.2331   -4.5612   -0.2766 Br  0  0  0  0  0  0  0  0  0  0  0  0
    4.8189   -3.4939    0.6140 C   0  0  1  0  0  0  0  0  0  0  0  0
    6.1122   -2.9650   -0.0267 C   0  0  1  0  0  0  0  0  0  0  0  0
    5.6557   -2.6793   -1.4765 C   0  0  2  0  0  0  0  0  0  0  0  0
    5.0180   -1.2868   -1.2553 C   0  0  1  0  0  0  0  0  0  0  0  0
    3.8116   -0.9681   -1.9056 O   0  0  0  0  0  0  0  0  0  0  0  0
    5.0082   -1.1637    0.2360 C   0  0  1  0  0  0  0  0  0  0  0  0
    5.8181   -0.2931    1.0222 C   0  0  0  0  0  0  0  0  0  0  0  0
    6.4471   -1.6186    0.6057 C   0  0  1  0  0  0  0  0  0  0  0  0
    4.0580   -2.1748    0.8360 C   0  0  2  0  0  0  0  0  0  0  0  0
    3.7798   -1.9252    2.5873 Cl  0  0  0  0  0  0  0  0  0  0  0  0
    3.2401   -4.3435   -2.8835 H   0  0  0  0  0  0  0  0  0  0  0  0
    5.3175   -4.6479   -2.2593 H   0  0  0  0  0  0  0  0  0  0  0  0
    4.6284   -5.3976   -0.3361 H   0  0  0  0  0  0  0  0  0  0  0  0
    4.9863   -4.0106    1.5623 H   0  0  0  0  0  0  0  0  0  0  0  0
    6.9390   -3.6817    0.0310 H   0  0  0  0  0  0  0  0  0  0  0  0
    6.4890   -2.6198   -2.1828 H   0  0  0  0  0  0  0  0  0  0  0  0
    5.7240   -0.5579   -1.6456 H   0  0  0  0  0  0  0  0  0  0  0  0
    3.0854   -1.4227   -1.5091 H   0  0  0  0  0  0  0  0  0  0  0  0
    6.1848    0.5767    0.4889 H   0  0  0  0  0  0  0  0  0  0  0  0
    5.5948   -0.1415    2.0749 H   0  0  0  0  0  0  0  0  0  0  0  0
    7.3500   -1.2807    0.1034 H   0  0  0  0  0  0  0  0  0  0  0  0
    3.0780   -2.1015    0.3647 H   0  0  0  0  0  0  0  0  0  0  0  0
  1  2  1  0
  1 15  1  0
  2  7  1  0
  2  3  1  0
  2 16  1  6
  3  4  1  0
  3  5  1  0
  3 17  1  1
  5 13  1  0
  5  6  1  0
  5 18  1  1
  6 12  1  0
  6  7  1  0
  6 19  1  6
  7  8  1  0
  7 20  1  6
  8  9  1  0
  8 10  1  0
  8 21  1  6
  9 22  1  0
 10 12  1  0
 10 11  1  6
 10 13  1  0
 11 12  1  0
 11 23  1  0
 11 24  1  0
 12 25  1  6
 13 14  1  0
 13 26  1  6
M  END
>  <i_m_ct_stereo_status>  (296) 
1

>  <s_m_source_file>  (296) 
/var/tmp/pbs.5076255.sched01/tmpcwktr4ti/1290j0z1rin.sdf

>  <i_m_source_file_index>  (296) 
1

>  <i_lp_mmshare_version>  (296) 
48012

>  <i_f3d_flags>  (296) 
0

>  <s_epik_input>  (296) 
W09IXVtDQEBIXTFbQ0BASF0yW0NASF0oW09IXSlbQ0BIXShCcilbQ0hdKFtDQEhdM0NsKVtDQEBIXTJbQ0BASF0oW0NAQF0xMzQpW0NIMl00

>  <s_epik_cmdline>  (296) 
J2VwaWtfcHl0aG9uJywgJy1waHQnLCAnMi4wJywgJy1waCcsICc3LjAnLCAnLXRuJywgJzgnLCAnLW1hJywgJzIwMCcsICctaW1hZScsICc8aW5maWxlLm1hZT4nLCAnLW9tYWUnLCAnPG91dGZpbGUubWFlPic=

>  <r_lp_tautomer_probability>  (296) 
1

>  <r_epik_Ionization_Penalty>  (296) 
4.06505e-07

>  <r_epik_Ionization_Penalty_Charging>  (296) 
0

>  <r_epik_Ionization_Penalty_Neutral>  (296) 
4.06505e-07

>  <r_epik_State_Penalty>  (296) 
-0

>  <r_epik_Charging_Adjusted_Penalty>  (296) 
0

>  <i_epik_Tot_Q>  (296) 
0

>  <i_epik_Tot_abs_Q>  (296) 
0

>  <s_lp_Force_Field>  (296) 
OPLS3e

>  <r_lp_Energy>  (296) 
71.735

>  <b_lp_Chiralities_Consistent>  (296) 
1

>  <s_lp_Variant>  (296) 
86:0-1

>  <s_i_glide_gridfile>  (296) 
pfpi4k_grid

>  <i_i_glide_lignum>  (296) 
1

>  <i_i_glide_rotatable_bonds>  (296) 
2

>  <r_i_docking_score>  (296) 
-3.1312

>  <r_i_glide_ligand_efficiency>  (296) 
-0.223657

>  <r_i_glide_ligand_efficiency_sa>  (296) 
-0.539046

>  <r_i_glide_ligand_efficiency_ln>  (296) 
-0.860443

>  <r_i_glide_gscore>  (296) 
-3.1312

>  <r_i_glide_lipo>  (296) 
-0.250788

>  <r_i_glide_hbond>  (296) 
0

>  <r_i_glide_metal>  (296) 
-0

>  <r_i_glide_rewards>  (296) 
-1.50302

>  <r_i_glide_evdw>  (296) 
-13.3197

>  <r_i_glide_ecoul>  (296) 
-4.74275

>  <r_i_glide_erotb>  (296) 
0

>  <r_i_glide_esite>  (296) 
0

>  <r_i_glide_emodel>  (296) 
-22.2428

>  <r_i_glide_energy>  (296) 
-18.0625

>  <r_i_glide_einternal>  (296) 
0.49588

>  <r_i_glide_intrahb_reward>  (296) 
-0

>  <i_i_glide_confnum>  (296) 
2

>  <i_i_glide_posenum>  (296) 
3

>  <r_i_glide_eff_state_penalty>  (296) 
0

>  <ligand_id>  (296) 
86

>  <original_smiles>  (296) 
OC1C(Br)C2C3C1C(O)C1(CC31)C2Cl

>  <smiles>  (296) 
[H]OC1([H])C([H])(Br)C2([H])C([H])(Cl)C34C([H])([H])C3([H])C2([H])C1([H])C4([H])O[H]

$$$$
86:0:2
     RDKit          3D

 26 29  0  0  1  0  0  0  0  0999 V2000
    6.2388   -0.8297    0.0356 O   0  0  0  0  0  0  0  0  0  0  0  0
    6.1884   -2.1703   -0.4050 C   0  0  2  0  0  0  0  0  0  0  0  0
    5.3840   -2.3993   -1.6908 C   0  0  2  0  0  0  0  0  0  0  0  0
    4.4552   -0.7792   -2.3901 Br  0  0  0  0  0  0  0  0  0  0  0  0
    4.3982   -3.5319   -1.3817 C   0  0  1  0  0  0  0  0  0  0  0  0
    5.0772   -4.3258   -0.2565 C   0  0  1  0  0  0  0  0  0  0  0  0
    5.6613   -3.1969    0.6238 C   0  0  2  0  0  0  0  0  0  0  0  0
    4.4017   -2.8661    1.4590 C   0  0  1  0  0  0  0  0  0  0  0  0
    4.0922   -1.4977    1.6704 O   0  0  0  0  0  0  0  0  0  0  0  0
    3.3329   -3.6638    0.7378 C   0  0  1  0  0  0  0  0  0  0  0  0
    2.6508   -4.8482    1.2338 C   0  0  0  0  0  0  0  0  0  0  0  0
    4.0252   -5.0584    0.5819 C   0  0  1  0  0  0  0  0  0  0  0  0
    3.1068   -3.1071   -0.6626 C   0  0  2  0  0  0  0  0  0  0  0  0
    1.7123   -3.8489   -1.5099 Cl  0  0  0  0  0  0  0  0  0  0  0  0
    5.3777   -0.5645    0.3292 H   0  0  0  0  0  0  0  0  0  0  0  0
    7.2218   -2.4366   -0.6311 H   0  0  0  0  0  0  0  0  0  0  0  0
    6.0617   -2.7384   -2.4703 H   0  0  0  0  0  0  0  0  0  0  0  0
    4.1698   -4.1301   -2.2647 H   0  0  0  0  0  0  0  0  0  0  0  0
    5.8340   -5.0088   -0.6433 H   0  0  0  0  0  0  0  0  0  0  0  0
    6.4503   -3.5468    1.2860 H   0  0  0  0  0  0  0  0  0  0  0  0
    4.5266   -3.3158    2.4434 H   0  0  0  0  0  0  0  0  0  0  0  0
    3.5707   -1.1573    0.9487 H   0  0  0  0  0  0  0  0  0  0  0  0
    2.5989   -4.9439    2.3127 H   0  0  0  0  0  0  0  0  0  0  0  0
    1.7711   -5.2288    0.7268 H   0  0  0  0  0  0  0  0  0  0  0  0
    4.5800   -5.5780    1.3632 H   0  0  0  0  0  0  0  0  0  0  0  0
    2.9202   -2.0309   -0.5958 H   0  0  0  0  0  0  0  0  0  0  0  0
  1  2  1  0
  1 15  1  0
  2  7  1  0
  2  3  1  0
  2 16  1  6
  3  4  1  0
  3  5  1  0
  3 17  1  6
  5 13  1  0
  5  6  1  0
  5 18  1  6
  6 12  1  0
  6  7  1  0
  6 19  1  6
  7  8  1  0
  7 20  1  1
  8  9  1  0
  8 10  1  0
  8 21  1  1
  9 22  1  0
 10 12  1  0
 10 11  1  1
 10 13  1  0
 11 12  1  0
 11 23  1  0
 11 24  1  0
 12 25  1  1
 13 14  1  0
 13 26  1  1
M  END
>  <i_m_ct_stereo_status>  (297) 
1

>  <s_m_source_file>  (297) 
/var/tmp/pbs.5076255.sched01/tmpcwktr4ti/1290j0z1rin.sdf

>  <i_m_source_file_index>  (297) 
1

>  <i_lp_mmshare_version>  (297) 
48012

>  <i_f3d_flags>  (297) 
0

>  <s_epik_input>  (297) 
W09IXVtDQEBIXTFbQ0BASF0yW0NASF0oW09IXSlbQ0BIXShCcilbQ0hdKFtDQEhdM0NsKVtDQEBIXTJbQ0BASF0oW0NAQF0xMzQpW0NIMl00

>  <s_epik_cmdline>  (297) 
J2VwaWtfcHl0aG9uJywgJy1waHQnLCAnMi4wJywgJy1waCcsICc3LjAnLCAnLXRuJywgJzgnLCAnLW1hJywgJzIwMCcsICctaW1hZScsICc8aW5maWxlLm1hZT4nLCAnLW9tYWUnLCAnPG91dGZpbGUubWFlPic=

>  <r_lp_tautomer_probability>  (297) 
1

>  <r_epik_Ionization_Penalty>  (297) 
4.06505e-07

>  <r_epik_Ionization_Penalty_Charging>  (297) 
0

>  <r_epik_Ionization_Penalty_Neutral>  (297) 
4.06505e-07

>  <r_epik_State_Penalty>  (297) 
-0

>  <r_epik_Charging_Adjusted_Penalty>  (297) 
0

>  <i_epik_Tot_Q>  (297) 
0

>  <i_epik_Tot_abs_Q>  (297) 
0

>  <s_lp_Force_Field>  (297) 
OPLS3e

>  <r_lp_Energy>  (297) 
71.735

>  <b_lp_Chiralities_Consistent>  (297) 
1

>  <s_lp_Variant>  (297) 
86:0-1

>  <s_i_glide_gridfile>  (297) 
pfpi4k_grid

>  <i_i_glide_lignum>  (297) 
1

>  <i_i_glide_rotatable_bonds>  (297) 
2

>  <r_i_docking_score>  (297) 
-2.63545

>  <r_i_glide_ligand_efficiency>  (297) 
-0.188246

>  <r_i_glide_ligand_efficiency_sa>  (297) 
-0.453701

>  <r_i_glide_ligand_efficiency_ln>  (297) 
-0.724212

>  <r_i_glide_gscore>  (297) 
-2.63545

>  <r_i_glide_lipo>  (297) 
-0.161466

>  <r_i_glide_hbond>  (297) 
0

>  <r_i_glide_metal>  (297) 
-0

>  <r_i_glide_rewards>  (297) 
-1.50302

>  <r_i_glide_evdw>  (297) 
-17.1815

>  <r_i_glide_ecoul>  (297) 
-0.745963

>  <r_i_glide_erotb>  (297) 
0

>  <r_i_glide_esite>  (297) 
0

>  <r_i_glide_emodel>  (297) 
-21.5111

>  <r_i_glide_energy>  (297) 
-17.9274

>  <r_i_glide_einternal>  (297) 
0.114196

>  <r_i_glide_intrahb_reward>  (297) 
-0

>  <i_i_glide_confnum>  (297) 
1

>  <i_i_glide_posenum>  (297) 
2

>  <r_i_glide_eff_state_penalty>  (297) 
0

>  <ligand_id>  (297) 
86

>  <original_smiles>  (297) 
OC1C(Br)C2C3C1C(O)C1(CC31)C2Cl

>  <smiles>  (297) 
[H]OC1([H])C([H])(Br)C2([H])C([H])(Cl)C34C([H])([H])C3([H])C2([H])C1([H])C4([H])O[H]

$$$$
87:1:0
     RDKit          3D

 51 56  0  0  1  0  0  0  0  0999 V2000
   -7.5912  -12.8122   -7.3315 C   0  0  0  0  0  0  0  0  0  0  0  0
   -7.7951  -11.4035   -7.7541 N   0  0  0  0  0  0  0  0  0  0  0  0
   -8.0784  -11.2768   -9.2218 C   0  0  0  0  0  0  0  0  0  0  0  0
   -8.3217   -9.8415   -9.7501 C   0  0  0  0  0  0  0  0  0  0  0  0
   -8.8490   -9.0241   -8.5612 C   0  0  2  0  0  0  0  0  0  0  0  0
  -10.2055   -9.7231   -8.1339 C   0  0  0  0  0  0  0  0  0  0  0  0
  -11.2317   -9.2544   -9.1992 C   0  0  0  0  0  0  0  0  0  0  0  0
  -10.6963   -7.9787   -9.7314 N   0  0  1  0  0  0  0  0  0  0  0  0
  -11.7285   -6.9251   -9.8925 C   0  0  0  0  0  0  0  0  0  0  0  0
   -9.6265   -7.7103   -8.7678 C   0  0  2  0  0  0  0  0  0  0  0  0
   -8.8213   -6.4657   -8.7836 C   0  0  0  0  0  0  0  0  0  0  0  0
   -8.2859   -6.3213   -7.3634 C   0  0  0  0  0  0  0  0  0  0  0  0
   -8.1758   -5.1298   -6.6191 C   0  0  0  0  0  0  0  0  0  0  0  0
   -7.2262   -5.0455   -5.5780 C   0  0  0  0  0  0  0  0  0  0  0  0
   -6.2661   -6.0774   -5.4624 C   0  0  0  0  0  0  0  0  0  0  0  0
   -5.1423   -5.8575   -4.7240 O   0  0  0  0  0  0  0  0  0  0  0  0
   -6.4146   -7.2597   -6.2205 C   0  0  0  0  0  0  0  0  0  0  0  0
   -7.5948   -7.4811   -6.8940 C   0  0  0  0  0  0  0  0  0  0  0  0
   -7.6164   -8.9039   -7.5338 C   0  0  1  0  0  0  0  0  0  0  0  0
   -7.5035  -10.3492   -6.9950 C   0  0  0  0  0  0  0  0  0  0  0  0
   -6.3875  -10.5513   -6.0520 C   0  0  0  0  0  0  0  0  0  0  0  0
   -5.2942  -10.0829   -6.9974 C   0  0  1  0  0  0  0  0  0  0  0  0
   -4.8558  -11.0796   -7.9077 O   0  0  0  0  0  0  0  0  0  0  0  0
   -6.0044   -8.9003   -7.7206 C   0  0  2  0  0  0  0  0  0  0  0  0
   -5.4175   -7.9850   -6.7741 O   0  0  0  0  0  0  0  0  0  0  0  0
   -8.1394  -13.4605   -8.0104 H   0  0  0  0  0  0  0  0  0  0  0  0
   -7.9431  -12.9676   -6.3148 H   0  0  0  0  0  0  0  0  0  0  0  0
   -6.5349  -13.0626   -7.4200 H   0  0  0  0  0  0  0  0  0  0  0  0
   -7.2973  -11.8007   -9.7709 H   0  0  0  0  0  0  0  0  0  0  0  0
   -8.9805  -11.8475   -9.3757 H   0  0  0  0  0  0  0  0  0  0  0  0
   -7.3794   -9.4290  -10.0886 H   0  0  0  0  0  0  0  0  0  0  0  0
   -8.9762   -9.8526  -10.6261 H   0  0  0  0  0  0  0  0  0  0  0  0
  -10.2426  -10.8072   -8.0411 H   0  0  0  0  0  0  0  0  0  0  0  0
  -10.5037   -9.3735   -7.1374 H   0  0  0  0  0  0  0  0  0  0  0  0
  -11.3403   -9.9764  -10.0039 H   0  0  0  0  0  0  0  0  0  0  0  0
  -12.2127   -9.1402   -8.7475 H   0  0  0  0  0  0  0  0  0  0  0  0
  -12.1908   -6.6664   -8.9471 H   0  0  0  0  0  0  0  0  0  0  0  0
  -12.5170   -7.2579  -10.5624 H   0  0  0  0  0  0  0  0  0  0  0  0
  -11.3182   -6.0210  -10.3187 H   0  0  0  0  0  0  0  0  0  0  0  0
  -10.2249   -7.4765   -7.8817 H   0  0  0  0  0  0  0  0  0  0  0  0
   -7.9965   -6.5065   -9.4971 H   0  0  0  0  0  0  0  0  0  0  0  0
   -9.4134   -5.5817   -9.0031 H   0  0  0  0  0  0  0  0  0  0  0  0
   -8.7340   -4.2473   -6.9134 H   0  0  0  0  0  0  0  0  0  0  0  0
   -7.1105   -4.1141   -5.0418 H   0  0  0  0  0  0  0  0  0  0  0  0
   -5.1361   -4.9949   -4.3378 H   0  0  0  0  0  0  0  0  0  0  0  0
   -6.5148   -9.8618   -5.2221 H   0  0  0  0  0  0  0  0  0  0  0  0
   -4.3995   -9.8012   -6.4215 H   0  0  0  0  0  0  0  0  0  0  0  0
   -4.4066  -11.7385   -7.3991 H   0  0  0  0  0  0  0  0  0  0  0  0
   -5.6422   -8.6759   -8.7232 H   0  0  0  0  0  0  0  0  0  0  0  0
   -6.2323  -11.5641   -5.6791 H   0  0  0  0  0  0  0  0  0  0  0  0
  -10.2908   -8.1649  -10.6374 H   0  0  0  0  0  0  0  0  0  0  0  0
  1  2  1  0
  1 26  1  0
  1 27  1  0
  1 28  1  0
  2 20  2  0
  2  3  1  0
  3  4  1  0
  3 29  1  0
  3 30  1  0
  5  4  1  6
  4 31  1  0
  4 32  1  0
  5 10  1  0
  5 19  1  0
  5  6  1  0
  6  7  1  0
  6 33  1  0
  6 34  1  0
  7  8  1  0
  7 35  1  0
  7 36  1  0
  8  9  1  0
  8 10  1  0
  8 51  1  6
  9 37  1  0
  9 38  1  0
  9 39  1  0
 10 11  1  0
 10 40  1  1
 11 12  1  0
 11 41  1  0
 11 42  1  0
 12 18  2  0
 12 13  1  0
 13 14  2  0
 13 43  1  0
 14 15  1  0
 14 44  1  0
 15 16  1  0
 15 17  2  0
 16 45  1  0
 17 25  1  0
 17 18  1  0
 18 19  1  0
 19 24  1  0
 19 20  1  1
 20 21  1  0
 21 22  1  0
 21 46  1  0
 21 50  1  0
 22 23  1  0
 22 24  1  0
 22 47  1  1
 23 48  1  0
 24 25  1  0
 24 49  1  6
M  CHG  2   2   1   8   1
M  END
>  <i_m_ct_stereo_status>  (298) 
1

>  <s_m_source_file>  (298) 
/var/tmp/pbs.5076255.sched01/tmpcwktr4ti/1290j0z1rin.sdf

>  <i_m_source_file_index>  (298) 
3

>  <i_lp_mmshare_version>  (298) 
48012

>  <i_f3d_flags>  (298) 
0

>  <s_epik_input>  (298) 
W0NIMl0xW0NIMl1OKFtDSDNdKUMyPVtDSF1bQ0BASF0oW09IXSlbQ0BASF0zT2M0YyhbT0hdKVtjSF1bY0hdYyhjNFtDQF0yM0MxNTYpW0NIMl1bQ0BIXTZOKFtDSDNdKVtDSDJdW0NIMl01

>  <s_epik_cmdline>  (298) 
J2VwaWtfcHl0aG9uJywgJy1waHQnLCAnMi4wJywgJy1waCcsICc3LjAnLCAnLXRuJywgJzgnLCAnLW1hJywgJzIwMCcsICctaW1hZScsICc8aW5maWxlLm1hZT4nLCAnLW9tYWUnLCAnPG91dGZpbGUubWFlPic=

>  <r_lp_tautomer_probability>  (298) 
1

>  <r_epik_Ionization_Penalty>  (298) 
0.084924

>  <r_epik_Ionization_Penalty_Charging>  (298) 
0.0202482

>  <r_epik_Ionization_Penalty_Neutral>  (298) 
0.0646758

>  <r_epik_State_Penalty>  (298) 
0.0343416

>  <r_epik_Charging_Adjusted_Penalty>  (298) 
0.0545898

>  <i_epik_Tot_Q>  (298) 
2

>  <i_epik_Tot_abs_Q>  (298) 
2

>  <s_epik_Chemistry_Notes>  (298) 
This compound has an imine and may undergo hydrolysis.

>  <s_lp_Force_Field>  (298) 
OPLS3e

>  <r_lp_Energy>  (298) 
188.345

>  <b_lp_Chiralities_Consistent>  (298) 
1

>  <s_lp_Variant>  (298) 
87:0-2

>  <s_i_glide_gridfile>  (298) 
pfpi4k_grid

>  <i_i_glide_lignum>  (298) 
3

>  <i_i_glide_rotatable_bonds>  (298) 
2

>  <r_i_docking_score>  (298) 
-6.94845

>  <r_i_glide_ligand_efficiency>  (298) 
-0.277938

>  <r_i_glide_ligand_efficiency_sa>  (298) 
-0.812696

>  <r_i_glide_ligand_efficiency_ln>  (298) 
-1.64699

>  <r_i_glide_gscore>  (298) 
-6.94845

>  <r_i_glide_lipo>  (298) 
-2.44897

>  <r_i_glide_hbond>  (298) 
0

>  <r_i_glide_metal>  (298) 
-0

>  <r_i_glide_rewards>  (298) 
-2.49484

>  <r_i_glide_evdw>  (298) 
-25.5201

>  <r_i_glide_ecoul>  (298) 
-4.81822

>  <r_i_glide_erotb>  (298) 
0

>  <r_i_glide_esite>  (298) 
-0.00590203

>  <r_i_glide_emodel>  (298) 
-40.3166

>  <r_i_glide_energy>  (298) 
-30.3384

>  <r_i_glide_einternal>  (298) 
0.319664

>  <r_i_glide_intrahb_reward>  (298) 
-0

>  <i_i_glide_confnum>  (298) 
1

>  <i_i_glide_posenum>  (298) 
16

>  <r_i_glide_eff_state_penalty>  (298) 
0

>  <ligand_id>  (298) 
87

>  <original_smiles>  (298) 
CN1CCC23CCN(C)C2Cc2ccc(O)c4c2C32C1=CC(O)C2O4

>  <smiles>  (298) 
[H]Oc1c([H])c([H])c2c3c1OC1([H])C([H])(O[H])C([H])([H])C4=[N+](C([H])([H])[H])C([H])([H])C([H])([H])C5(C([H])([H])C([H])([H])[N+]([H])(C([H])([H])[H])C5([H])C2([H])[H])C431

$$$$
87:1:1
     RDKit          3D

 51 56  0  0  1  0  0  0  0  0999 V2000
   -7.8248  -12.2856   -7.3264 C   0  0  0  0  0  0  0  0  0  0  0  0
   -8.1690  -10.9320   -7.8344 N   0  0  0  0  0  0  0  0  0  0  0  0
   -8.3771  -10.9155   -9.3238 C   0  0  0  0  0  0  0  0  0  0  0  0
   -8.7396   -9.5428   -9.9436 C   0  0  0  0  0  0  0  0  0  0  0  0
   -9.4327   -8.7353   -8.8298 C   0  0  2  0  0  0  0  0  0  0  0  0
  -10.7256   -9.5696   -8.4297 C   0  0  0  0  0  0  0  0  0  0  0  0
  -11.7409   -9.2820   -9.5713 C   0  0  0  0  0  0  0  0  0  0  0  0
  -11.3289   -7.9785  -10.1481 N   0  0  1  0  0  0  0  0  0  0  0  0
  -12.4666   -7.0637  -10.4224 C   0  0  0  0  0  0  0  0  0  0  0  0
  -10.3552   -7.5342   -9.1439 C   0  0  2  0  0  0  0  0  0  0  0  0
   -9.6999   -6.2043   -9.1981 C   0  0  0  0  0  0  0  0  0  0  0  0
   -9.2506   -5.9220   -7.7716 C   0  0  0  0  0  0  0  0  0  0  0  0
   -9.3287   -4.6957   -7.0824 C   0  0  0  0  0  0  0  0  0  0  0  0
   -8.4525   -4.4481   -6.0010 C   0  0  0  0  0  0  0  0  0  0  0  0
   -7.3868   -5.3458   -5.7842 C   0  0  0  0  0  0  0  0  0  0  0  0
   -6.3443   -4.9817   -4.9834 O   0  0  0  0  0  0  0  0  0  0  0  0
   -7.3557   -6.5719   -6.4811 C   0  0  0  0  0  0  0  0  0  0  0  0
   -8.4491   -6.9618   -7.2182 C   0  0  0  0  0  0  0  0  0  0  0  0
   -8.2805   -8.4189   -7.7539 C   0  0  1  0  0  0  0  0  0  0  0  0
   -8.0420   -9.8148   -7.1231 C   0  0  0  0  0  0  0  0  0  0  0  0
   -6.9740   -9.8331   -6.1038 C   0  0  0  0  0  0  0  0  0  0  0  0
   -5.8843   -9.2988   -7.0244 C   0  0  1  0  0  0  0  0  0  0  0  0
   -5.2950  -10.2807   -7.8589 O   0  0  0  0  0  0  0  0  0  0  0  0
   -6.6734   -8.2416   -7.8482 C   0  0  2  0  0  0  0  0  0  0  0  0
   -6.2622   -7.2418   -6.8902 O   0  0  0  0  0  0  0  0  0  0  0  0
   -8.2555  -13.0271   -7.9958 H   0  0  0  0  0  0  0  0  0  0  0  0
   -8.2138  -12.4305   -6.3217 H   0  0  0  0  0  0  0  0  0  0  0  0
   -6.7430  -12.4123   -7.3454 H   0  0  0  0  0  0  0  0  0  0  0  0
   -7.5069  -11.3691   -9.8009 H   0  0  0  0  0  0  0  0  0  0  0  0
   -9.2024  -11.5963   -9.4932 H   0  0  0  0  0  0  0  0  0  0  0  0
   -7.8225   -9.0481  -10.2602 H   0  0  0  0  0  0  0  0  0  0  0  0
   -9.3428   -9.6743  -10.8450 H   0  0  0  0  0  0  0  0  0  0  0  0
  -10.6429  -10.6445   -8.2760 H   0  0  0  0  0  0  0  0  0  0  0  0
  -11.1241   -9.2089   -7.4718 H   0  0  0  0  0  0  0  0  0  0  0  0
  -11.7141  -10.0519  -10.3412 H   0  0  0  0  0  0  0  0  0  0  0  0
  -12.7537   -9.2590   -9.1727 H   0  0  0  0  0  0  0  0  0  0  0  0
  -13.0209   -6.8327   -9.5178 H   0  0  0  0  0  0  0  0  0  0  0  0
  -13.1613   -7.5255  -11.1215 H   0  0  0  0  0  0  0  0  0  0  0  0
  -12.1332   -6.1329  -10.8693 H   0  0  0  0  0  0  0  0  0  0  0  0
  -11.0224   -7.3294   -8.2977 H   0  0  0  0  0  0  0  0  0  0  0  0
   -8.8364   -6.1867   -9.8639 H   0  0  0  0  0  0  0  0  0  0  0  0
  -10.3861   -5.4143   -9.4923 H   0  0  0  0  0  0  0  0  0  0  0  0
   -9.9790   -3.9068   -7.4349 H   0  0  0  0  0  0  0  0  0  0  0  0
   -8.4865   -3.4930   -5.5000 H   0  0  0  0  0  0  0  0  0  0  0  0
   -6.4425   -4.1249   -4.5991 H   0  0  0  0  0  0  0  0  0  0  0  0
   -7.2305   -9.1311   -5.3180 H   0  0  0  0  0  0  0  0  0  0  0  0
   -5.0529   -8.8943   -6.4292 H   0  0  0  0  0  0  0  0  0  0  0  0
   -4.8114  -10.8653   -7.2947 H   0  0  0  0  0  0  0  0  0  0  0  0
   -6.2803   -8.0252   -8.8450 H   0  0  0  0  0  0  0  0  0  0  0  0
   -6.7406  -10.7942   -5.6587 H   0  0  0  0  0  0  0  0  0  0  0  0
  -10.8448   -8.1596  -11.0184 H   0  0  0  0  0  0  0  0  0  0  0  0
  1  2  1  0
  1 26  1  0
  1 27  1  0
  1 28  1  0
  2 20  2  0
  2  3  1  0
  3  4  1  0
  3 29  1  0
  3 30  1  0
  5  4  1  6
  4 31  1  0
  4 32  1  0
  5 10  1  0
  5 19  1  0
  5  6  1  0
  6  7  1  0
  6 33  1  0
  6 34  1  0
  7  8  1  0
  7 35  1  0
  7 36  1  0
  8  9  1  0
  8 10  1  0
  8 51  1  6
  9 37  1  0
  9 38  1  0
  9 39  1  0
 10 11  1  0
 10 40  1  1
 11 12  1  0
 11 41  1  0
 11 42  1  0
 12 18  2  0
 12 13  1  0
 13 14  2  0
 13 43  1  0
 14 15  1  0
 14 44  1  0
 15 16  1  0
 15 17  2  0
 16 45  1  0
 17 25  1  0
 17 18  1  0
 18 19  1  0
 19 24  1  0
 19 20  1  1
 20 21  1  0
 21 22  1  0
 21 46  1  0
 21 50  1  0
 22 23  1  0
 22 24  1  0
 22 47  1  1
 23 48  1  0
 24 25  1  0
 24 49  1  6
M  CHG  2   2   1   8   1
M  END
>  <i_m_ct_stereo_status>  (299) 
1

>  <s_m_source_file>  (299) 
/var/tmp/pbs.5076255.sched01/tmpcwktr4ti/1290j0z1rin.sdf

>  <i_m_source_file_index>  (299) 
3

>  <i_lp_mmshare_version>  (299) 
48012

>  <i_f3d_flags>  (299) 
0

>  <s_epik_input>  (299) 
W0NIMl0xW0NIMl1OKFtDSDNdKUMyPVtDSF1bQ0BASF0oW09IXSlbQ0BASF0zT2M0YyhbT0hdKVtjSF1bY0hdYyhjNFtDQF0yM0MxNTYpW0NIMl1bQ0BIXTZOKFtDSDNdKVtDSDJdW0NIMl01

>  <s_epik_cmdline>  (299) 
J2VwaWtfcHl0aG9uJywgJy1waHQnLCAnMi4wJywgJy1waCcsICc3LjAnLCAnLXRuJywgJzgnLCAnLW1hJywgJzIwMCcsICctaW1hZScsICc8aW5maWxlLm1hZT4nLCAnLW9tYWUnLCAnPG91dGZpbGUubWFlPic=

>  <r_lp_tautomer_probability>  (299) 
1

>  <r_epik_Ionization_Penalty>  (299) 
0.084924

>  <r_epik_Ionization_Penalty_Charging>  (299) 
0.0202482

>  <r_epik_Ionization_Penalty_Neutral>  (299) 
0.0646758

>  <r_epik_State_Penalty>  (299) 
0.0343416

>  <r_epik_Charging_Adjusted_Penalty>  (299) 
0.0545898

>  <i_epik_Tot_Q>  (299) 
2

>  <i_epik_Tot_abs_Q>  (299) 
2

>  <s_epik_Chemistry_Notes>  (299) 
This compound has an imine and may undergo hydrolysis.

>  <s_lp_Force_Field>  (299) 
OPLS3e

>  <r_lp_Energy>  (299) 
188.345

>  <b_lp_Chiralities_Consistent>  (299) 
1

>  <s_lp_Variant>  (299) 
87:0-2

>  <s_i_glide_gridfile>  (299) 
pfpi4k_grid

>  <i_i_glide_lignum>  (299) 
3

>  <i_i_glide_rotatable_bonds>  (299) 
2

>  <r_i_docking_score>  (299) 
-5.74124

>  <r_i_glide_ligand_efficiency>  (299) 
-0.229649

>  <r_i_glide_ligand_efficiency_sa>  (299) 
-0.671499

>  <r_i_glide_ligand_efficiency_ln>  (299) 
-1.36085

>  <r_i_glide_gscore>  (299) 
-5.74124

>  <r_i_glide_lipo>  (299) 
-2.18868

>  <r_i_glide_hbond>  (299) 
0

>  <r_i_glide_metal>  (299) 
-0

>  <r_i_glide_rewards>  (299) 
-1.82327

>  <r_i_glide_evdw>  (299) 
-24.0221

>  <r_i_glide_ecoul>  (299) 
-3.44302

>  <r_i_glide_erotb>  (299) 
0

>  <r_i_glide_esite>  (299) 
-0.0117305

>  <r_i_glide_emodel>  (299) 
-35.5298

>  <r_i_glide_energy>  (299) 
-27.4651

>  <r_i_glide_einternal>  (299) 
0.337384

>  <r_i_glide_intrahb_reward>  (299) 
-0

>  <i_i_glide_confnum>  (299) 
1

>  <i_i_glide_posenum>  (299) 
2

>  <r_i_glide_eff_state_penalty>  (299) 
0

>  <ligand_id>  (299) 
87

>  <original_smiles>  (299) 
CN1CCC23CCN(C)C2Cc2ccc(O)c4c2C32C1=CC(O)C2O4

>  <smiles>  (299) 
[H]Oc1c([H])c([H])c2c3c1OC1([H])C([H])(O[H])C([H])([H])C4=[N+](C([H])([H])[H])C([H])([H])C([H])([H])C5(C([H])([H])C([H])([H])[N+]([H])(C([H])([H])[H])C5([H])C2([H])[H])C431

$$$$
87:1:2
     RDKit          3D

 51 56  0  0  1  0  0  0  0  0999 V2000
   -8.3852  -13.0505  -10.2919 C   0  0  0  0  0  0  0  0  0  0  0  0
   -8.0858  -12.1193   -9.1764 N   0  0  0  0  0  0  0  0  0  0  0  0
   -7.7866  -12.8313   -7.8895 C   0  0  0  0  0  0  0  0  0  0  0  0
   -7.4608  -11.9364   -6.6662 C   0  0  0  0  0  0  0  0  0  0  0  0
   -6.8929  -10.6253   -7.2337 C   0  0  2  0  0  0  0  0  0  0  0  0
   -5.5902  -11.0358   -8.0291 C   0  0  0  0  0  0  0  0  0  0  0  0
   -4.5148  -11.2823   -6.9282 C   0  0  0  0  0  0  0  0  0  0  0  0
   -4.9541  -10.4727   -5.7767 N   0  0  1  0  0  0  0  0  0  0  0  0
   -3.8646   -9.7238   -5.1142 C   0  0  0  0  0  0  0  0  0  0  0  0
   -5.9998   -9.6706   -6.4086 C   0  0  2  0  0  0  0  0  0  0  0  0
   -6.7126   -8.6138   -5.6944 C   0  0  0  0  0  0  0  0  0  0  0  0
   -7.2827   -7.6856   -6.7616 C   0  0  0  0  0  0  0  0  0  0  0  0
   -7.3647   -6.2812   -6.6943 C   0  0  0  0  0  0  0  0  0  0  0  0
   -8.3166   -5.5945   -7.4760 C   0  0  0  0  0  0  0  0  0  0  0  0
   -9.3314   -6.3516   -8.1029 C   0  0  0  0  0  0  0  0  0  0  0  0
  -10.4516   -5.7143   -8.5443 O   0  0  0  0  0  0  0  0  0  0  0  0
   -9.2309   -7.7593   -8.1344 C   0  0  0  0  0  0  0  0  0  0  0  0
   -8.0514   -8.3660   -7.7555 C   0  0  0  0  0  0  0  0  0  0  0  0
   -8.1174   -9.9056   -7.9874 C   0  0  1  0  0  0  0  0  0  0  0  0
   -8.3236  -10.8105   -9.2226 C   0  0  0  0  0  0  0  0  0  0  0  0
   -9.4621  -10.4135  -10.0745 C   0  0  0  0  0  0  0  0  0  0  0  0
  -10.5130  -10.4882   -8.9727 C   0  0  1  0  0  0  0  0  0  0  0  0
  -10.9990  -11.7882   -8.6894 O   0  0  0  0  0  0  0  0  0  0  0  0
   -9.7233   -9.9295   -7.7540 C   0  0  2  0  0  0  0  0  0  0  0  0
  -10.2639   -8.6225   -8.0239 O   0  0  0  0  0  0  0  0  0  0  0  0
   -7.8702  -13.9894  -10.1028 H   0  0  0  0  0  0  0  0  0  0  0  0
   -8.0497  -12.6402  -11.2425 H   0  0  0  0  0  0  0  0  0  0  0  0
   -9.4553  -13.2558  -10.3088 H   0  0  0  0  0  0  0  0  0  0  0  0
   -8.5923  -13.5384   -7.6903 H   0  0  0  0  0  0  0  0  0  0  0  0
   -6.9149  -13.4312   -8.1092 H   0  0  0  0  0  0  0  0  0  0  0  0
   -8.3841  -11.7485   -6.1253 H   0  0  0  0  0  0  0  0  0  0  0  0
   -6.7958  -12.4529   -5.9692 H   0  0  0  0  0  0  0  0  0  0  0  0
   -5.6131  -11.8827   -8.7137 H   0  0  0  0  0  0  0  0  0  0  0  0
   -5.3474  -10.1843   -8.6874 H   0  0  0  0  0  0  0  0  0  0  0  0
   -4.4470  -12.3261   -6.6456 H   0  0  0  0  0  0  0  0  0  0  0  0
   -3.5317  -10.9951   -7.2831 H   0  0  0  0  0  0  0  0  0  0  0  0
   -3.3882   -9.0016   -5.7622 H   0  0  0  0  0  0  0  0  0  0  0  0
   -3.0978  -10.4065   -4.7534 H   0  0  0  0  0  0  0  0  0  0  0  0
   -4.2312   -9.1767   -4.2544 H   0  0  0  0  0  0  0  0  0  0  0  0
   -5.4035   -9.0108   -7.0426 H   0  0  0  0  0  0  0  0  0  0  0  0
   -7.4839   -9.1287   -5.1346 H   0  0  0  0  0  0  0  0  0  0  0  0
   -6.1011   -8.0186   -5.0172 H   0  0  0  0  0  0  0  0  0  0  0  0
   -6.7540   -5.7307   -5.9868 H   0  0  0  0  0  0  0  0  0  0  0  0
   -8.3923   -4.5202   -7.4134 H   0  0  0  0  0  0  0  0  0  0  0  0
  -11.1905   -6.2890   -8.6832 H   0  0  0  0  0  0  0  0  0  0  0  0
   -9.2979   -9.3946  -10.4046 H   0  0  0  0  0  0  0  0  0  0  0  0
  -11.3985   -9.9036   -9.2597 H   0  0  0  0  0  0  0  0  0  0  0  0
  -11.6426  -11.7023   -8.0010 H   0  0  0  0  0  0  0  0  0  0  0  0
  -10.0553  -10.2924   -6.7785 H   0  0  0  0  0  0  0  0  0  0  0  0
   -9.6739  -11.0246  -10.9506 H   0  0  0  0  0  0  0  0  0  0  0  0
   -5.3545  -11.0943   -5.0861 H   0  0  0  0  0  0  0  0  0  0  0  0
  1  2  1  0
  1 26  1  0
  1 27  1  0
  1 28  1  0
  2 20  2  0
  2  3  1  0
  3  4  1  0
  3 29  1  0
  3 30  1  0
  5  4  1  1
  4 31  1  0
  4 32  1  0
  5 10  1  0
  5 19  1  0
  5  6  1  0
  6  7  1  0
  6 33  1  0
  6 34  1  0
  7  8  1  0
  7 35  1  0
  7 36  1  0
  8  9  1  0
  8 10  1  0
  8 51  1  1
  9 37  1  0
  9 38  1  0
  9 39  1  0
 10 11  1  0
 10 40  1  6
 11 12  1  0
 11 41  1  0
 11 42  1  0
 12 18  2  0
 12 13  1  0
 13 14  2  0
 13 43  1  0
 14 15  1  0
 14 44  1  0
 15 16  1  0
 15 17  2  0
 16 45  1  0
 17 25  1  0
 17 18  1  0
 18 19  1  0
 19 24  1  0
 19 20  1  6
 20 21  1  0
 21 22  1  0
 21 46  1  0
 21 50  1  0
 22 23  1  0
 22 24  1  0
 22 47  1  6
 23 48  1  0
 24 25  1  0
 24 49  1  1
M  CHG  2   2   1   8   1
M  END
>  <i_m_ct_stereo_status>  (300) 
1

>  <s_m_source_file>  (300) 
/var/tmp/pbs.5076255.sched01/tmpcwktr4ti/1290j0z1rin.sdf

>  <i_m_source_file_index>  (300) 
3

>  <i_lp_mmshare_version>  (300) 
48012

>  <i_f3d_flags>  (300) 
0

>  <s_epik_input>  (300) 
W0NIMl0xW0NIMl1OKFtDSDNdKUMyPVtDSF1bQ0BASF0oW09IXSlbQ0BASF0zT2M0YyhbT0hdKVtjSF1bY0hdYyhjNFtDQF0yM0MxNTYpW0NIMl1bQ0BIXTZOKFtDSDNdKVtDSDJdW0NIMl01

>  <s_epik_cmdline>  (300) 
J2VwaWtfcHl0aG9uJywgJy1waHQnLCAnMi4wJywgJy1waCcsICc3LjAnLCAnLXRuJywgJzgnLCAnLW1hJywgJzIwMCcsICctaW1hZScsICc8aW5maWxlLm1hZT4nLCAnLW9tYWUnLCAnPG91dGZpbGUubWFlPic=

>  <r_lp_tautomer_probability>  (300) 
1

>  <r_epik_Ionization_Penalty>  (300) 
0.084924

>  <r_epik_Ionization_Penalty_Charging>  (300) 
0.0202482

>  <r_epik_Ionization_Penalty_Neutral>  (300) 
0.0646758

>  <r_epik_State_Penalty>  (300) 
0.0343416

>  <r_epik_Charging_Adjusted_Penalty>  (300) 
0.0545898

>  <i_epik_Tot_Q>  (300) 
2

>  <i_epik_Tot_abs_Q>  (300) 
2

>  <s_epik_Chemistry_Notes>  (300) 
This compound has an imine and may undergo hydrolysis.

>  <s_lp_Force_Field>  (300) 
OPLS3e

>  <r_lp_Energy>  (300) 
188.345

>  <b_lp_Chiralities_Consistent>  (300) 
1

>  <s_lp_Variant>  (300) 
87:0-2

>  <s_i_glide_gridfile>  (300) 
pfpi4k_grid

>  <i_i_glide_lignum>  (300) 
3

>  <i_i_glide_rotatable_bonds>  (300) 
2

>  <r_i_docking_score>  (300) 
-5.32187

>  <r_i_glide_ligand_efficiency>  (300) 
-0.212875

>  <r_i_glide_ligand_efficiency_sa>  (300) 
-0.62245

>  <r_i_glide_ligand_efficiency_ln>  (300) 
-1.26144

>  <r_i_glide_gscore>  (300) 
-5.32187

>  <r_i_glide_lipo>  (300) 
-1.83539

>  <r_i_glide_hbond>  (300) 
0

>  <r_i_glide_metal>  (300) 
-0

>  <r_i_glide_rewards>  (300) 
-1.62799

>  <r_i_glide_evdw>  (300) 
-22.1592

>  <r_i_glide_ecoul>  (300) 
-5.00355

>  <r_i_glide_erotb>  (300) 
0

>  <r_i_glide_esite>  (300) 
0

>  <r_i_glide_emodel>  (300) 
-34.2056

>  <r_i_glide_energy>  (300) 
-27.1628

>  <r_i_glide_einternal>  (300) 
0.574062

>  <r_i_glide_intrahb_reward>  (300) 
-0

>  <i_i_glide_confnum>  (300) 
1

>  <i_i_glide_posenum>  (300) 
6

>  <r_i_glide_eff_state_penalty>  (300) 
0

>  <ligand_id>  (300) 
87

>  <original_smiles>  (300) 
CN1CCC23CCN(C)C2Cc2ccc(O)c4c2C32C1=CC(O)C2O4

>  <smiles>  (300) 
[H]Oc1c([H])c([H])c2c3c1OC1([H])C([H])(O[H])C([H])([H])C4=[N+](C([H])([H])[H])C([H])([H])C([H])([H])C5(C([H])([H])C([H])([H])[N+]([H])(C([H])([H])[H])C5([H])C2([H])[H])C431

$$$$
87:2:0
     RDKit          3D

 50 55  0  0  1  0  0  0  0  0999 V2000
    3.0142   -2.5125    4.7464 C   0  0  0  0  0  0  0  0  0  0  0  0
    3.3484   -2.7585    3.3237 N   0  0  0  0  0  0  0  0  0  0  0  0
    2.3605   -2.2098    2.3709 C   0  0  0  0  0  0  0  0  0  0  0  0
    2.2537   -3.0710    1.1154 C   0  0  0  0  0  0  0  0  0  0  0  0
    3.6313   -3.2033    0.4561 C   0  0  1  0  0  0  0  0  0  0  0  0
    3.4795   -4.0229   -0.8388 C   0  0  0  0  0  0  0  0  0  0  0  0
    4.5120   -3.4524   -1.7947 C   0  0  0  0  0  0  0  0  0  0  0  0
    4.4822   -2.0008   -1.5363 N   0  0  1  0  0  0  0  0  0  0  0  0
    3.6247   -1.2779   -2.5070 C   0  0  0  0  0  0  0  0  0  0  0  0
    4.0800   -1.7978   -0.1107 C   0  0  2  0  0  0  0  0  0  0  0  0
    5.2287   -1.1297    0.6954 C   0  0  0  0  0  0  0  0  0  0  0  0
    6.4274   -2.0478    0.7665 C   0  0  0  0  0  0  0  0  0  0  0  0
    7.7510   -1.8193    0.3571 C   0  0  0  0  0  0  0  0  0  0  0  0
    8.6263   -2.9200    0.2104 C   0  0  0  0  0  0  0  0  0  0  0  0
    8.1787   -4.2422    0.4491 C   0  0  0  0  0  0  0  0  0  0  0  0
    9.0089   -5.2982    0.2171 O   0  0  0  0  0  0  0  0  0  0  0  0
    6.8653   -4.4713    0.8905 C   0  0  0  0  0  0  0  0  0  0  0  0
    6.0669   -3.3659    1.0675 C   0  0  0  0  0  0  0  0  0  0  0  0
    4.6865   -3.8138    1.4797 C   0  0  1  0  0  0  0  0  0  0  0  0
    4.3206   -3.5401    2.9338 C   0  0  0  0  0  0  0  0  0  0  0  0
    5.0798   -4.4361    3.8500 C   0  0  0  0  0  0  0  0  0  0  0  0
    4.9791   -5.7559    3.0864 C   0  0  1  0  0  0  0  0  0  0  0  0
    3.8170   -6.4651    3.4684 O   0  0  0  0  0  0  0  0  0  0  0  0
    4.9169   -5.3700    1.5881 C   0  0  2  0  0  0  0  0  0  0  0  0
    6.2252   -5.6554    1.0806 O   0  0  0  0  0  0  0  0  0  0  0  0
    2.3290   -1.6651    4.8050 H   0  0  0  0  0  0  0  0  0  0  0  0
    3.9171   -2.2800    5.3131 H   0  0  0  0  0  0  0  0  0  0  0  0
    2.5116   -3.3951    5.1473 H   0  0  0  0  0  0  0  0  0  0  0  0
    1.3930   -2.1680    2.8736 H   0  0  0  0  0  0  0  0  0  0  0  0
    2.6574   -1.1833    2.1552 H   0  0  0  0  0  0  0  0  0  0  0  0
    1.8753   -4.0532    1.4024 H   0  0  0  0  0  0  0  0  0  0  0  0
    1.5373   -2.6522    0.4193 H   0  0  0  0  0  0  0  0  0  0  0  0
    3.5836   -5.0939   -0.7171 H   0  0  0  0  0  0  0  0  0  0  0  0
    2.4964   -3.8515   -1.2860 H   0  0  0  0  0  0  0  0  0  0  0  0
    5.5089   -3.8302   -1.5596 H   0  0  0  0  0  0  0  0  0  0  0  0
    4.3147   -3.7078   -2.8382 H   0  0  0  0  0  0  0  0  0  0  0  0
    2.5833   -1.6051   -2.4434 H   0  0  0  0  0  0  0  0  0  0  0  0
    3.9700   -1.4389   -3.5310 H   0  0  0  0  0  0  0  0  0  0  0  0
    3.6604   -0.2066   -2.3205 H   0  0  0  0  0  0  0  0  0  0  0  0
    3.2323   -1.1033   -0.0974 H   0  0  0  0  0  0  0  0  0  0  0  0
    5.5333   -0.1925    0.2310 H   0  0  0  0  0  0  0  0  0  0  0  0
    4.9096   -0.8885    1.7086 H   0  0  0  0  0  0  0  0  0  0  0  0
    8.0796   -0.8184    0.0944 H   0  0  0  0  0  0  0  0  0  0  0  0
    9.6250   -2.7399   -0.1369 H   0  0  0  0  0  0  0  0  0  0  0  0
    6.1163   -4.1161    3.8598 H   0  0  0  0  0  0  0  0  0  0  0  0
    5.8308   -6.4019    3.3047 H   0  0  0  0  0  0  0  0  0  0  0  0
    3.0626   -5.9161    3.3281 H   0  0  0  0  0  0  0  0  0  0  0  0
    4.1961   -5.9971    1.0663 H   0  0  0  0  0  0  0  0  0  0  0  0
    4.7249   -4.4786    4.8791 H   0  0  0  0  0  0  0  0  0  0  0  0
    5.4217   -1.6504   -1.6540 H   0  0  0  0  0  0  0  0  0  0  0  0
  1  2  1  0
  1 26  1  0
  1 27  1  0
  1 28  1  0
  2 20  2  0
  2  3  1  0
  3  4  1  0
  3 29  1  0
  3 30  1  0
  5  4  1  1
  4 31  1  0
  4 32  1  0
  5 10  1  0
  5 19  1  0
  5  6  1  0
  6  7  1  0
  6 33  1  0
  6 34  1  0
  7  8  1  0
  7 35  1  0
  7 36  1  0
  8  9  1  0
  8 10  1  0
  8 50  1  1
  9 37  1  0
  9 38  1  0
  9 39  1  0
 10 11  1  0
 10 40  1  6
 11 12  1  0
 11 41  1  0
 11 42  1  0
 12 18  2  0
 12 13  1  0
 13 14  2  0
 13 43  1  0
 14 15  1  0
 14 44  1  0
 15 16  1  0
 15 17  2  0
 17 25  1  0
 17 18  1  0
 18 19  1  0
 19 24  1  0
 19 20  1  1
 20 21  1  0
 21 22  1  0
 21 45  1  0
 21 49  1  0
 22 23  1  0
 22 24  1  0
 22 46  1  6
 23 47  1  0
 24 25  1  0
 24 48  1  6
M  CHG  3   2   1   8   1  16  -1
M  END
>  <i_m_ct_stereo_status>  (301) 
1

>  <s_m_source_file>  (301) 
/var/tmp/pbs.5076255.sched01/tmpcwktr4ti/1290j0z1rin.sdf

>  <i_m_source_file_index>  (301) 
4

>  <i_lp_mmshare_version>  (301) 
48012

>  <i_f3d_flags>  (301) 
0

>  <s_epik_input>  (301) 
W0NIMl0xW0NIMl1OKFtDSDNdKUMyPVtDSF1bQ0BASF0oW09IXSlbQ0BASF0zT2M0YyhbT0hdKVtjSF1bY0hdYyhjNFtDQF0yM0MxNTYpW0NIMl1bQ0BIXTZOKFtDSDNdKVtDSDJdW0NIMl01

>  <s_epik_cmdline>  (301) 
J2VwaWtfcHl0aG9uJywgJy1waHQnLCAnMi4wJywgJy1waCcsICc3LjAnLCAnLXRuJywgJzgnLCAnLW1hJywgJzIwMCcsICctaW1hZScsICc8aW5maWxlLm1hZT4nLCAnLW9tYWUnLCAnPG91dGZpbGUubWFlPic=

>  <r_epik_Ionization_Penalty>  (301) 
1.9904

>  <r_epik_Ionization_Penalty_Charging>  (301) 
1.95348

>  <r_epik_Ionization_Penalty_Neutral>  (301) 
0.0369222

>  <r_epik_State_Penalty>  (301) 
2.07512

>  <r_epik_Charging_Adjusted_Penalty>  (301) 
4.0286

>  <i_epik_Tot_Q>  (301) 
1

>  <i_epik_Tot_abs_Q>  (301) 
3

>  <s_epik_Chemistry_Notes>  (301) 
This compound has an imine and may undergo hydrolysis.

>  <s_lp_Force_Field>  (301) 
OPLS3e

>  <r_lp_Energy>  (301) 
58.2841

>  <b_lp_Chiralities_Consistent>  (301) 
1

>  <s_lp_Variant>  (301) 
87:0-3

>  <s_i_glide_gridfile>  (301) 
pfpi4k_grid

>  <i_i_glide_lignum>  (301) 
4

>  <i_i_glide_rotatable_bonds>  (301) 
1

>  <r_i_docking_score>  (301) 
-3.51745

>  <r_i_glide_ligand_efficiency>  (301) 
-0.140698

>  <r_i_glide_ligand_efficiency_sa>  (301) 
-0.411404

>  <r_i_glide_ligand_efficiency_ln>  (301) 
-0.833741

>  <r_i_glide_gscore>  (301) 
-3.51745

>  <r_i_glide_lipo>  (301) 
-0.694935

>  <r_i_glide_hbond>  (301) 
-0.0085594

>  <r_i_glide_metal>  (301) 
-0

>  <r_i_glide_rewards>  (301) 
-1.09446

>  <r_i_glide_evdw>  (301) 
-17.6302

>  <r_i_glide_ecoul>  (301) 
-5.37455

>  <r_i_glide_erotb>  (301) 
0

>  <r_i_glide_esite>  (301) 
-0.0318

>  <r_i_glide_emodel>  (301) 
-28.5361

>  <r_i_glide_energy>  (301) 
-23.0048

>  <r_i_glide_einternal>  (301) 
0.0120968

>  <r_i_glide_intrahb_reward>  (301) 
-0

>  <i_i_glide_confnum>  (301) 
1

>  <i_i_glide_posenum>  (301) 
16

>  <r_i_glide_eff_state_penalty>  (301) 
0

>  <ligand_id>  (301) 
87

>  <original_smiles>  (301) 
CN1CCC23CCN(C)C2Cc2ccc(O)c4c2C32C1=CC(O)C2O4

>  <smiles>  (301) 
[H]OC1([H])C([H])([H])C2=[N+](C([H])([H])[H])C([H])([H])C([H])([H])C34C([H])([H])C([H])([H])[N+]([H])(C([H])([H])[H])C3([H])C([H])([H])c3c([H])c([H])c([O-])c5c3C24C1([H])O5

$$$$
87:2:1
     RDKit          3D

 50 55  0  0  1  0  0  0  0  0999 V2000
    2.8927   -2.6566    4.5371 C   0  0  0  0  0  0  0  0  0  0  0  0
    3.2723   -2.8541    3.1192 N   0  0  0  0  0  0  0  0  0  0  0  0
    2.3133   -2.2752    2.1573 C   0  0  0  0  0  0  0  0  0  0  0  0
    2.2448   -3.0933    0.8690 C   0  0  0  0  0  0  0  0  0  0  0  0
    3.6421   -3.2013    0.2500 C   0  0  1  0  0  0  0  0  0  0  0  0
    3.5264   -3.9752   -1.0684 C   0  0  0  0  0  0  0  0  0  0  0  0
    4.5865   -3.3821   -1.9785 C   0  0  0  0  0  0  0  0  0  0  0  0
    4.5547   -1.9408   -1.6750 N   0  0  1  0  0  0  0  0  0  0  0  0
    3.7282   -1.1859   -2.6478 C   0  0  0  0  0  0  0  0  0  0  0  0
    4.1059   -1.7822   -0.2602 C   0  0  2  0  0  0  0  0  0  0  0  0
    5.2354   -1.1538    0.6013 C   0  0  0  0  0  0  0  0  0  0  0  0
    6.4291   -2.0768    0.6806 C   0  0  0  0  0  0  0  0  0  0  0  0
    7.7632   -1.8405    0.3175 C   0  0  0  0  0  0  0  0  0  0  0  0
    8.6347   -2.9413    0.1661 C   0  0  0  0  0  0  0  0  0  0  0  0
    8.1787   -4.2669    0.3516 C   0  0  0  0  0  0  0  0  0  0  0  0
    9.0102   -5.3246    0.1090 O   0  0  0  0  0  0  0  0  0  0  0  0
    6.8477   -4.5071    0.7497 C   0  0  0  0  0  0  0  0  0  0  0  0
    6.0517   -3.4012    0.9297 C   0  0  0  0  0  0  0  0  0  0  0  0
    4.6608   -3.8525    1.2861 C   0  0  1  0  0  0  0  0  0  0  0  0
    4.2492   -3.6295    2.7342 C   0  0  0  0  0  0  0  0  0  0  0  0
    4.9700   -4.5615    3.6432 C   0  0  0  0  0  0  0  0  0  0  0  0
    4.8967   -5.8548    2.8352 C   0  0  1  0  0  0  0  0  0  0  0  0
    3.7058   -6.5545    3.1328 O   0  0  0  0  0  0  0  0  0  0  0  0
    4.8814   -5.4164    1.3508 C   0  0  2  0  0  0  0  0  0  0  0  0
    6.2018   -5.6951    0.8807 O   0  0  0  0  0  0  0  0  0  0  0  0
    2.2098   -1.8099    4.6022 H   0  0  0  0  0  0  0  0  0  0  0  0
    3.7782   -2.4470    5.1409 H   0  0  0  0  0  0  0  0  0  0  0  0
    2.3748   -3.5505    4.8912 H   0  0  0  0  0  0  0  0  0  0  0  0
    1.3311   -2.2523    2.6279 H   0  0  0  0  0  0  0  0  0  0  0  0
    2.6166   -1.2456    1.9790 H   0  0  0  0  0  0  0  0  0  0  0  0
    1.8634   -4.0870    1.1131 H   0  0  0  0  0  0  0  0  0  0  0  0
    1.5517   -2.6600    0.1607 H   0  0  0  0  0  0  0  0  0  0  0  0
    3.6668   -5.0424   -0.9479 H   0  0  0  0  0  0  0  0  0  0  0  0
    2.5535   -3.7973   -1.5433 H   0  0  0  0  0  0  0  0  0  0  0  0
    5.5695   -3.7806   -1.7246 H   0  0  0  0  0  0  0  0  0  0  0  0
    4.4162   -3.6117   -3.0339 H   0  0  0  0  0  0  0  0  0  0  0  0
    2.6809   -1.5112   -2.6271 H   0  0  0  0  0  0  0  0  0  0  0  0
    4.1020   -1.3229   -3.6648 H   0  0  0  0  0  0  0  0  0  0  0  0
    3.7668   -0.1181   -2.4330 H   0  0  0  0  0  0  0  0  0  0  0  0
    3.2570   -1.0909   -0.2487 H   0  0  0  0  0  0  0  0  0  0  0  0
    5.5525   -0.2001    0.1748 H   0  0  0  0  0  0  0  0  0  0  0  0
    4.8783   -0.9438    1.6131 H   0  0  0  0  0  0  0  0  0  0  0  0
    8.1031   -0.8403    0.1004 H   0  0  0  0  0  0  0  0  0  0  0  0
    9.6467   -2.7578   -0.1475 H   0  0  0  0  0  0  0  0  0  0  0  0
    6.0052   -4.2424    3.6989 H   0  0  0  0  0  0  0  0  0  0  0  0
    5.7426   -6.5114    3.0654 H   0  0  0  0  0  0  0  0  0  0  0  0
    3.7440   -7.3951    2.7003 H   0  0  0  0  0  0  0  0  0  0  0  0
    4.1712   -6.0245    0.7892 H   0  0  0  0  0  0  0  0  0  0  0  0
    4.5805   -4.6359    4.6587 H   0  0  0  0  0  0  0  0  0  0  0  0
    5.5005   -1.5989   -1.7518 H   0  0  0  0  0  0  0  0  0  0  0  0
  1  2  1  0
  1 26  1  0
  1 27  1  0
  1 28  1  0
  2 20  2  0
  2  3  1  0
  3  4  1  0
  3 29  1  0
  3 30  1  0
  5  4  1  1
  4 31  1  0
  4 32  1  0
  5 10  1  0
  5 19  1  0
  5  6  1  0
  6  7  1  0
  6 33  1  0
  6 34  1  0
  7  8  1  0
  7 35  1  0
  7 36  1  0
  8  9  1  0
  8 10  1  0
  8 50  1  1
  9 37  1  0
  9 38  1  0
  9 39  1  0
 10 11  1  0
 10 40  1  6
 11 12  1  0
 11 41  1  0
 11 42  1  0
 12 18  2  0
 12 13  1  0
 13 14  2  0
 13 43  1  0
 14 15  1  0
 14 44  1  0
 15 16  1  0
 15 17  2  0
 17 25  1  0
 17 18  1  0
 18 19  1  0
 19 24  1  0
 19 20  1  1
 20 21  1  0
 21 22  1  0
 21 45  1  0
 21 49  1  0
 22 23  1  0
 22 24  1  0
 22 46  1  6
 23 47  1  0
 24 25  1  0
 24 48  1  6
M  CHG  3   2   1   8   1  16  -1
M  END
>  <i_m_ct_stereo_status>  (302) 
1

>  <s_m_source_file>  (302) 
/var/tmp/pbs.5076255.sched01/tmpcwktr4ti/1290j0z1rin.sdf

>  <i_m_source_file_index>  (302) 
4

>  <i_lp_mmshare_version>  (302) 
48012

>  <i_f3d_flags>  (302) 
0

>  <s_epik_input>  (302) 
W0NIMl0xW0NIMl1OKFtDSDNdKUMyPVtDSF1bQ0BASF0oW09IXSlbQ0BASF0zT2M0YyhbT0hdKVtjSF1bY0hdYyhjNFtDQF0yM0MxNTYpW0NIMl1bQ0BIXTZOKFtDSDNdKVtDSDJdW0NIMl01

>  <s_epik_cmdline>  (302) 
J2VwaWtfcHl0aG9uJywgJy1waHQnLCAnMi4wJywgJy1waCcsICc3LjAnLCAnLXRuJywgJzgnLCAnLW1hJywgJzIwMCcsICctaW1hZScsICc8aW5maWxlLm1hZT4nLCAnLW9tYWUnLCAnPG91dGZpbGUubWFlPic=

>  <r_epik_Ionization_Penalty>  (302) 
1.9904

>  <r_epik_Ionization_Penalty_Charging>  (302) 
1.95348

>  <r_epik_Ionization_Penalty_Neutral>  (302) 
0.0369222

>  <r_epik_State_Penalty>  (302) 
2.07512

>  <r_epik_Charging_Adjusted_Penalty>  (302) 
4.0286

>  <i_epik_Tot_Q>  (302) 
1

>  <i_epik_Tot_abs_Q>  (302) 
3

>  <s_epik_Chemistry_Notes>  (302) 
This compound has an imine and may undergo hydrolysis.

>  <s_lp_Force_Field>  (302) 
OPLS3e

>  <r_lp_Energy>  (302) 
58.2841

>  <b_lp_Chiralities_Consistent>  (302) 
1

>  <s_lp_Variant>  (302) 
87:0-3

>  <s_i_glide_gridfile>  (302) 
pfpi4k_grid

>  <i_i_glide_lignum>  (302) 
4

>  <i_i_glide_rotatable_bonds>  (302) 
1

>  <r_i_docking_score>  (302) 
-3.50312

>  <r_i_glide_ligand_efficiency>  (302) 
-0.140125

>  <r_i_glide_ligand_efficiency_sa>  (302) 
-0.409727

>  <r_i_glide_ligand_efficiency_ln>  (302) 
-0.830343

>  <r_i_glide_gscore>  (302) 
-3.50312

>  <r_i_glide_lipo>  (302) 
-0.696065

>  <r_i_glide_hbond>  (302) 
-0.00900358

>  <r_i_glide_metal>  (302) 
-0

>  <r_i_glide_rewards>  (302) 
-1.09042

>  <r_i_glide_evdw>  (302) 
-17.337

>  <r_i_glide_ecoul>  (302) 
-5.39565

>  <r_i_glide_erotb>  (302) 
0

>  <r_i_glide_esite>  (302) 
-0.0314281

>  <r_i_glide_emodel>  (302) 
-28.05

>  <r_i_glide_energy>  (302) 
-22.7326

>  <r_i_glide_einternal>  (302) 
0.334275

>  <r_i_glide_intrahb_reward>  (302) 
-0

>  <i_i_glide_confnum>  (302) 
1

>  <i_i_glide_posenum>  (302) 
17

>  <r_i_glide_eff_state_penalty>  (302) 
0

>  <ligand_id>  (302) 
87

>  <original_smiles>  (302) 
CN1CCC23CCN(C)C2Cc2ccc(O)c4c2C32C1=CC(O)C2O4

>  <smiles>  (302) 
[H]OC1([H])C([H])([H])C2=[N+](C([H])([H])[H])C([H])([H])C([H])([H])C34C([H])([H])C([H])([H])[N+]([H])(C([H])([H])[H])C3([H])C([H])([H])c3c([H])c([H])c([O-])c5c3C24C1([H])O5

$$$$
87:2:2
     RDKit          3D

 50 55  0  0  1  0  0  0  0  0999 V2000
    2.9954   -2.4699    4.7348 C   0  0  0  0  0  0  0  0  0  0  0  0
    3.3400   -2.7299    3.3179 N   0  0  0  0  0  0  0  0  0  0  0  0
    2.3556   -2.1951    2.3533 C   0  0  0  0  0  0  0  0  0  0  0  0
    2.2567   -3.0713    1.1088 C   0  0  0  0  0  0  0  0  0  0  0  0
    3.6355   -3.2129    0.4580 C   0  0  1  0  0  0  0  0  0  0  0  0
    3.4899   -4.0467   -0.8321 C   0  0  0  0  0  0  0  0  0  0  0  0
    4.5294   -3.4853   -1.7860 C   0  0  0  0  0  0  0  0  0  0  0  0
    4.4982   -2.0316   -1.5432 N   0  0  1  0  0  0  0  0  0  0  0  0
    3.6439   -1.3193   -2.5248 C   0  0  0  0  0  0  0  0  0  0  0  0
    4.0890   -1.8141   -0.1219 C   0  0  2  0  0  0  0  0  0  0  0  0
    5.2321   -1.1357    0.6832 C   0  0  0  0  0  0  0  0  0  0  0  0
    6.4291   -2.0550    0.7707 C   0  0  0  0  0  0  0  0  0  0  0  0
    7.7559   -1.8337    0.3646 C   0  0  0  0  0  0  0  0  0  0  0  0
    8.6304   -2.9371    0.2350 C   0  0  0  0  0  0  0  0  0  0  0  0
    8.1760   -4.2559    0.4825 C   0  0  0  0  0  0  0  0  0  0  0  0
    9.0073   -5.3149    0.2691 O   0  0  0  0  0  0  0  0  0  0  0  0
    6.8643   -4.4780    0.9227 C   0  0  0  0  0  0  0  0  0  0  0  0
    6.0665   -3.3685    1.0862 C   0  0  0  0  0  0  0  0  0  0  0  0
    4.6822   -3.8122    1.4967 C   0  0  1  0  0  0  0  0  0  0  0  0
    4.3104   -3.5200    2.9442 C   0  0  0  0  0  0  0  0  0  0  0  0
    5.0619   -4.4076    3.8759 C   0  0  0  0  0  0  0  0  0  0  0  0
    4.9685   -5.7368    3.1276 C   0  0  1  0  0  0  0  0  0  0  0  0
    3.7837   -6.4143    3.5004 O   0  0  0  0  0  0  0  0  0  0  0  0
    4.9105   -5.3664    1.6253 C   0  0  2  0  0  0  0  0  0  0  0  0
    6.2199   -5.6589    1.1236 O   0  0  0  0  0  0  0  0  0  0  0  0
    2.3101   -1.6214    4.7796 H   0  0  0  0  0  0  0  0  0  0  0  0
    3.8933   -2.2331    5.3063 H   0  0  0  0  0  0  0  0  0  0  0  0
    2.4882   -3.3475    5.1399 H   0  0  0  0  0  0  0  0  0  0  0  0
    1.3847   -2.1503    2.8508 H   0  0  0  0  0  0  0  0  0  0  0  0
    2.6537   -1.1707    2.1275 H   0  0  0  0  0  0  0  0  0  0  0  0
    1.8732   -4.0485    1.4019 H   0  0  0  0  0  0  0  0  0  0  0  0
    1.5453   -2.6540    0.3993 H   0  0  0  0  0  0  0  0  0  0  0  0
    3.5942   -5.1188   -0.7138 H   0  0  0  0  0  0  0  0  0  0  0  0
    2.5078   -3.8736   -1.2843 H   0  0  0  0  0  0  0  0  0  0  0  0
    5.5240   -3.8645   -1.5395 H   0  0  0  0  0  0  0  0  0  0  0  0
    4.3355   -3.7527   -2.8266 H   0  0  0  0  0  0  0  0  0  0  0  0
    2.6021   -1.6456   -2.4630 H   0  0  0  0  0  0  0  0  0  0  0  0
    3.9972   -1.4913   -3.5458 H   0  0  0  0  0  0  0  0  0  0  0  0
    3.6756   -0.2452   -2.3473 H   0  0  0  0  0  0  0  0  0  0  0  0
    3.2412   -1.1204   -0.1210 H   0  0  0  0  0  0  0  0  0  0  0  0
    5.5384   -0.2041    0.2080 H   0  0  0  0  0  0  0  0  0  0  0  0
    4.9050   -0.8856    1.6916 H   0  0  0  0  0  0  0  0  0  0  0  0
    8.0877   -0.8365    0.0964 H   0  0  0  0  0  0  0  0  0  0  0  0
    9.6317   -2.7617   -0.1045 H   0  0  0  0  0  0  0  0  0  0  0  0
    6.0974   -4.0858    3.8894 H   0  0  0  0  0  0  0  0  0  0  0  0
    5.8203   -6.3835    3.3579 H   0  0  0  0  0  0  0  0  0  0  0  0
    3.8929   -6.7445    4.3802 H   0  0  0  0  0  0  0  0  0  0  0  0
    4.1884   -5.9974    1.1092 H   0  0  0  0  0  0  0  0  0  0  0  0
    4.6951   -4.4341    4.9014 H   0  0  0  0  0  0  0  0  0  0  0  0
    5.4404   -1.6853   -1.6577 H   0  0  0  0  0  0  0  0  0  0  0  0
  1  2  1  0
  1 26  1  0
  1 27  1  0
  1 28  1  0
  2 20  2  0
  2  3  1  0
  3  4  1  0
  3 29  1  0
  3 30  1  0
  5  4  1  1
  4 31  1  0
  4 32  1  0
  5 10  1  0
  5 19  1  0
  5  6  1  0
  6  7  1  0
  6 33  1  0
  6 34  1  0
  7  8  1  0
  7 35  1  0
  7 36  1  0
  8  9  1  0
  8 10  1  0
  8 50  1  1
  9 37  1  0
  9 38  1  0
  9 39  1  0
 10 11  1  0
 10 40  1  6
 11 12  1  0
 11 41  1  0
 11 42  1  0
 12 18  2  0
 12 13  1  0
 13 14  2  0
 13 43  1  0
 14 15  1  0
 14 44  1  0
 15 16  1  0
 15 17  2  0
 17 25  1  0
 17 18  1  0
 18 19  1  0
 19 24  1  0
 19 20  1  1
 20 21  1  0
 21 22  1  0
 21 45  1  0
 21 49  1  0
 22 23  1  0
 22 24  1  0
 22 46  1  6
 23 47  1  0
 24 25  1  0
 24 48  1  6
M  CHG  3   2   1   8   1  16  -1
M  END
>  <i_m_ct_stereo_status>  (303) 
1

>  <s_m_source_file>  (303) 
/var/tmp/pbs.5076255.sched01/tmpcwktr4ti/1290j0z1rin.sdf

>  <i_m_source_file_index>  (303) 
4

>  <i_lp_mmshare_version>  (303) 
48012

>  <i_f3d_flags>  (303) 
0

>  <s_epik_input>  (303) 
W0NIMl0xW0NIMl1OKFtDSDNdKUMyPVtDSF1bQ0BASF0oW09IXSlbQ0BASF0zT2M0YyhbT0hdKVtjSF1bY0hdYyhjNFtDQF0yM0MxNTYpW0NIMl1bQ0BIXTZOKFtDSDNdKVtDSDJdW0NIMl01

>  <s_epik_cmdline>  (303) 
J2VwaWtfcHl0aG9uJywgJy1waHQnLCAnMi4wJywgJy1waCcsICc3LjAnLCAnLXRuJywgJzgnLCAnLW1hJywgJzIwMCcsICctaW1hZScsICc8aW5maWxlLm1hZT4nLCAnLW9tYWUnLCAnPG91dGZpbGUubWFlPic=

>  <r_epik_Ionization_Penalty>  (303) 
1.9904

>  <r_epik_Ionization_Penalty_Charging>  (303) 
1.95348

>  <r_epik_Ionization_Penalty_Neutral>  (303) 
0.0369222

>  <r_epik_State_Penalty>  (303) 
2.07512

>  <r_epik_Charging_Adjusted_Penalty>  (303) 
4.0286

>  <i_epik_Tot_Q>  (303) 
1

>  <i_epik_Tot_abs_Q>  (303) 
3

>  <s_epik_Chemistry_Notes>  (303) 
This compound has an imine and may undergo hydrolysis.

>  <s_lp_Force_Field>  (303) 
OPLS3e

>  <r_lp_Energy>  (303) 
58.2841

>  <b_lp_Chiralities_Consistent>  (303) 
1

>  <s_lp_Variant>  (303) 
87:0-3

>  <s_i_glide_gridfile>  (303) 
pfpi4k_grid

>  <i_i_glide_lignum>  (303) 
4

>  <i_i_glide_rotatable_bonds>  (303) 
1

>  <r_i_docking_score>  (303) 
-3.49283

>  <r_i_glide_ligand_efficiency>  (303) 
-0.139713

>  <r_i_glide_ligand_efficiency_sa>  (303) 
-0.408524

>  <r_i_glide_ligand_efficiency_ln>  (303) 
-0.827905

>  <r_i_glide_gscore>  (303) 
-3.49283

>  <r_i_glide_lipo>  (303) 
-0.702812

>  <r_i_glide_hbond>  (303) 
-0.00760252

>  <r_i_glide_metal>  (303) 
-0

>  <r_i_glide_rewards>  (303) 
-1.09403

>  <r_i_glide_evdw>  (303) 
-17.7516

>  <r_i_glide_ecoul>  (303) 
-5.13167

>  <r_i_glide_erotb>  (303) 
0

>  <r_i_glide_esite>  (303) 
-0.0310556

>  <r_i_glide_emodel>  (303) 
-28.1823

>  <r_i_glide_energy>  (303) 
-22.8833

>  <r_i_glide_einternal>  (303) 
0.335322

>  <r_i_glide_intrahb_reward>  (303) 
-0

>  <i_i_glide_confnum>  (303) 
2

>  <i_i_glide_posenum>  (303) 
4

>  <r_i_glide_eff_state_penalty>  (303) 
0

>  <ligand_id>  (303) 
87

>  <original_smiles>  (303) 
CN1CCC23CCN(C)C2Cc2ccc(O)c4c2C32C1=CC(O)C2O4

>  <smiles>  (303) 
[H]OC1([H])C([H])([H])C2=[N+](C([H])([H])[H])C([H])([H])C([H])([H])C34C([H])([H])C([H])([H])[N+]([H])(C([H])([H])[H])C3([H])C([H])([H])c3c([H])c([H])c([O-])c5c3C24C1([H])O5

$$$$
87:4:0
     RDKit          3D

 50 55  0  0  1  0  0  0  0  0999 V2000
    7.7135   -4.0465    1.0672 C   0  0  0  0  0  0  0  0  0  0  0  0
    6.2359   -3.9909    0.9490 N   0  0  0  0  0  0  0  0  0  0  0  0
    5.7020   -5.0144    0.0751 C   0  0  0  0  0  0  0  0  0  0  0  0
    4.5595   -4.5429   -0.7858 C   0  0  0  0  0  0  0  0  0  0  0  0
    3.4430   -4.1208    0.1479 C   0  0  1  0  0  0  0  0  0  0  0  0
    2.2295   -3.7123   -0.6884 C   0  0  0  0  0  0  0  0  0  0  0  0
    1.2910   -4.9294   -0.7011 C   0  0  0  0  0  0  0  0  0  0  0  0
    1.5034   -5.4828    0.6564 N   0  0  0  0  0  0  0  0  0  0  0  0
    0.8858   -6.7609    0.8439 C   0  0  0  0  0  0  0  0  0  0  0  0
    2.9481   -5.4020    0.9238 C   0  0  2  0  0  0  0  0  0  0  0  0
    3.2352   -5.3586    2.4536 C   0  0  0  0  0  0  0  0  0  0  0  0
    2.7899   -4.0607    3.1140 C   0  0  0  0  0  0  0  0  0  0  0  0
    1.9538   -3.8680    4.2311 C   0  0  0  0  0  0  0  0  0  0  0  0
    1.4573   -2.5579    4.4831 C   0  0  0  0  0  0  0  0  0  0  0  0
    1.7647   -1.4726    3.6137 C   0  0  0  0  0  0  0  0  0  0  0  0
    1.2139   -0.2469    3.8402 O   0  0  0  0  0  0  0  0  0  0  0  0
    2.6015   -1.6715    2.5088 C   0  0  0  0  0  0  0  0  0  0  0  0
    3.1060   -2.9396    2.3332 C   0  0  0  0  0  0  0  0  0  0  0  0
    3.9600   -2.9642    1.1030 C   0  0  1  0  0  0  0  0  0  0  0  0
    5.4623   -3.0199    1.3432 C   0  0  0  0  0  0  0  0  0  0  0  0
    5.9965   -1.7289    1.7912 C   0  0  0  0  0  0  0  0  0  0  0  0
    5.1921   -0.7885    0.9274 C   0  0  1  0  0  0  0  0  0  0  0  0
    5.8201   -0.6405   -0.3137 O   0  0  0  0  0  0  0  0  0  0  0  0
    3.8477   -1.4656    0.6500 C   0  0  2  0  0  0  0  0  0  0  0  0
    2.9619   -0.7838    1.5320 O   0  0  0  0  0  0  0  0  0  0  0  0
    8.0596   -5.0494    0.8140 H   0  0  0  0  0  0  0  0  0  0  0  0
    8.0089   -3.8816    2.0790 H   0  0  0  0  0  0  0  0  0  0  0  0
    8.1877   -3.3508    0.3704 H   0  0  0  0  0  0  0  0  0  0  0  0
    6.4902   -5.2311   -0.6010 H   0  0  0  0  0  0  0  0  0  0  0  0
    5.5073   -5.9104    0.6641 H   0  0  0  0  0  0  0  0  0  0  0  0
    4.8857   -3.7389   -1.4589 H   0  0  0  0  0  0  0  0  0  0  0  0
    4.2987   -5.3917   -1.3744 H   0  0  0  0  0  0  0  0  0  0  0  0
    1.7769   -2.9052   -0.1158 H   0  0  0  0  0  0  0  0  0  0  0  0
    2.4567   -3.3298   -1.6903 H   0  0  0  0  0  0  0  0  0  0  0  0
    0.2833   -4.6459   -0.9996 H   0  0  0  0  0  0  0  0  0  0  0  0
    1.4055   -5.6780   -1.4637 H   0  0  0  0  0  0  0  0  0  0  0  0
    1.0137   -7.1778    1.8440 H   0  0  0  0  0  0  0  0  0  0  0  0
    1.3399   -7.4411    0.1641 H   0  0  0  0  0  0  0  0  0  0  0  0
   -0.1738   -6.7417    0.5864 H   0  0  0  0  0  0  0  0  0  0  0  0
    3.3952   -6.3097    0.4860 H   0  0  0  0  0  0  0  0  0  0  0  0
    2.7269   -6.1876    2.9346 H   0  0  0  0  0  0  0  0  0  0  0  0
    4.2966   -5.5131    2.6456 H   0  0  0  0  0  0  0  0  0  0  0  0
    1.6266   -4.7089    4.8394 H   0  0  0  0  0  0  0  0  0  0  0  0
    0.7873   -2.3892    5.3057 H   0  0  0  0  0  0  0  0  0  0  0  0
    1.4291    0.3769    3.1580 H   0  0  0  0  0  0  0  0  0  0  0  0
    5.7142   -1.6355    2.8293 H   0  0  0  0  0  0  0  0  0  0  0  0
    5.1089    0.1836    1.4206 H   0  0  0  0  0  0  0  0  0  0  0  0
    5.5370    0.2179   -0.6118 H   0  0  0  0  0  0  0  0  0  0  0  0
    3.5416   -1.3209   -0.3887 H   0  0  0  0  0  0  0  0  0  0  0  0
    7.0628   -1.5903    1.6601 H   0  0  0  0  0  0  0  0  0  0  0  0
  1  2  1  0
  1 26  1  0
  1 27  1  0
  1 28  1  0
  2 20  2  0
  2  3  1  0
  3  4  1  0
  3 29  1  0
  3 30  1  0
  5  4  1  6
  4 31  1  0
  4 32  1  0
  5 10  1  0
  5 19  1  0
  5  6  1  0
  6  7  1  0
  6 33  1  0
  6 34  1  0
  7  8  1  0
  7 35  1  0
  7 36  1  0
  8  9  1  0
  8 10  1  0
  9 37  1  0
  9 38  1  0
  9 39  1  0
 10 11  1  0
 10 40  1  6
 11 12  1  0
 11 41  1  0
 11 42  1  0
 12 18  2  0
 12 13  1  0
 13 14  2  0
 13 43  1  0
 14 15  1  0
 14 44  1  0
 15 16  1  0
 15 17  2  0
 16 45  1  0
 17 25  1  0
 17 18  1  0
 18 19  1  0
 19 24  1  0
 19 20  1  1
 20 21  1  0
 21 22  1  0
 21 46  1  0
 21 50  1  0
 22 23  1  0
 22 24  1  0
 22 47  1  1
 23 48  1  0
 24 25  1  0
 24 49  1  6
M  CHG  1   2   1
M  END
>  <i_m_ct_stereo_status>  (304) 
1

>  <s_m_source_file>  (304) 
/var/tmp/pbs.5076255.sched01/tmpcwktr4ti/1290j0z1rin.sdf

>  <i_m_source_file_index>  (304) 
6

>  <i_lp_mmshare_version>  (304) 
48012

>  <i_f3d_flags>  (304) 
0

>  <s_epik_input>  (304) 
W0NIMl0xW0NIMl1OKFtDSDNdKUMyPVtDSF1bQ0BASF0oW09IXSlbQ0BASF0zT2M0YyhbT0hdKVtjSF1bY0hdYyhjNFtDQF0yM0MxNTYpW0NIMl1bQ0BIXTZOKFtDSDNdKVtDSDJdW0NIMl01

>  <s_epik_cmdline>  (304) 
J2VwaWtfcHl0aG9uJywgJy1waHQnLCAnMi4wJywgJy1waCcsICc3LjAnLCAnLXRuJywgJzgnLCAnLW1hJywgJzIwMCcsICctaW1hZScsICc8aW5maWxlLm1hZT4nLCAnLW9tYWUnLCAnPG91dGZpbGUubWFlPic=

>  <r_epik_Ionization_Penalty>  (304) 
2.01989

>  <r_epik_Ionization_Penalty_Charging>  (304) 
0

>  <r_epik_Ionization_Penalty_Neutral>  (304) 
2.01989

>  <r_epik_State_Penalty>  (304) 
2.15808

>  <r_epik_Charging_Adjusted_Penalty>  (304) 
2.15808

>  <i_epik_Tot_Q>  (304) 
1

>  <i_epik_Tot_abs_Q>  (304) 
1

>  <s_epik_Chemistry_Notes>  (304) 
This compound has an imine and may undergo hydrolysis.

>  <s_lp_Force_Field>  (304) 
OPLS3e

>  <r_lp_Energy>  (304) 
56.6785

>  <b_lp_Chiralities_Consistent>  (304) 
1

>  <s_lp_Variant>  (304) 
87:0-5

>  <s_i_glide_gridfile>  (304) 
pfpi4k_grid

>  <i_i_glide_lignum>  (304) 
6

>  <i_i_glide_rotatable_bonds>  (304) 
2

>  <r_i_docking_score>  (304) 
-3.11758

>  <r_i_glide_ligand_efficiency>  (304) 
-0.124703

>  <r_i_glide_ligand_efficiency_sa>  (304) 
-0.364634

>  <r_i_glide_ligand_efficiency_ln>  (304) 
-0.738959

>  <r_i_glide_gscore>  (304) 
-3.11758

>  <r_i_glide_lipo>  (304) 
-0.470197

>  <r_i_glide_hbond>  (304) 
-0.122323

>  <r_i_glide_metal>  (304) 
-0

>  <r_i_glide_rewards>  (304) 
-1.28579

>  <r_i_glide_evdw>  (304) 
-0.373509

>  <r_i_glide_ecoul>  (304) 
-8.13726

>  <r_i_glide_erotb>  (304) 
0

>  <r_i_glide_esite>  (304) 
0

>  <r_i_glide_emodel>  (304) 
-10.8856

>  <r_i_glide_energy>  (304) 
-8.51077

>  <r_i_glide_einternal>  (304) 
0.594283

>  <r_i_glide_intrahb_reward>  (304) 
-0

>  <i_i_glide_confnum>  (304) 
2

>  <i_i_glide_posenum>  (304) 
1

>  <r_i_glide_eff_state_penalty>  (304) 
0

>  <ligand_id>  (304) 
87

>  <original_smiles>  (304) 
CN1CCC23CCN(C)C2Cc2ccc(O)c4c2C32C1=CC(O)C2O4

>  <smiles>  (304) 
[H]Oc1c([H])c([H])c2c3c1OC1([H])C([H])(O[H])C([H])([H])C4=[N+](C([H])([H])[H])C([H])([H])C([H])([H])C5(C([H])([H])C([H])([H])N(C([H])([H])[H])C5([H])C2([H])[H])C431

$$$$
87:4:1
     RDKit          3D

 50 55  0  0  1  0  0  0  0  0999 V2000
    7.9746   -4.3992    1.1948 C   0  0  0  0  0  0  0  0  0  0  0  0
    6.4943   -4.4017    1.0946 N   0  0  0  0  0  0  0  0  0  0  0  0
    5.9446   -5.6914    0.6282 C   0  0  0  0  0  0  0  0  0  0  0  0
    4.6835   -5.5048   -0.2267 C   0  0  0  0  0  0  0  0  0  0  0  0
    3.6396   -4.7148    0.5931 C   0  0  1  0  0  0  0  0  0  0  0  0
    2.3446   -4.5395   -0.2120 C   0  0  0  0  0  0  0  0  0  0  0  0
    1.4678   -5.7135    0.2063 C   0  0  0  0  0  0  0  0  0  0  0  0
    1.7163   -5.7699    1.6366 N   0  0  0  0  0  0  0  0  0  0  0  0
    1.1963   -7.0072    2.2092 C   0  0  0  0  0  0  0  0  0  0  0  0
    3.1724   -5.6411    1.7789 C   0  0  2  0  0  0  0  0  0  0  0  0
    3.5692   -5.1360    3.1934 C   0  0  0  0  0  0  0  0  0  0  0  0
    3.1663   -3.6922    3.4080 C   0  0  0  0  0  0  0  0  0  0  0  0
    2.3870   -3.1260    4.4351 C   0  0  0  0  0  0  0  0  0  0  0  0
    1.8940   -1.8026    4.2875 C   0  0  0  0  0  0  0  0  0  0  0  0
    2.1337   -1.0688    3.1022 C   0  0  0  0  0  0  0  0  0  0  0  0
    1.5812    0.1683    2.9363 O   0  0  0  0  0  0  0  0  0  0  0  0
    2.9323   -1.6198    2.0805 C   0  0  0  0  0  0  0  0  0  0  0  0
    3.4434   -2.8878    2.2981 C   0  0  0  0  0  0  0  0  0  0  0  0
    4.2217   -3.3225    1.0813 C   0  0  1  0  0  0  0  0  0  0  0  0
    5.7442   -3.3385    1.2135 C   0  0  0  0  0  0  0  0  0  0  0  0
    6.2863   -1.9521    1.2462 C   0  0  0  0  0  0  0  0  0  0  0  0
    5.4499   -1.3139    0.1349 C   0  0  1  0  0  0  0  0  0  0  0  0
    6.0710   -1.4823   -1.1277 O   0  0  0  0  0  0  0  0  0  0  0  0
    4.0742   -2.0320    0.1791 C   0  0  2  0  0  0  0  0  0  0  0  0
    3.2075   -1.1031    0.8502 O   0  0  0  0  0  0  0  0  0  0  0  0
    8.3231   -5.4233    1.3002 H   0  0  0  0  0  0  0  0  0  0  0  0
    8.2996   -3.8568    2.0762 H   0  0  0  0  0  0  0  0  0  0  0  0
    8.3917   -3.9614    0.2896 H   0  0  0  0  0  0  0  0  0  0  0  0
    6.7221   -6.1908    0.0526 H   0  0  0  0  0  0  0  0  0  0  0  0
    5.7662   -6.2952    1.5171 H   0  0  0  0  0  0  0  0  0  0  0  0
    4.9449   -4.9589   -1.1369 H   0  0  0  0  0  0  0  0  0  0  0  0
    4.2989   -6.4770   -0.5484 H   0  0  0  0  0  0  0  0  0  0  0  0
    1.8447   -3.6099    0.0604 H   0  0  0  0  0  0  0  0  0  0  0  0
    2.5039   -4.4832   -1.2850 H   0  0  0  0  0  0  0  0  0  0  0  0
    0.4188   -5.5816   -0.0617 H   0  0  0  0  0  0  0  0  0  0  0  0
    1.7907   -6.6359   -0.2580 H   0  0  0  0  0  0  0  0  0  0  0  0
    1.3615   -7.0410    3.2865 H   0  0  0  0  0  0  0  0  0  0  0  0
    1.6616   -7.8900    1.7645 H   0  0  0  0  0  0  0  0  0  0  0  0
    0.1219   -7.0731    2.0382 H   0  0  0  0  0  0  0  0  0  0  0  0
    3.5934   -6.6403    1.6500 H   0  0  0  0  0  0  0  0  0  0  0  0
    3.0940   -5.7406    3.9617 H   0  0  0  0  0  0  0  0  0  0  0  0
    4.6444   -5.2251    3.3557 H   0  0  0  0  0  0  0  0  0  0  0  0
    2.1104   -3.7127    5.2971 H   0  0  0  0  0  0  0  0  0  0  0  0
    1.2681   -1.3751    5.0550 H   0  0  0  0  0  0  0  0  0  0  0  0
    1.7049    0.5145    2.0628 H   0  0  0  0  0  0  0  0  0  0  0  0
    6.0332   -1.5062    2.2070 H   0  0  0  0  0  0  0  0  0  0  0  0
    5.3455   -0.2418    0.3025 H   0  0  0  0  0  0  0  0  0  0  0  0
    5.9574   -2.3863   -1.3852 H   0  0  0  0  0  0  0  0  0  0  0  0
    3.6914   -2.2364   -0.8247 H   0  0  0  0  0  0  0  0  0  0  0  0
    7.3613   -1.8661    1.0896 H   0  0  0  0  0  0  0  0  0  0  0  0
  1  2  1  0
  1 26  1  0
  1 27  1  0
  1 28  1  0
  2 20  2  0
  2  3  1  0
  3  4  1  0
  3 29  1  0
  3 30  1  0
  5  4  1  6
  4 31  1  0
  4 32  1  0
  5 10  1  0
  5 19  1  0
  5  6  1  0
  6  7  1  0
  6 33  1  0
  6 34  1  0
  7  8  1  0
  7 35  1  0
  7 36  1  0
  8  9  1  0
  8 10  1  0
  9 37  1  0
  9 38  1  0
  9 39  1  0
 10 11  1  0
 10 40  1  6
 11 12  1  0
 11 41  1  0
 11 42  1  0
 12 18  2  0
 12 13  1  0
 13 14  2  0
 13 43  1  0
 14 15  1  0
 14 44  1  0
 15 16  1  0
 15 17  2  0
 16 45  1  0
 17 25  1  0
 17 18  1  0
 18 19  1  0
 19 24  1  0
 19 20  1  1
 20 21  1  0
 21 22  1  0
 21 46  1  0
 21 50  1  0
 22 23  1  0
 22 24  1  0
 22 47  1  1
 23 48  1  0
 24 25  1  0
 24 49  1  6
M  CHG  1   2   1
M  END
>  <i_m_ct_stereo_status>  (305) 
1

>  <s_m_source_file>  (305) 
/var/tmp/pbs.5076255.sched01/tmpcwktr4ti/1290j0z1rin.sdf

>  <i_m_source_file_index>  (305) 
6

>  <i_lp_mmshare_version>  (305) 
48012

>  <i_f3d_flags>  (305) 
0

>  <s_epik_input>  (305) 
W0NIMl0xW0NIMl1OKFtDSDNdKUMyPVtDSF1bQ0BASF0oW09IXSlbQ0BASF0zT2M0YyhbT0hdKVtjSF1bY0hdYyhjNFtDQF0yM0MxNTYpW0NIMl1bQ0BIXTZOKFtDSDNdKVtDSDJdW0NIMl01

>  <s_epik_cmdline>  (305) 
J2VwaWtfcHl0aG9uJywgJy1waHQnLCAnMi4wJywgJy1waCcsICc3LjAnLCAnLXRuJywgJzgnLCAnLW1hJywgJzIwMCcsICctaW1hZScsICc8aW5maWxlLm1hZT4nLCAnLW9tYWUnLCAnPG91dGZpbGUubWFlPic=

>  <r_epik_Ionization_Penalty>  (305) 
2.01989

>  <r_epik_Ionization_Penalty_Charging>  (305) 
0

>  <r_epik_Ionization_Penalty_Neutral>  (305) 
2.01989

>  <r_epik_State_Penalty>  (305) 
2.15808

>  <r_epik_Charging_Adjusted_Penalty>  (305) 
2.15808

>  <i_epik_Tot_Q>  (305) 
1

>  <i_epik_Tot_abs_Q>  (305) 
1

>  <s_epik_Chemistry_Notes>  (305) 
This compound has an imine and may undergo hydrolysis.

>  <s_lp_Force_Field>  (305) 
OPLS3e

>  <r_lp_Energy>  (305) 
56.6785

>  <b_lp_Chiralities_Consistent>  (305) 
1

>  <s_lp_Variant>  (305) 
87:0-5

>  <s_i_glide_gridfile>  (305) 
pfpi4k_grid

>  <i_i_glide_lignum>  (305) 
6

>  <i_i_glide_rotatable_bonds>  (305) 
2

>  <r_i_docking_score>  (305) 
-3.10594

>  <r_i_glide_ligand_efficiency>  (305) 
-0.124237

>  <r_i_glide_ligand_efficiency_sa>  (305) 
-0.363273

>  <r_i_glide_ligand_efficiency_ln>  (305) 
-0.7362

>  <r_i_glide_gscore>  (305) 
-3.10594

>  <r_i_glide_lipo>  (305) 
-0.405155

>  <r_i_glide_hbond>  (305) 
-0.152117

>  <r_i_glide_metal>  (305) 
-0

>  <r_i_glide_rewards>  (305) 
-1.31516

>  <r_i_glide_evdw>  (305) 
-14.7904

>  <r_i_glide_ecoul>  (305) 
-3.29322

>  <r_i_glide_erotb>  (305) 
0

>  <r_i_glide_esite>  (305) 
0

>  <r_i_glide_emodel>  (305) 
-21.5972

>  <r_i_glide_energy>  (305) 
-18.0837

>  <r_i_glide_einternal>  (305) 
0.228969

>  <r_i_glide_intrahb_reward>  (305) 
-0

>  <i_i_glide_confnum>  (305) 
2

>  <i_i_glide_posenum>  (305) 
18

>  <r_i_glide_eff_state_penalty>  (305) 
0

>  <ligand_id>  (305) 
87

>  <original_smiles>  (305) 
CN1CCC23CCN(C)C2Cc2ccc(O)c4c2C32C1=CC(O)C2O4

>  <smiles>  (305) 
[H]Oc1c([H])c([H])c2c3c1OC1([H])C([H])(O[H])C([H])([H])C4=[N+](C([H])([H])[H])C([H])([H])C([H])([H])C5(C([H])([H])C([H])([H])N(C([H])([H])[H])C5([H])C2([H])[H])C431

$$$$
87:4:2
     RDKit          3D

 50 55  0  0  1  0  0  0  0  0999 V2000
    7.0856   -5.5273    1.3487 C   0  0  0  0  0  0  0  0  0  0  0  0
    5.9918   -4.7316    0.6962 N   0  0  0  0  0  0  0  0  0  0  0  0
    5.3830   -5.4568   -0.4263 C   0  0  0  0  0  0  0  0  0  0  0  0
    5.0673   -4.4791   -1.5867 C   0  0  0  0  0  0  0  0  0  0  0  0
    4.1257   -3.3826   -1.0544 C   0  0  1  0  0  0  0  0  0  0  0  0
    3.6679   -2.4393   -2.1834 C   0  0  0  0  0  0  0  0  0  0  0  0
    2.3496   -3.0174   -2.6419 C   0  0  0  0  0  0  0  0  0  0  0  0
    1.8007   -3.4355   -1.3718 N   0  0  0  0  0  0  0  0  0  0  0  0
    0.6771   -4.2962   -1.5785 C   0  0  0  0  0  0  0  0  0  0  0  0
    2.8221   -4.0875   -0.5938 C   0  0  2  0  0  0  0  0  0  0  0  0
    2.5024   -4.1081    0.9235 C   0  0  0  0  0  0  0  0  0  0  0  0
    2.6071   -2.7382    1.5270 C   0  0  0  0  0  0  0  0  0  0  0  0
    1.6562   -2.0151    2.2907 C   0  0  0  0  0  0  0  0  0  0  0  0
    1.8487   -0.6361    2.4855 C   0  0  0  0  0  0  0  0  0  0  0  0
    2.9425    0.0392    1.9321 C   0  0  0  0  0  0  0  0  0  0  0  0
    3.0328    1.3673    2.1238 O   0  0  0  0  0  0  0  0  0  0  0  0
    3.9179   -0.6818    1.1645 C   0  0  0  0  0  0  0  0  0  0  0  0
    3.6880   -2.0162    1.0261 C   0  0  0  0  0  0  0  0  0  0  0  0
    4.7607   -2.6071    0.1413 C   0  0  1  0  0  0  0  0  0  0  0  0
    5.7549   -3.4710    0.8860 C   0  0  0  0  0  0  0  0  0  0  0  0
    6.6487   -2.6443    1.6708 C   0  0  0  0  0  0  0  0  0  0  0  0
    6.9406   -1.5401    0.6907 C   0  0  1  0  0  0  0  0  0  0  0  0
    8.0824   -1.8119   -0.1110 O   0  0  0  0  0  0  0  0  0  0  0  0
    5.6456   -1.3447   -0.1237 C   0  0  2  0  0  0  0  0  0  0  0  0
    5.0058   -0.2157    0.5013 O   0  0  0  0  0  0  0  0  0  0  0  0
    6.9406   -6.5858    1.1608 H   0  0  0  0  0  0  0  0  0  0  0  0
    7.0647   -5.3741    2.4300 H   0  0  0  0  0  0  0  0  0  0  0  0
    8.0672   -5.2576    0.9384 H   0  0  0  0  0  0  0  0  0  0  0  0
    6.0918   -6.2296   -0.6942 H   0  0  0  0  0  0  0  0  0  0  0  0
    4.4916   -5.9508   -0.0213 H   0  0  0  0  0  0  0  0  0  0  0  0
    5.9680   -4.0112   -1.9841 H   0  0  0  0  0  0  0  0  0  0  0  0
    4.6359   -4.9997   -2.4450 H   0  0  0  0  0  0  0  0  0  0  0  0
    3.4771   -1.4369   -1.7800 H   0  0  0  0  0  0  0  0  0  0  0  0
    4.4046   -2.3467   -2.9885 H   0  0  0  0  0  0  0  0  0  0  0  0
    1.7373   -2.2672   -3.1466 H   0  0  0  0  0  0  0  0  0  0  0  0
    2.5047   -3.8576   -3.3147 H   0  0  0  0  0  0  0  0  0  0  0  0
    0.2294   -4.6619   -0.7213 H   0  0  0  0  0  0  0  0  0  0  0  0
    1.0147   -5.1689   -2.1228 H   0  0  0  0  0  0  0  0  0  0  0  0
   -0.1006   -3.7057   -2.0227 H   0  0  0  0  0  0  0  0  0  0  0  0
    2.8052   -5.1053   -0.8954 H   0  0  0  0  0  0  0  0  0  0  0  0
    1.5288   -4.5411    1.1104 H   0  0  0  0  0  0  0  0  0  0  0  0
    3.1723   -4.7887    1.4319 H   0  0  0  0  0  0  0  0  0  0  0  0
    0.7448   -2.4885    2.6156 H   0  0  0  0  0  0  0  0  0  0  0  0
    1.1043   -0.0593    3.0225 H   0  0  0  0  0  0  0  0  0  0  0  0
    3.8710    1.7389    1.8668 H   0  0  0  0  0  0  0  0  0  0  0  0
    6.1440   -2.2693    2.5563 H   0  0  0  0  0  0  0  0  0  0  0  0
    7.1621   -0.6599    1.2627 H   0  0  0  0  0  0  0  0  0  0  0  0
    8.1132   -2.7288   -0.3168 H   0  0  0  0  0  0  0  0  0  0  0  0
    5.8489   -1.1350   -1.1772 H   0  0  0  0  0  0  0  0  0  0  0  0
    7.5089   -3.2625    1.9059 H   0  0  0  0  0  0  0  0  0  0  0  0
  1  2  1  0
  1 26  1  0
  1 27  1  0
  1 28  1  0
  2 20  2  0
  2  3  1  0
  3  4  1  0
  3 29  1  0
  3 30  1  0
  5  4  1  6
  4 31  1  0
  4 32  1  0
  5 10  1  0
  5 19  1  0
  5  6  1  0
  6  7  1  0
  6 33  1  0
  6 34  1  0
  7  8  1  0
  7 35  1  0
  7 36  1  0
  8  9  1  0
  8 10  1  0
  9 37  1  0
  9 38  1  0
  9 39  1  0
 10 11  1  0
 10 40  1  6
 11 12  1  0
 11 41  1  0
 11 42  1  0
 12 18  2  0
 12 13  1  0
 13 14  2  0
 13 43  1  0
 14 15  1  0
 14 44  1  0
 15 16  1  0
 15 17  2  0
 16 45  1  0
 17 25  1  0
 17 18  1  0
 18 19  1  0
 19 24  1  0
 19 20  1  1
 20 21  1  0
 21 22  1  0
 21 46  1  0
 21 50  1  0
 22 23  1  0
 22 24  1  0
 22 47  1  1
 23 48  1  0
 24 25  1  0
 24 49  1  6
M  CHG  1   2   1
M  END
>  <i_m_ct_stereo_status>  (306) 
1

>  <s_m_source_file>  (306) 
/var/tmp/pbs.5076255.sched01/tmpcwktr4ti/1290j0z1rin.sdf

>  <i_m_source_file_index>  (306) 
6

>  <i_lp_mmshare_version>  (306) 
48012

>  <i_f3d_flags>  (306) 
0

>  <s_epik_input>  (306) 
W0NIMl0xW0NIMl1OKFtDSDNdKUMyPVtDSF1bQ0BASF0oW09IXSlbQ0BASF0zT2M0YyhbT0hdKVtjSF1bY0hdYyhjNFtDQF0yM0MxNTYpW0NIMl1bQ0BIXTZOKFtDSDNdKVtDSDJdW0NIMl01

>  <s_epik_cmdline>  (306) 
J2VwaWtfcHl0aG9uJywgJy1waHQnLCAnMi4wJywgJy1waCcsICc3LjAnLCAnLXRuJywgJzgnLCAnLW1hJywgJzIwMCcsICctaW1hZScsICc8aW5maWxlLm1hZT4nLCAnLW9tYWUnLCAnPG91dGZpbGUubWFlPic=

>  <r_epik_Ionization_Penalty>  (306) 
2.01989

>  <r_epik_Ionization_Penalty_Charging>  (306) 
0

>  <r_epik_Ionization_Penalty_Neutral>  (306) 
2.01989

>  <r_epik_State_Penalty>  (306) 
2.15808

>  <r_epik_Charging_Adjusted_Penalty>  (306) 
2.15808

>  <i_epik_Tot_Q>  (306) 
1

>  <i_epik_Tot_abs_Q>  (306) 
1

>  <s_epik_Chemistry_Notes>  (306) 
This compound has an imine and may undergo hydrolysis.

>  <s_lp_Force_Field>  (306) 
OPLS3e

>  <r_lp_Energy>  (306) 
56.6785

>  <b_lp_Chiralities_Consistent>  (306) 
1

>  <s_lp_Variant>  (306) 
87:0-5

>  <s_i_glide_gridfile>  (306) 
pfpi4k_grid

>  <i_i_glide_lignum>  (306) 
6

>  <i_i_glide_rotatable_bonds>  (306) 
2

>  <r_i_docking_score>  (306) 
-2.35888

>  <r_i_glide_ligand_efficiency>  (306) 
-0.0943553

>  <r_i_glide_ligand_efficiency_sa>  (306) 
-0.275897

>  <r_i_glide_ligand_efficiency_ln>  (306) 
-0.559126

>  <r_i_glide_gscore>  (306) 
-2.35888

>  <r_i_glide_lipo>  (306) 
-0.229886

>  <r_i_glide_hbond>  (306) 
-0.125667

>  <r_i_glide_metal>  (306) 
-0

>  <r_i_glide_rewards>  (306) 
-1.30675

>  <r_i_glide_evdw>  (306) 
3.34291

>  <r_i_glide_ecoul>  (306) 
-5.75815

>  <r_i_glide_erotb>  (306) 
0

>  <r_i_glide_esite>  (306) 
0

>  <r_i_glide_emodel>  (306) 
-2.90391

>  <r_i_glide_energy>  (306) 
-2.41523

>  <r_i_glide_einternal>  (306) 
0.804522

>  <r_i_glide_intrahb_reward>  (306) 
-0

>  <i_i_glide_confnum>  (306) 
2

>  <i_i_glide_posenum>  (306) 
35

>  <r_i_glide_eff_state_penalty>  (306) 
0

>  <ligand_id>  (306) 
87

>  <original_smiles>  (306) 
CN1CCC23CCN(C)C2Cc2ccc(O)c4c2C32C1=CC(O)C2O4

>  <smiles>  (306) 
[H]Oc1c([H])c([H])c2c3c1OC1([H])C([H])(O[H])C([H])([H])C4=[N+](C([H])([H])[H])C([H])([H])C([H])([H])C5(C([H])([H])C([H])([H])N(C([H])([H])[H])C5([H])C2([H])[H])C431

$$$$
88:0:0
     RDKit          3D

 56 61  0  0  1  0  0  0  0  0999 V2000
   -2.2634    2.9502    3.8965 C   0  0  0  0  0  0  0  0  0  0  0  0
   -0.7786    2.7457    4.1566 C   0  0  0  0  0  0  0  0  0  0  0  0
    0.1539    3.5921    3.6693 C   0  0  0  0  0  0  0  0  0  0  0  0
    0.0231    5.0157    4.1180 C   0  0  0  0  0  0  0  0  0  0  0  0
    0.7578    4.9484    5.4781 C   0  0  0  0  0  0  0  0  0  0  0  0
    1.6169    3.6092    5.4988 C   0  0  2  0  0  0  0  0  0  0  0  0
    0.6667    2.5064    6.1362 C   0  0  0  0  0  0  0  0  0  0  0  0
   -0.3870    2.0766    5.3942 C   0  0  0  0  0  0  0  0  0  0  0  0
    0.9170    1.7893    7.4915 C   0  0  2  0  0  0  0  0  0  0  0  0
   -0.1450    2.0690    8.5719 C   0  0  0  0  0  0  0  0  0  0  0  0
    0.0635    1.0733    9.7210 C   0  0  0  0  0  0  0  0  0  0  0  0
    1.5188    0.9352   10.1928 C   0  0  0  0  0  0  0  0  0  0  0  0
    1.7549    0.5718   11.3403 O   0  0  0  0  0  0  0  0  0  0  0  0
    2.4997    1.1461    9.2629 O   0  0  0  0  0  0  0  0  0  0  0  0
    2.3216    1.9670    8.1032 C   0  0  2  0  0  0  0  0  0  0  0  0
    2.4486    3.4528    8.4770 C   0  0  0  0  0  0  0  0  0  0  0  0
    2.7529    4.3701    7.5425 C   0  0  0  0  0  0  0  0  0  0  0  0
    3.0662    3.8950    6.1328 C   0  0  2  0  0  0  0  0  0  0  0  0
    3.8945    4.9721    5.3796 C   0  0  0  0  0  0  0  0  0  0  0  0
    4.0377    2.6616    6.3786 C   0  0  2  0  0  0  0  0  0  0  0  0
    5.0778    3.0730    7.2617 O   0  0  0  0  0  0  0  0  0  0  0  0
    4.6108    2.0294    5.2960 O   0  0  0  0  0  0  0  0  0  0  0  0
    4.9221    0.7226    5.7618 C   0  0  1  0  0  0  0  0  0  0  0  0
    6.4500    0.5546    5.8937 C   0  0  0  0  0  0  0  0  0  0  0  0
    4.2923    0.5097    7.0142 O   0  0  0  0  0  0  0  0  0  0  0  0
    3.2899    1.5035    6.9623 C   0  0  1  0  0  0  0  0  0  0  0  0
    1.6184    3.3452    3.9679 C   0  0  1  0  0  0  0  0  0  0  0  0
    2.1182    1.9934    3.4216 C   0  0  0  0  0  0  0  0  0  0  0  0
   -2.6103    2.1637    3.2274 H   0  0  0  0  0  0  0  0  0  0  0  0
   -2.4896    3.9065    3.4218 H   0  0  0  0  0  0  0  0  0  0  0  0
   -2.8353    2.8771    4.8233 H   0  0  0  0  0  0  0  0  0  0  0  0
    0.5489    5.6675    3.4126 H   0  0  0  0  0  0  0  0  0  0  0  0
   -1.0032    5.3637    4.1996 H   0  0  0  0  0  0  0  0  0  0  0  0
    1.3255    5.8647    5.6142 H   0  0  0  0  0  0  0  0  0  0  0  0
    0.0273    4.9391    6.2890 H   0  0  0  0  0  0  0  0  0  0  0  0
   -1.0160    1.2762    5.7558 H   0  0  0  0  0  0  0  0  0  0  0  0
    0.8034    0.7295    7.2494 H   0  0  0  0  0  0  0  0  0  0  0  0
   -0.0906    3.0960    8.9508 H   0  0  0  0  0  0  0  0  0  0  0  0
   -1.1523    1.9488    8.1738 H   0  0  0  0  0  0  0  0  0  0  0  0
   -0.5664    1.3273   10.5733 H   0  0  0  0  0  0  0  0  0  0  0  0
   -0.2424    0.0817    9.3973 H   0  0  0  0  0  0  0  0  0  0  0  0
    2.2497    3.7356    9.4962 H   0  0  0  0  0  0  0  0  0  0  0  0
    2.8262    5.4236    7.7701 H   0  0  0  0  0  0  0  0  0  0  0  0
    4.2057    4.6242    4.3948 H   0  0  0  0  0  0  0  0  0  0  0  0
    4.7994    5.2403    5.9244 H   0  0  0  0  0  0  0  0  0  0  0  0
    3.3632    5.9115    5.2353 H   0  0  0  0  0  0  0  0  0  0  0  0
    5.5449    3.7734    6.8300 H   0  0  0  0  0  0  0  0  0  0  0  0
    4.5185   -0.0028    5.0523 H   0  0  0  0  0  0  0  0  0  0  0  0
    6.8690    1.2646    6.6062 H   0  0  0  0  0  0  0  0  0  0  0  0
    6.9197    0.7162    4.9231 H   0  0  0  0  0  0  0  0  0  0  0  0
    6.6899   -0.4565    6.2265 H   0  0  0  0  0  0  0  0  0  0  0  0
    2.6724    1.0755    6.1658 H   0  0  0  0  0  0  0  0  0  0  0  0
    2.1872    4.1128    3.4358 H   0  0  0  0  0  0  0  0  0  0  0  0
    1.7497    1.8386    2.4084 H   0  0  0  0  0  0  0  0  0  0  0  0
    1.8007    1.1407    4.0158 H   0  0  0  0  0  0  0  0  0  0  0  0
    3.2033    1.9809    3.3531 H   0  0  0  0  0  0  0  0  0  0  0  0
  1  2  1  0
  1 29  1  0
  1 30  1  0
  1 31  1  0
  2  8  1  0
  2  3  2  0
  3 27  1  0
  3  4  1  0
  4  5  1  0
  4 32  1  0
  4 33  1  0
  6  5  1  6
  5 34  1  0
  5 35  1  0
  6 18  1  0
  6  7  1  0
  6 27  1  0
  7  8  2  0
  7  9  1  0
  8 36  1  0
  9 15  1  0
  9 10  1  0
  9 37  1  6
 10 11  1  0
 10 38  1  0
 10 39  1  0
 11 12  1  0
 11 40  1  0
 11 41  1  0
 12 13  2  0
 12 14  1  0
 15 14  1  1
 15 26  1  0
 15 16  1  0
 16 17  2  0
 16 42  1  0
 17 18  1  0
 17 43  1  0
 18 19  1  6
 18 20  1  0
 19 44  1  0
 19 45  1  0
 19 46  1  0
 20 26  1  0
 20 21  1  1
 20 22  1  0
 21 47  1  0
 22 23  1  0
 23 24  1  0
 23 25  1  0
 23 48  1  6
 24 49  1  0
 24 50  1  0
 24 51  1  0
 25 26  1  0
 26 52  1  6
 27 28  1  0
 27 53  1  6
 28 54  1  0
 28 55  1  0
 28 56  1  0
M  END
>  <i_m_ct_stereo_status>  (307) 
1

>  <s_m_source_file>  (307) 
/var/tmp/pbs.5076255.sched01/tmpcwktr4ti/1290j0z1rin.sdf

>  <i_m_source_file_index>  (307) 
8

>  <i_lp_mmshare_version>  (307) 
48012

>  <i_f3d_flags>  (307) 
1

>  <s_epik_input>  (307) 
W0NIMl0xW0NIMl1DKFtDQEBIXTJbQ0gzXSk9QyhbQ0gzXSlbQ0hdPUMoW0NAXTEyMylbQ0BIXTRDNShPQyg9TylbQ0gyXVtDSDJdNClbQ0BIXTZbQ0BdKFtPSF0pKEMzKFtDSDNdKVtDSF09W0NIXTUpT1tDQEhdKE82KVtDSDNd

>  <s_epik_cmdline>  (307) 
J2VwaWtfcHl0aG9uJywgJy1waHQnLCAnMi4wJywgJy1waCcsICc3LjAnLCAnLXRuJywgJzgnLCAnLW1hJywgJzIwMCcsICctaW1hZScsICc8aW5maWxlLm1hZT4nLCAnLW9tYWUnLCAnPG91dGZpbGUubWFlPic=

>  <r_lp_tautomer_probability>  (307) 
1

>  <r_epik_Ionization_Penalty>  (307) 
2.64299e-05

>  <r_epik_Ionization_Penalty_Charging>  (307) 
0

>  <r_epik_Ionization_Penalty_Neutral>  (307) 
2.64299e-05

>  <r_epik_State_Penalty>  (307) 
-0

>  <r_epik_Charging_Adjusted_Penalty>  (307) 
0

>  <i_epik_Tot_Q>  (307) 
0

>  <i_epik_Tot_abs_Q>  (307) 
0

>  <s_epik_Chemistry_Notes>  (307) 
This compound has an ester and may undergo hydrolysis at high or low pH. This compound contains an acetal/aminal-like group ( X-CH(R)-Y where X, Y are N, S, or O) that may be acid/base labile, releasing an aldehyde.

>  <s_lp_Force_Field>  (307) 
OPLS3e

>  <r_lp_Energy>  (307) 
135.422

>  <b_lp_Chiralities_Consistent>  (307) 
1

>  <s_lp_Variant>  (307) 
88:0-1

>  <s_i_glide_gridfile>  (307) 
pfpi4k_grid

>  <i_i_glide_lignum>  (307) 
8

>  <i_i_glide_rotatable_bonds>  (307) 
1

>  <r_i_docking_score>  (307) 
-1.78523

>  <r_i_glide_ligand_efficiency>  (307) 
-0.0637583

>  <r_i_glide_ligand_efficiency_sa>  (307) 
-0.193608

>  <r_i_glide_ligand_efficiency_ln>  (307) 
-0.412084

>  <r_i_glide_gscore>  (307) 
-1.78523

>  <r_i_glide_lipo>  (307) 
-0.139467

>  <r_i_glide_hbond>  (307) 
0

>  <r_i_glide_metal>  (307) 
-0

>  <r_i_glide_rewards>  (307) 
-0.819386

>  <r_i_glide_evdw>  (307) 
-18.3527

>  <r_i_glide_ecoul>  (307) 
0.60837

>  <r_i_glide_erotb>  (307) 
0

>  <r_i_glide_esite>  (307) 
0

>  <r_i_glide_emodel>  (307) 
-19.3524

>  <r_i_glide_energy>  (307) 
-17.7444

>  <r_i_glide_einternal>  (307) 
0.00154822

>  <r_i_glide_intrahb_reward>  (307) 
-0

>  <i_i_glide_confnum>  (307) 
1

>  <i_i_glide_posenum>  (307) 
1

>  <r_i_glide_eff_state_penalty>  (307) 
0

>  <ligand_id>  (307) 
88

>  <original_smiles>  (307) 
CC1=C2CCC3(C(=C1)C1CCC(=O)OC14C=CC3(C)C1(O)OC(C)OC41)C2C

>  <smiles>  (307) 
[H]OC12OC([H])(C([H])([H])[H])OC1([H])C13OC(=O)C([H])([H])C([H])([H])C1([H])C1=C([H])C(C([H])([H])[H])=C4C([H])([H])C([H])([H])C1(C4([H])C([H])([H])[H])C2(C([H])([H])[H])C([H])=C3[H]

$$$$
88:1:0
     RDKit          3D

 56 61  0  0  1  0  0  0  0  0999 V2000
    0.2730   -6.6585    3.9559 C   0  0  0  0  0  0  0  0  0  0  0  0
    1.6577   -6.0861    3.6648 C   0  0  0  0  0  0  0  0  0  0  0  0
    2.6247   -6.7682    3.0147 C   0  0  0  0  0  0  0  0  0  0  0  0
    2.2023   -7.1365    1.6232 C   0  0  0  0  0  0  0  0  0  0  0  0
    2.5379   -5.8330    0.8624 C   0  0  0  0  0  0  0  0  0  0  0  0
    3.4610   -4.9208    1.7868 C   0  0  2  0  0  0  0  0  0  0  0  0
    2.5712   -4.0149    2.7204 C   0  0  0  0  0  0  0  0  0  0  0  0
    1.8035   -4.6327    3.6609 C   0  0  0  0  0  0  0  0  0  0  0  0
    2.6953   -2.4582    2.8142 C   0  0  2  0  0  0  0  0  0  0  0  0
    1.4439   -1.6611    2.4094 C   0  0  0  0  0  0  0  0  0  0  0  0
    1.5299   -0.2582    3.0248 C   0  0  0  0  0  0  0  0  0  0  0  0
    2.8834    0.4311    2.8225 C   0  0  0  0  0  0  0  0  0  0  0  0
    2.8800    1.6613    2.8892 O   0  0  0  0  0  0  0  0  0  0  0  0
    3.9713   -0.3685    2.7447 O   0  0  0  0  0  0  0  0  0  0  0  0
    3.9469   -1.7145    2.2754 C   0  0  1  0  0  0  0  0  0  0  0  0
    5.1569   -2.4655    2.7645 C   0  0  0  0  0  0  0  0  0  0  0  0
    5.5193   -3.5825    2.1101 C   0  0  0  0  0  0  0  0  0  0  0  0
    4.6370   -4.1581    1.0189 C   0  0  1  0  0  0  0  0  0  0  0  0
    5.4965   -5.0676    0.1110 C   0  0  0  0  0  0  0  0  0  0  0  0
    3.9865   -2.9982    0.1118 C   0  0  2  0  0  0  0  0  0  0  0  0
    2.5944   -3.2004   -0.1464 O   0  0  0  0  0  0  0  0  0  0  0  0
    4.6025   -2.7301   -1.1065 O   0  0  0  0  0  0  0  0  0  0  0  0
    4.2492   -1.3859   -1.3858 C   0  0  1  0  0  0  0  0  0  0  0  0
    3.2439   -1.3385   -2.5753 C   0  0  0  0  0  0  0  0  0  0  0  0
    3.6817   -0.7778   -0.2357 O   0  0  0  0  0  0  0  0  0  0  0  0
    4.1753   -1.6509    0.7417 C   0  0  1  0  0  0  0  0  0  0  0  0
    3.9345   -6.0747    2.7287 C   0  0  1  0  0  0  0  0  0  0  0  0
    4.7187   -5.8110    4.0369 C   0  0  0  0  0  0  0  0  0  0  0  0
    0.1853   -6.9034    5.0150 H   0  0  0  0  0  0  0  0  0  0  0  0
    0.0745   -7.5698    3.3931 H   0  0  0  0  0  0  0  0  0  0  0  0
   -0.4913   -5.9229    3.7217 H   0  0  0  0  0  0  0  0  0  0  0  0
    2.8481   -7.9556    1.2750 H   0  0  0  0  0  0  0  0  0  0  0  0
    1.1699   -7.4710    1.4993 H   0  0  0  0  0  0  0  0  0  0  0  0
    2.9862   -6.0609   -0.0992 H   0  0  0  0  0  0  0  0  0  0  0  0
    1.6006   -5.3243    0.6520 H   0  0  0  0  0  0  0  0  0  0  0  0
    1.2602   -4.0473    4.3908 H   0  0  0  0  0  0  0  0  0  0  0  0
    2.7570   -2.3197    3.8954 H   0  0  0  0  0  0  0  0  0  0  0  0
    1.3633   -1.5590    1.3228 H   0  0  0  0  0  0  0  0  0  0  0  0
    0.5419   -2.1611    2.7597 H   0  0  0  0  0  0  0  0  0  0  0  0
    0.7206    0.3726    2.6394 H   0  0  0  0  0  0  0  0  0  0  0  0
    1.3575   -0.3434    4.1016 H   0  0  0  0  0  0  0  0  0  0  0  0
    5.7435   -2.0438    3.5617 H   0  0  0  0  0  0  0  0  0  0  0  0
    6.4125   -4.1268    2.3598 H   0  0  0  0  0  0  0  0  0  0  0  0
    4.9611   -5.5054   -0.7283 H   0  0  0  0  0  0  0  0  0  0  0  0
    5.9465   -5.8794    0.6848 H   0  0  0  0  0  0  0  0  0  0  0  0
    6.3313   -4.4997   -0.3030 H   0  0  0  0  0  0  0  0  0  0  0  0
    2.2502   -2.3545   -0.4173 H   0  0  0  0  0  0  0  0  0  0  0  0
    5.1496   -0.8310   -1.6572 H   0  0  0  0  0  0  0  0  0  0  0  0
    2.3158   -1.8607   -2.3384 H   0  0  0  0  0  0  0  0  0  0  0  0
    3.6797   -1.8031   -3.4599 H   0  0  0  0  0  0  0  0  0  0  0  0
    2.9928   -0.3008   -2.8116 H   0  0  0  0  0  0  0  0  0  0  0  0
    5.2431   -1.4014    0.6897 H   0  0  0  0  0  0  0  0  0  0  0  0
    4.5437   -6.7970    2.1743 H   0  0  0  0  0  0  0  0  0  0  0  0
    4.6687   -6.6804    4.6965 H   0  0  0  0  0  0  0  0  0  0  0  0
    4.3479   -4.9571    4.6001 H   0  0  0  0  0  0  0  0  0  0  0  0
    5.7796   -5.6537    3.8422 H   0  0  0  0  0  0  0  0  0  0  0  0
  1  2  1  0
  1 29  1  0
  1 30  1  0
  1 31  1  0
  2  8  1  0
  2  3  2  0
  3 27  1  0
  3  4  1  0
  4  5  1  0
  4 32  1  0
  4 33  1  0
  6  5  1  6
  5 34  1  0
  5 35  1  0
  6 18  1  0
  6  7  1  0
  6 27  1  0
  7  8  2  0
  7  9  1  0
  8 36  1  0
  9 15  1  0
  9 10  1  0
  9 37  1  1
 10 11  1  0
 10 38  1  0
 10 39  1  0
 11 12  1  0
 11 40  1  0
 11 41  1  0
 12 13  2  0
 12 14  1  0
 15 14  1  1
 15 26  1  0
 15 16  1  0
 16 17  2  0
 16 42  1  0
 17 18  1  0
 17 43  1  0
 18 19  1  6
 18 20  1  0
 19 44  1  0
 19 45  1  0
 19 46  1  0
 20 26  1  0
 20 21  1  6
 20 22  1  0
 21 47  1  0
 22 23  1  0
 23 24  1  0
 23 25  1  0
 23 48  1  6
 24 49  1  0
 24 50  1  0
 24 51  1  0
 25 26  1  0
 26 52  1  1
 27 28  1  0
 27 53  1  6
 28 54  1  0
 28 55  1  0
 28 56  1  0
M  END
>  <i_m_ct_stereo_status>  (308) 
1

>  <s_m_source_file>  (308) 
/var/tmp/pbs.5076255.sched01/tmpcwktr4ti/1290j0z1rin.sdf

>  <i_m_source_file_index>  (308) 
9

>  <i_lp_mmshare_version>  (308) 
48012

>  <i_f3d_flags>  (308) 
1

>  <s_epik_input>  (308) 
W0NIMl0xW0NIMl1DKFtDQEBIXTJbQ0gzXSk9QyhbQ0gzXSlbQ0hdPUMoW0NAXTEyMylbQ0BIXTRDNShPQyg9TylbQ0gyXVtDSDJdNClbQ0BIXTZbQ0BdKFtPSF0pKEMzKFtDSDNdKVtDSF09W0NIXTUpT1tDQEhdKE82KVtDSDNd

>  <s_epik_cmdline>  (308) 
J2VwaWtfcHl0aG9uJywgJy1waHQnLCAnMi4wJywgJy1waCcsICc3LjAnLCAnLXRuJywgJzgnLCAnLW1hJywgJzIwMCcsICctaW1hZScsICc8aW5maWxlLm1hZT4nLCAnLW9tYWUnLCAnPG91dGZpbGUubWFlPic=

>  <r_lp_tautomer_probability>  (308) 
1

>  <r_epik_Ionization_Penalty>  (308) 
2.64299e-05

>  <r_epik_Ionization_Penalty_Charging>  (308) 
0

>  <r_epik_Ionization_Penalty_Neutral>  (308) 
2.64299e-05

>  <r_epik_State_Penalty>  (308) 
-0

>  <r_epik_Charging_Adjusted_Penalty>  (308) 
0

>  <i_epik_Tot_Q>  (308) 
0

>  <i_epik_Tot_abs_Q>  (308) 
0

>  <s_epik_Chemistry_Notes>  (308) 
This compound has an ester and may undergo hydrolysis at high or low pH. This compound contains an acetal/aminal-like group ( X-CH(R)-Y where X, Y are N, S, or O) that may be acid/base labile, releasing an aldehyde.

>  <s_lp_Force_Field>  (308) 
OPLS3e

>  <r_lp_Energy>  (308) 
133.186

>  <b_lp_Chiralities_Consistent>  (308) 
1

>  <s_lp_Variant>  (308) 
88:0-2

>  <s_i_glide_gridfile>  (308) 
pfpi4k_grid

>  <i_i_glide_lignum>  (308) 
9

>  <i_i_glide_rotatable_bonds>  (308) 
1

>  <r_i_docking_score>  (308) 
-2.47678

>  <r_i_glide_ligand_efficiency>  (308) 
-0.0884564

>  <r_i_glide_ligand_efficiency_sa>  (308) 
-0.268606

>  <r_i_glide_ligand_efficiency_ln>  (308) 
-0.571713

>  <r_i_glide_gscore>  (308) 
-2.47678

>  <r_i_glide_lipo>  (308) 
-0.198021

>  <r_i_glide_hbond>  (308) 
0

>  <r_i_glide_metal>  (308) 
-0

>  <r_i_glide_rewards>  (308) 
-0.815225

>  <r_i_glide_evdw>  (308) 
-26.4164

>  <r_i_glide_ecoul>  (308) 
-0.627988

>  <r_i_glide_erotb>  (308) 
0

>  <r_i_glide_esite>  (308) 
-0.0485169

>  <r_i_glide_emodel>  (308) 
-30.6367

>  <r_i_glide_energy>  (308) 
-27.0444

>  <r_i_glide_einternal>  (308) 
0.227226

>  <r_i_glide_intrahb_reward>  (308) 
-0

>  <i_i_glide_confnum>  (308) 
1

>  <i_i_glide_posenum>  (308) 
1

>  <r_i_glide_eff_state_penalty>  (308) 
0

>  <ligand_id>  (308) 
88

>  <original_smiles>  (308) 
CC1=C2CCC3(C(=C1)C1CCC(=O)OC14C=CC3(C)C1(O)OC(C)OC41)C2C

>  <smiles>  (308) 
[H]OC12OC([H])(C([H])([H])[H])OC1([H])C13OC(=O)C([H])([H])C([H])([H])C1([H])C1=C([H])C(C([H])([H])[H])=C4C([H])([H])C([H])([H])C1(C4([H])C([H])([H])[H])C2(C([H])([H])[H])C([H])=C3[H]

$$$$
88:1:1
     RDKit          3D

 56 61  0  0  1  0  0  0  0  0999 V2000
   -0.6084   -7.3194    4.2459 C   0  0  0  0  0  0  0  0  0  0  0  0
    0.8994   -7.1402    4.2704 C   0  0  0  0  0  0  0  0  0  0  0  0
    1.7529   -8.1021    3.8471 C   0  0  0  0  0  0  0  0  0  0  0  0
    1.5534   -8.5478    2.4321 C   0  0  0  0  0  0  0  0  0  0  0  0
    2.3609   -7.4502    1.6991 C   0  0  0  0  0  0  0  0  0  0  0  0
    3.2839   -6.6965    2.7511 C   0  0  2  0  0  0  0  0  0  0  0  0
    2.5067   -5.4843    3.4044 C   0  0  0  0  0  0  0  0  0  0  0  0
    1.4279   -5.7820    4.1803 C   0  0  0  0  0  0  0  0  0  0  0  0
    3.0083   -4.0052    3.4177 C   0  0  2  0  0  0  0  0  0  0  0  0
    2.1271   -2.9838    2.6855 C   0  0  0  0  0  0  0  0  0  0  0  0
    2.4507   -1.5843    3.2255 C   0  0  0  0  0  0  0  0  0  0  0  0
    3.9524   -1.2651    3.2981 C   0  0  0  0  0  0  0  0  0  0  0  0
    4.3319   -0.0987    3.2601 O   0  0  0  0  0  0  0  0  0  0  0  0
    4.8062   -2.3162    3.5099 O   0  0  0  0  0  0  0  0  0  0  0  0
    4.4958   -3.6617    3.1330 C   0  0  1  0  0  0  0  0  0  0  0  0
    5.3525   -4.6292    3.9231 C   0  0  0  0  0  0  0  0  0  0  0  0
    5.5281   -5.8699    3.4307 C   0  0  0  0  0  0  0  0  0  0  0  0
    4.7376   -6.3386    2.1957 C   0  0  1  0  0  0  0  0  0  0  0  0
    5.5081   -7.5321    1.5814 C   0  0  0  0  0  0  0  0  0  0  0  0
    4.6138   -5.1657    1.1080 C   0  0  2  0  0  0  0  0  0  0  0  0
    3.3098   -5.0724    0.5600 O   0  0  0  0  0  0  0  0  0  0  0  0
    5.5107   -5.1855    0.0557 O   0  0  0  0  0  0  0  0  0  0  0  0
    5.5936   -3.8369   -0.3935 C   0  0  1  0  0  0  0  0  0  0  0  0
    4.8936   -3.6772   -1.7591 C   0  0  0  0  0  0  0  0  0  0  0  0
    4.9911   -2.9844    0.5675 O   0  0  0  0  0  0  0  0  0  0  0  0
    5.0309   -3.8405    1.6856 C   0  0  1  0  0  0  0  0  0  0  0  0
    3.2423   -7.8212    3.8407 C   0  0  1  0  0  0  0  0  0  0  0  0
    3.7923   -7.5936    5.2712 C   0  0  0  0  0  0  0  0  0  0  0  0
   -0.9679   -7.4044    5.2705 H   0  0  0  0  0  0  0  0  0  0  0  0
   -0.9274   -8.2152    3.7111 H   0  0  0  0  0  0  0  0  0  0  0  0
   -1.0897   -6.4528    3.7934 H   0  0  0  0  0  0  0  0  0  0  0  0
    2.0109   -9.5279    2.2817 H   0  0  0  0  0  0  0  0  0  0  0  0
    0.5139   -8.6118    2.1068 H   0  0  0  0  0  0  0  0  0  0  0  0
    2.9194   -7.9064    0.8848 H   0  0  0  0  0  0  0  0  0  0  0  0
    1.6473   -6.7576    1.2492 H   0  0  0  0  0  0  0  0  0  0  0  0
    0.9289   -5.0026    4.7334 H   0  0  0  0  0  0  0  0  0  0  0  0
    2.8927   -3.7613    4.4742 H   0  0  0  0  0  0  0  0  0  0  0  0
    2.2924   -2.9950    1.6047 H   0  0  0  0  0  0  0  0  0  0  0  0
    1.0689   -3.1919    2.8519 H   0  0  0  0  0  0  0  0  0  0  0  0
    1.9471   -0.8193    2.6352 H   0  0  0  0  0  0  0  0  0  0  0  0
    2.0653   -1.4959    4.2397 H   0  0  0  0  0  0  0  0  0  0  0  0
    5.8589   -4.2797    4.8092 H   0  0  0  0  0  0  0  0  0  0  0  0
    6.1820   -6.5779    3.9218 H   0  0  0  0  0  0  0  0  0  0  0  0
    5.0520   -7.9201    0.6731 H   0  0  0  0  0  0  0  0  0  0  0  0
    5.6002   -8.3572    2.2885 H   0  0  0  0  0  0  0  0  0  0  0  0
    6.5286   -7.2419    1.3238 H   0  0  0  0  0  0  0  0  0  0  0  0
    3.2230   -5.7666   -0.0754 H   0  0  0  0  0  0  0  0  0  0  0  0
    6.6518   -3.5810   -0.4819 H   0  0  0  0  0  0  0  0  0  0  0  0
    3.8315   -3.9164   -1.6900 H   0  0  0  0  0  0  0  0  0  0  0  0
    5.3512   -4.3452   -2.4901 H   0  0  0  0  0  0  0  0  0  0  0  0
    4.9957   -2.6519   -2.1174 H   0  0  0  0  0  0  0  0  0  0  0  0
    6.1168   -3.8651    1.8568 H   0  0  0  0  0  0  0  0  0  0  0  0
    3.7430   -8.7209    3.4795 H   0  0  0  0  0  0  0  0  0  0  0  0
    3.3799   -8.3372    5.9541 H   0  0  0  0  0  0  0  0  0  0  0  0
    3.5573   -6.6122    5.6809 H   0  0  0  0  0  0  0  0  0  0  0  0
    4.8714   -7.7254    5.3059 H   0  0  0  0  0  0  0  0  0  0  0  0
  1  2  1  0
  1 29  1  0
  1 30  1  0
  1 31  1  0
  2  8  1  0
  2  3  2  0
  3 27  1  0
  3  4  1  0
  4  5  1  0
  4 32  1  0
  4 33  1  0
  6  5  1  6
  5 34  1  0
  5 35  1  0
  6 18  1  0
  6  7  1  0
  6 27  1  0
  7  8  2  0
  7  9  1  0
  8 36  1  0
  9 15  1  0
  9 10  1  0
  9 37  1  1
 10 11  1  0
 10 38  1  0
 10 39  1  0
 11 12  1  0
 11 40  1  0
 11 41  1  0
 12 13  2  0
 12 14  1  0
 15 14  1  1
 15 26  1  0
 15 16  1  0
 16 17  2  0
 16 42  1  0
 17 18  1  0
 17 43  1  0
 18 19  1  6
 18 20  1  0
 19 44  1  0
 19 45  1  0
 19 46  1  0
 20 26  1  0
 20 21  1  6
 20 22  1  0
 21 47  1  0
 22 23  1  0
 23 24  1  0
 23 25  1  0
 23 48  1  6
 24 49  1  0
 24 50  1  0
 24 51  1  0
 25 26  1  0
 26 52  1  1
 27 28  1  0
 27 53  1  6
 28 54  1  0
 28 55  1  0
 28 56  1  0
M  END
>  <i_m_ct_stereo_status>  (309) 
1

>  <s_m_source_file>  (309) 
/var/tmp/pbs.5076255.sched01/tmpcwktr4ti/1290j0z1rin.sdf

>  <i_m_source_file_index>  (309) 
9

>  <i_lp_mmshare_version>  (309) 
48012

>  <i_f3d_flags>  (309) 
1

>  <s_epik_input>  (309) 
W0NIMl0xW0NIMl1DKFtDQEBIXTJbQ0gzXSk9QyhbQ0gzXSlbQ0hdPUMoW0NAXTEyMylbQ0BIXTRDNShPQyg9TylbQ0gyXVtDSDJdNClbQ0BIXTZbQ0BdKFtPSF0pKEMzKFtDSDNdKVtDSF09W0NIXTUpT1tDQEhdKE82KVtDSDNd

>  <s_epik_cmdline>  (309) 
J2VwaWtfcHl0aG9uJywgJy1waHQnLCAnMi4wJywgJy1waCcsICc3LjAnLCAnLXRuJywgJzgnLCAnLW1hJywgJzIwMCcsICctaW1hZScsICc8aW5maWxlLm1hZT4nLCAnLW9tYWUnLCAnPG91dGZpbGUubWFlPic=

>  <r_lp_tautomer_probability>  (309) 
1

>  <r_epik_Ionization_Penalty>  (309) 
2.64299e-05

>  <r_epik_Ionization_Penalty_Charging>  (309) 
0

>  <r_epik_Ionization_Penalty_Neutral>  (309) 
2.64299e-05

>  <r_epik_State_Penalty>  (309) 
-0

>  <r_epik_Charging_Adjusted_Penalty>  (309) 
0

>  <i_epik_Tot_Q>  (309) 
0

>  <i_epik_Tot_abs_Q>  (309) 
0

>  <s_epik_Chemistry_Notes>  (309) 
This compound has an ester and may undergo hydrolysis at high or low pH. This compound contains an acetal/aminal-like group ( X-CH(R)-Y where X, Y are N, S, or O) that may be acid/base labile, releasing an aldehyde.

>  <s_lp_Force_Field>  (309) 
OPLS3e

>  <r_lp_Energy>  (309) 
133.186

>  <b_lp_Chiralities_Consistent>  (309) 
1

>  <s_lp_Variant>  (309) 
88:0-2

>  <s_i_glide_gridfile>  (309) 
pfpi4k_grid

>  <i_i_glide_lignum>  (309) 
9

>  <i_i_glide_rotatable_bonds>  (309) 
1

>  <r_i_docking_score>  (309) 
-2.38187

>  <r_i_glide_ligand_efficiency>  (309) 
-0.0850668

>  <r_i_glide_ligand_efficiency_sa>  (309) 
-0.258313

>  <r_i_glide_ligand_efficiency_ln>  (309) 
-0.549806

>  <r_i_glide_gscore>  (309) 
-2.38187

>  <r_i_glide_lipo>  (309) 
-0.149245

>  <r_i_glide_hbond>  (309) 
0

>  <r_i_glide_metal>  (309) 
-0

>  <r_i_glide_rewards>  (309) 
-0.928084

>  <r_i_glide_evdw>  (309) 
-24.0962

>  <r_i_glide_ecoul>  (309) 
-0.664869

>  <r_i_glide_erotb>  (309) 
0

>  <r_i_glide_esite>  (309) 
0

>  <r_i_glide_emodel>  (309) 
-28.2822

>  <r_i_glide_energy>  (309) 
-24.7611

>  <r_i_glide_einternal>  (309) 
0.369664

>  <r_i_glide_intrahb_reward>  (309) 
-0

>  <i_i_glide_confnum>  (309) 
2

>  <i_i_glide_posenum>  (309) 
5

>  <r_i_glide_eff_state_penalty>  (309) 
0

>  <ligand_id>  (309) 
88

>  <original_smiles>  (309) 
CC1=C2CCC3(C(=C1)C1CCC(=O)OC14C=CC3(C)C1(O)OC(C)OC41)C2C

>  <smiles>  (309) 
[H]OC12OC([H])(C([H])([H])[H])OC1([H])C13OC(=O)C([H])([H])C([H])([H])C1([H])C1=C([H])C(C([H])([H])[H])=C4C([H])([H])C([H])([H])C1(C4([H])C([H])([H])[H])C2(C([H])([H])[H])C([H])=C3[H]

$$$$
88:1:2
     RDKit          3D

 56 61  0  0  1  0  0  0  0  0999 V2000
    0.3484   -6.8366    4.0179 C   0  0  0  0  0  0  0  0  0  0  0  0
    1.7300   -6.2569    3.7304 C   0  0  0  0  0  0  0  0  0  0  0  0
    2.7113   -6.9413    3.1011 C   0  0  0  0  0  0  0  0  0  0  0  0
    2.3095   -7.3411    1.7098 C   0  0  0  0  0  0  0  0  0  0  0  0
    2.6357   -6.0443    0.9342 C   0  0  0  0  0  0  0  0  0  0  0  0
    3.5414   -5.1078    1.8522 C   0  0  2  0  0  0  0  0  0  0  0  0
    2.6337   -4.1944    2.7583 C   0  0  0  0  0  0  0  0  0  0  0  0
    1.8614   -4.8017    3.7014 C   0  0  0  0  0  0  0  0  0  0  0  0
    2.7399   -2.6332    2.8245 C   0  0  2  0  0  0  0  0  0  0  0  0
    1.4861   -1.8574    2.3890 C   0  0  0  0  0  0  0  0  0  0  0  0
    1.5419   -0.4477    2.9806 C   0  0  0  0  0  0  0  0  0  0  0  0
    2.8802    0.2593    2.7716 C   0  0  0  0  0  0  0  0  0  0  0  0
    2.8385    1.4899    2.8049 O   0  0  0  0  0  0  0  0  0  0  0  0
    3.9865   -0.5247    2.7225 O   0  0  0  0  0  0  0  0  0  0  0  0
    3.9859   -1.8831    2.2813 C   0  0  1  0  0  0  0  0  0  0  0  0
    5.2012   -2.6125    2.7942 C   0  0  0  0  0  0  0  0  0  0  0  0
    5.5815   -3.7390    2.1648 C   0  0  0  0  0  0  0  0  0  0  0  0
    4.7144   -4.3478    1.0792 C   0  0  1  0  0  0  0  0  0  0  0  0
    5.5930   -5.2645    0.1998 C   0  0  0  0  0  0  0  0  0  0  0  0
    4.0539   -3.2181    0.1408 C   0  0  2  0  0  0  0  0  0  0  0  0
    2.6731   -3.4732   -0.1386 O   0  0  0  0  0  0  0  0  0  0  0  0
    4.6803   -2.9615   -1.0713 O   0  0  0  0  0  0  0  0  0  0  0  0
    4.3190   -1.6231   -1.3791 C   0  0  1  0  0  0  0  0  0  0  0  0
    3.3204   -1.6050   -2.5722 C   0  0  0  0  0  0  0  0  0  0  0  0
    3.7524   -0.9849   -0.2496 O   0  0  0  0  0  0  0  0  0  0  0  0
    4.2171   -1.8524    0.7488 C   0  0  1  0  0  0  0  0  0  0  0  0
    4.0169   -6.2409    2.8182 C   0  0  1  0  0  0  0  0  0  0  0  0
    4.7852   -5.9424    4.1286 C   0  0  0  0  0  0  0  0  0  0  0  0
    0.2531   -7.0619    5.0809 H   0  0  0  0  0  0  0  0  0  0  0  0
    0.1660   -7.7615    3.4718 H   0  0  0  0  0  0  0  0  0  0  0  0
   -0.4225   -6.1148    3.7594 H   0  0  0  0  0  0  0  0  0  0  0  0
    2.9670   -8.1583    1.3774 H   0  0  0  0  0  0  0  0  0  0  0  0
    1.2810   -7.6868    1.5847 H   0  0  0  0  0  0  0  0  0  0  0  0
    3.0978   -6.2694   -0.0198 H   0  0  0  0  0  0  0  0  0  0  0  0
    1.6882   -5.5566    0.7144 H   0  0  0  0  0  0  0  0  0  0  0  0
    1.3047   -4.2091    4.4142 H   0  0  0  0  0  0  0  0  0  0  0  0
    2.7902   -2.4741    3.9037 H   0  0  0  0  0  0  0  0  0  0  0  0
    1.4173   -1.7850    1.2968 H   0  0  0  0  0  0  0  0  0  0  0  0
    0.5880   -2.3603    2.7418 H   0  0  0  0  0  0  0  0  0  0  0  0
    0.7302    0.1638    2.5731 H   0  0  0  0  0  0  0  0  0  0  0  0
    1.3645   -0.5141    4.0572 H   0  0  0  0  0  0  0  0  0  0  0  0
    5.7759   -2.1714    3.5904 H   0  0  0  0  0  0  0  0  0  0  0  0
    6.4795   -4.2690    2.4317 H   0  0  0  0  0  0  0  0  0  0  0  0
    5.0725   -5.7242   -0.6372 H   0  0  0  0  0  0  0  0  0  0  0  0
    6.0478   -6.0611    0.7926 H   0  0  0  0  0  0  0  0  0  0  0  0
    6.4255   -4.6937   -0.2161 H   0  0  0  0  0  0  0  0  0  0  0  0
    2.6527   -4.1949   -0.7403 H   0  0  0  0  0  0  0  0  0  0  0  0
    5.2193   -1.0727   -1.6614 H   0  0  0  0  0  0  0  0  0  0  0  0
    2.3961   -2.1261   -2.3177 H   0  0  0  0  0  0  0  0  0  0  0  0
    3.7658   -2.0881   -3.4428 H   0  0  0  0  0  0  0  0  0  0  0  0
    3.0657   -0.5751   -2.8350 H   0  0  0  0  0  0  0  0  0  0  0  0
    5.2859   -1.5976    0.7045 H   0  0  0  0  0  0  0  0  0  0  0  0
    4.6405   -6.9659    2.2833 H   0  0  0  0  0  0  0  0  0  0  0  0
    4.7378   -6.7993    4.8044 H   0  0  0  0  0  0  0  0  0  0  0  0
    4.3998   -5.0817    4.6714 H   0  0  0  0  0  0  0  0  0  0  0  0
    5.8460   -5.7768    3.9411 H   0  0  0  0  0  0  0  0  0  0  0  0
  1  2  1  0
  1 29  1  0
  1 30  1  0
  1 31  1  0
  2  8  1  0
  2  3  2  0
  3 27  1  0
  3  4  1  0
  4  5  1  0
  4 32  1  0
  4 33  1  0
  6  5  1  6
  5 34  1  0
  5 35  1  0
  6 18  1  0
  6  7  1  0
  6 27  1  0
  7  8  2  0
  7  9  1  0
  8 36  1  0
  9 15  1  0
  9 10  1  0
  9 37  1  1
 10 11  1  0
 10 38  1  0
 10 39  1  0
 11 12  1  0
 11 40  1  0
 11 41  1  0
 12 13  2  0
 12 14  1  0
 15 14  1  1
 15 26  1  0
 15 16  1  0
 16 17  2  0
 16 42  1  0
 17 18  1  0
 17 43  1  0
 18 19  1  6
 18 20  1  0
 19 44  1  0
 19 45  1  0
 19 46  1  0
 20 26  1  0
 20 21  1  6
 20 22  1  0
 21 47  1  0
 22 23  1  0
 23 24  1  0
 23 25  1  0
 23 48  1  6
 24 49  1  0
 24 50  1  0
 24 51  1  0
 25 26  1  0
 26 52  1  1
 27 28  1  0
 27 53  1  6
 28 54  1  0
 28 55  1  0
 28 56  1  0
M  END
>  <i_m_ct_stereo_status>  (310) 
1

>  <s_m_source_file>  (310) 
/var/tmp/pbs.5076255.sched01/tmpcwktr4ti/1290j0z1rin.sdf

>  <i_m_source_file_index>  (310) 
9

>  <i_lp_mmshare_version>  (310) 
48012

>  <i_f3d_flags>  (310) 
1

>  <s_epik_input>  (310) 
W0NIMl0xW0NIMl1DKFtDQEBIXTJbQ0gzXSk9QyhbQ0gzXSlbQ0hdPUMoW0NAXTEyMylbQ0BIXTRDNShPQyg9TylbQ0gyXVtDSDJdNClbQ0BIXTZbQ0BdKFtPSF0pKEMzKFtDSDNdKVtDSF09W0NIXTUpT1tDQEhdKE82KVtDSDNd

>  <s_epik_cmdline>  (310) 
J2VwaWtfcHl0aG9uJywgJy1waHQnLCAnMi4wJywgJy1waCcsICc3LjAnLCAnLXRuJywgJzgnLCAnLW1hJywgJzIwMCcsICctaW1hZScsICc8aW5maWxlLm1hZT4nLCAnLW9tYWUnLCAnPG91dGZpbGUubWFlPic=

>  <r_lp_tautomer_probability>  (310) 
1

>  <r_epik_Ionization_Penalty>  (310) 
2.64299e-05

>  <r_epik_Ionization_Penalty_Charging>  (310) 
0

>  <r_epik_Ionization_Penalty_Neutral>  (310) 
2.64299e-05

>  <r_epik_State_Penalty>  (310) 
-0

>  <r_epik_Charging_Adjusted_Penalty>  (310) 
0

>  <i_epik_Tot_Q>  (310) 
0

>  <i_epik_Tot_abs_Q>  (310) 
0

>  <s_epik_Chemistry_Notes>  (310) 
This compound has an ester and may undergo hydrolysis at high or low pH. This compound contains an acetal/aminal-like group ( X-CH(R)-Y where X, Y are N, S, or O) that may be acid/base labile, releasing an aldehyde.

>  <s_lp_Force_Field>  (310) 
OPLS3e

>  <r_lp_Energy>  (310) 
133.186

>  <b_lp_Chiralities_Consistent>  (310) 
1

>  <s_lp_Variant>  (310) 
88:0-2

>  <s_i_glide_gridfile>  (310) 
pfpi4k_grid

>  <i_i_glide_lignum>  (310) 
9

>  <i_i_glide_rotatable_bonds>  (310) 
1

>  <r_i_docking_score>  (310) 
-2.33132

>  <r_i_glide_ligand_efficiency>  (310) 
-0.0832613

>  <r_i_glide_ligand_efficiency_sa>  (310) 
-0.25283

>  <r_i_glide_ligand_efficiency_ln>  (310) 
-0.538136

>  <r_i_glide_gscore>  (310) 
-2.33132

>  <r_i_glide_lipo>  (310) 
-0.212277

>  <r_i_glide_hbond>  (310) 
0

>  <r_i_glide_metal>  (310) 
-0

>  <r_i_glide_rewards>  (310) 
-0.825765

>  <r_i_glide_evdw>  (310) 
-26.9594

>  <r_i_glide_ecoul>  (310) 
0.635302

>  <r_i_glide_erotb>  (310) 
0

>  <r_i_glide_esite>  (310) 
-0.0406012

>  <r_i_glide_emodel>  (310) 
-29.7411

>  <r_i_glide_energy>  (310) 
-26.3241

>  <r_i_glide_einternal>  (310) 
0.184376

>  <r_i_glide_intrahb_reward>  (310) 
-0

>  <i_i_glide_confnum>  (310) 
1

>  <i_i_glide_posenum>  (310) 
25

>  <r_i_glide_eff_state_penalty>  (310) 
0

>  <ligand_id>  (310) 
88

>  <original_smiles>  (310) 
CC1=C2CCC3(C(=C1)C1CCC(=O)OC14C=CC3(C)C1(O)OC(C)OC41)C2C

>  <smiles>  (310) 
[H]OC12OC([H])(C([H])([H])[H])OC1([H])C13OC(=O)C([H])([H])C([H])([H])C1([H])C1=C([H])C(C([H])([H])[H])=C4C([H])([H])C([H])([H])C1(C4([H])C([H])([H])[H])C2(C([H])([H])[H])C([H])=C3[H]

$$$$
89:0:0
     RDKit          3D

 74 81  0  0  1  0  0  0  0  0999 V2000
    0.9385   -9.5498    2.9074 C   0  0  0  0  0  0  0  0  0  0  0  0
    2.0229   -8.5111    2.6153 C   0  0  0  0  0  0  0  0  0  0  0  0
    2.8448   -8.9940    1.4330 C   0  0  0  0  0  0  0  0  0  0  0  0
    1.7338   -7.0229    2.7666 C   0  0  1  0  0  0  0  0  0  0  0  0
    0.7157   -6.1726    3.5136 C   0  0  1  0  0  0  0  0  0  0  0  0
   -0.4400   -6.9110    3.8432 O   0  0  0  0  0  0  0  0  0  0  0  0
    1.2457   -5.3918    4.7656 C   0  0  2  0  0  0  0  0  0  0  0  0
    0.4379   -4.2110    4.8244 O   0  0  0  0  0  0  0  0  0  0  0  0
    1.2436   -3.1505    4.3717 C   0  0  1  0  0  0  0  0  0  0  0  0
    0.6759   -1.7515    4.5235 C   0  0  2  0  0  0  0  0  0  0  0  0
    0.2272   -0.8050    3.5165 O   0  0  0  0  0  0  0  0  0  0  0  0
    1.6002   -0.7360    3.9068 C   0  0  1  0  0  0  0  0  0  0  0  0
    2.1828    0.0668    5.0433 C   0  0  0  0  0  0  0  0  0  0  0  0
    3.2827   -0.8108    5.7185 C   0  0  0  0  0  0  0  0  0  0  0  0
    3.6177   -2.1684    4.9481 C   0  0  2  0  0  0  0  0  0  0  0  0
    4.8534   -2.5490    5.5125 O   0  0  0  0  0  0  0  0  0  0  0  0
    3.8782   -1.6382    3.4814 C   0  0  1  0  0  0  0  0  0  0  0  0
    4.8219   -2.2925    2.4595 C   0  0  0  0  0  0  0  0  0  0  0  0
    5.2658   -1.2576    1.3804 C   0  0  1  0  0  0  0  0  0  0  0  0
    5.8696   -1.9330    0.2439 N   0  0  0  0  0  0  0  0  0  0  0  0
    5.2430   -2.6444   -0.7725 C   0  0  0  0  0  0  0  0  0  0  0  0
    6.2621   -3.0396   -1.5665 C   0  0  0  0  0  0  0  0  0  0  0  0
    7.4592   -2.6055   -0.9970 N   0  0  0  0  0  0  0  0  0  0  0  0
    7.2176   -1.9638    0.1024 N   0  0  0  0  0  0  0  0  0  0  0  0
    4.1543   -0.2643    0.9052 C   0  0  0  0  0  0  0  0  0  0  0  0
    3.1307    0.1975    1.9713 C   0  0  0  0  0  0  0  0  0  0  0  0
    2.6383   -1.0108    2.8006 C   0  0  2  0  0  0  0  0  0  0  0  0
    2.0771   -1.8528    1.8051 O   0  0  0  0  0  0  0  0  0  0  0  0
    2.5268   -3.3434    5.2054 C   0  0  1  0  0  0  0  0  0  0  0  0
    2.1778   -3.3122    6.7348 C   0  0  0  0  0  0  0  0  0  0  0  0
    2.7533   -4.8827    4.9123 C   0  0  2  0  0  0  0  0  0  0  0  0
    3.7926   -5.3629    3.8396 C   0  0  1  0  0  0  0  0  0  0  0  0
    5.0725   -4.8189    4.0794 O   0  0  0  0  0  0  0  0  0  0  0  0
    4.0247   -6.9107    3.7094 C   0  0  1  0  0  0  0  0  0  0  0  0
    4.8812   -7.4494    4.7009 O   0  0  0  0  0  0  0  0  0  0  0  0
    2.7244   -7.6990    3.6858 C   0  0  2  0  0  0  0  0  0  0  0  0
    2.2410   -8.1063    4.9491 O   0  0  0  0  0  0  0  0  0  0  0  0
    0.2388   -9.6031    2.0748 H   0  0  0  0  0  0  0  0  0  0  0  0
    0.3624   -9.3065    3.7948 H   0  0  0  0  0  0  0  0  0  0  0  0
    1.3805  -10.5362    3.0551 H   0  0  0  0  0  0  0  0  0  0  0  0
    3.5617   -8.2336    1.1230 H   0  0  0  0  0  0  0  0  0  0  0  0
    2.1995   -9.2095    0.5831 H   0  0  0  0  0  0  0  0  0  0  0  0
    3.3917   -9.9051    1.6818 H   0  0  0  0  0  0  0  0  0  0  0  0
    2.1360   -6.4666    1.9287 H   0  0  0  0  0  0  0  0  0  0  0  0
    0.3806   -5.4416    2.7815 H   0  0  0  0  0  0  0  0  0  0  0  0
   -0.1684   -7.6316    4.3981 H   0  0  0  0  0  0  0  0  0  0  0  0
    0.9990   -5.9686    5.6578 H   0  0  0  0  0  0  0  0  0  0  0  0
    1.4226   -3.3950    3.3375 H   0  0  0  0  0  0  0  0  0  0  0  0
    0.2212   -1.5559    5.4897 H   0  0  0  0  0  0  0  0  0  0  0  0
    2.5894    1.0100    4.6686 H   0  0  0  0  0  0  0  0  0  0  0  0
    1.4039    0.3334    5.7619 H   0  0  0  0  0  0  0  0  0  0  0  0
    4.1777   -0.1888    5.7744 H   0  0  0  0  0  0  0  0  0  0  0  0
    3.0527   -0.9528    6.7702 H   0  0  0  0  0  0  0  0  0  0  0  0
    5.1057   -3.3680    5.0904 H   0  0  0  0  0  0  0  0  0  0  0  0
    4.5047   -0.7839    3.7190 H   0  0  0  0  0  0  0  0  0  0  0  0
    5.7254   -2.6686    2.9489 H   0  0  0  0  0  0  0  0  0  0  0  0
    4.3239   -3.1254    1.9755 H   0  0  0  0  0  0  0  0  0  0  0  0
    6.0359   -0.6404    1.8453 H   0  0  0  0  0  0  0  0  0  0  0  0
    4.1678   -2.7748   -0.8348 H   0  0  0  0  0  0  0  0  0  0  0  0
    6.2409   -3.6086   -2.4895 H   0  0  0  0  0  0  0  0  0  0  0  0
    4.6410    0.6096    0.4809 H   0  0  0  0  0  0  0  0  0  0  0  0
    3.5908   -0.6996    0.0825 H   0  0  0  0  0  0  0  0  0  0  0  0
    3.5909    0.9512    2.6096 H   0  0  0  0  0  0  0  0  0  0  0  0
    2.2935    0.6863    1.4721 H   0  0  0  0  0  0  0  0  0  0  0  0
    1.6424   -1.3125    1.1523 H   0  0  0  0  0  0  0  0  0  0  0  0
    3.0820   -3.3112    7.3461 H   0  0  0  0  0  0  0  0  0  0  0  0
    1.5988   -4.1742    7.0653 H   0  0  0  0  0  0  0  0  0  0  0  0
    1.5790   -2.4523    7.0286 H   0  0  0  0  0  0  0  0  0  0  0  0
    3.1458   -5.3307    5.8286 H   0  0  0  0  0  0  0  0  0  0  0  0
    3.4767   -4.9799    2.8728 H   0  0  0  0  0  0  0  0  0  0  0  0
    5.6720   -5.1765    3.4376 H   0  0  0  0  0  0  0  0  0  0  0  0
    4.5359   -7.0842    2.7666 H   0  0  0  0  0  0  0  0  0  0  0  0
    5.0239   -8.3662    4.5085 H   0  0  0  0  0  0  0  0  0  0  0  0
    2.6346   -8.9382    5.1727 H   0  0  0  0  0  0  0  0  0  0  0  0
  1  2  1  0
  1 38  1  0
  1 39  1  0
  1 40  1  0
  2 36  1  0
  2  3  1  0
  2  4  1  0
  3 41  1  0
  3 42  1  0
  3 43  1  0
  4 36  1  0
  4  5  1  0
  4 44  1  6
  5  6  1  0
  5  7  1  0
  5 45  1  6
  6 46  1  0
  7 31  1  0
  7  8  1  0
  7 47  1  1
  8  9  1  0
  9 29  1  0
  9 10  1  0
  9 48  1  6
 10 12  1  0
 10 11  1  0
 10 49  1  1
 12 11  1  6
 12 27  1  0
 12 13  1  0
 13 14  1  0
 13 50  1  0
 13 51  1  0
 14 15  1  0
 14 52  1  0
 14 53  1  0
 15 16  1  1
 15 17  1  0
 15 29  1  0
 16 54  1  0
 17 27  1  0
 17 18  1  0
 17 55  1  1
 18 19  1  0
 18 56  1  0
 18 57  1  0
 19 20  1  0
 19 25  1  0
 19 58  1  1
 20 24  1  0
 20 21  1  0
 21 22  2  0
 21 59  1  0
 22 23  1  0
 22 60  1  0
 23 24  2  0
 25 26  1  0
 25 61  1  0
 25 62  1  0
 26 27  1  0
 26 63  1  0
 26 64  1  0
 27 28  1  6
 28 65  1  0
 29 30  1  1
 29 31  1  0
 30 66  1  0
 30 67  1  0
 30 68  1  0
 31 32  1  0
 31 69  1  1
 32 33  1  0
 32 34  1  0
 32 70  1  6
 33 71  1  0
 34 35  1  0
 34 36  1  0
 34 72  1  6
 35 73  1  0
 36 37  1  1
 37 74  1  0
M  END
>  <i_m_ct_stereo_status>  (311) 
1

>  <s_m_source_file>  (311) 
/var/tmp/pbs.5076255.sched01/tmpcwktr4ti/1290j0z1rin.sdf

>  <i_m_source_file_index>  (311) 
10

>  <i_lp_mmshare_version>  (311) 
48012

>  <i_f3d_flags>  (311) 
0

>  <s_epik_input>  (311) 
W09IXVtDQEhdMVtDQEBIXShbT0hdKVtDQF0oW09IXSkoQzIoW0NIM10pW0NIM10pW0NAQEhdMltDQEBIXShbT0hdKVtDQEhdKE8zKVtDQEBIXTFbQ0BdKFtDSDNdKShbQ0BASF0zW0NASF0oTzQpW0NAQF00NTYpW0NAXShbT0hdKShbQ0gyXVtDSDJdNSlbQ0BASF03W0NAXTYoW09IXSlbQ0gyXVtDSDJdW0NAQEhdKFtDSDJdNyluOFtjSF1bY0hdbm44

>  <s_epik_cmdline>  (311) 
J2VwaWtfcHl0aG9uJywgJy1waHQnLCAnMi4wJywgJy1waCcsICc3LjAnLCAnLXRuJywgJzgnLCAnLW1hJywgJzIwMCcsICctaW1hZScsICc8aW5maWxlLm1hZT4nLCAnLW9tYWUnLCAnPG91dGZpbGUubWFlPic=

>  <r_lp_tautomer_probability>  (311) 
1

>  <r_epik_Ionization_Penalty>  (311) 
3.15721e-05

>  <r_epik_Ionization_Penalty_Charging>  (311) 
0

>  <r_epik_Ionization_Penalty_Neutral>  (311) 
3.15721e-05

>  <r_epik_State_Penalty>  (311) 
-0

>  <r_epik_Charging_Adjusted_Penalty>  (311) 
0

>  <i_epik_Tot_Q>  (311) 
0

>  <i_epik_Tot_abs_Q>  (311) 
0

>  <s_lp_Force_Field>  (311) 
OPLS3e

>  <r_lp_Energy>  (311) 
119.393

>  <b_lp_Chiralities_Consistent>  (311) 
1

>  <s_lp_Variant>  (311) 
89:0-1

>  <s_i_glide_gridfile>  (311) 
pfpi4k_grid

>  <i_i_glide_lignum>  (311) 
10

>  <i_i_glide_rotatable_bonds>  (311) 
7

>  <r_i_docking_score>  (311) 
-3.19527

>  <r_i_glide_ligand_efficiency>  (311) 
-0.0863586

>  <r_i_glide_ligand_efficiency_sa>  (311) 
-0.287766

>  <r_i_glide_ligand_efficiency_ln>  (311) 
-0.692979

>  <r_i_glide_gscore>  (311) 
-3.19527

>  <r_i_glide_lipo>  (311) 
-0.431586

>  <r_i_glide_hbond>  (311) 
0

>  <r_i_glide_metal>  (311) 
-0

>  <r_i_glide_rewards>  (311) 
-0.558474

>  <r_i_glide_evdw>  (311) 
-33.3877

>  <r_i_glide_ecoul>  (311) 
-3.6265

>  <r_i_glide_erotb>  (311) 
0.0761036

>  <r_i_glide_esite>  (311) 
-0.0679504

>  <r_i_glide_emodel>  (311) 
-50.0503

>  <r_i_glide_energy>  (311) 
-37.0142

>  <r_i_glide_einternal>  (311) 
2.00737

>  <r_i_glide_intrahb_reward>  (311) 
-0.5

>  <i_i_glide_confnum>  (311) 
1

>  <i_i_glide_posenum>  (311) 
10

>  <r_i_glide_eff_state_penalty>  (311) 
0

>  <ligand_id>  (311) 
89

>  <original_smiles>  (311) 
CC1(C)C2C(O)C3OC4C5OC56CCC(O)(C5CC(n7ccnn7)CCC56O)C4(C)C3C(O)C(O)C21O

>  <smiles>  (311) 
[H]OC1([H])C2([H])OC3([H])C4([H])OC45C([H])([H])C([H])([H])C(O[H])(C4([H])C([H])([H])C([H])(n6nnc([H])c6[H])C([H])([H])C([H])([H])C45O[H])C3(C([H])([H])[H])C2([H])C([H])(O[H])C([H])(O[H])C2(O[H])C1([H])C2(C([H])([H])[H])C([H])([H])[H]

$$$$
89:0:1
     RDKit          3D

 74 81  0  0  1  0  0  0  0  0999 V2000
    0.8574   -9.4802    2.9508 C   0  0  0  0  0  0  0  0  0  0  0  0
    1.9774   -8.4696    2.7007 C   0  0  0  0  0  0  0  0  0  0  0  0
    2.8626   -8.9981    1.5860 C   0  0  0  0  0  0  0  0  0  0  0  0
    1.7080   -6.9728    2.7928 C   0  0  1  0  0  0  0  0  0  0  0  0
    0.6613   -6.0838    3.4456 C   0  0  1  0  0  0  0  0  0  0  0  0
   -0.5282   -6.7908    3.7196 O   0  0  0  0  0  0  0  0  0  0  0  0
    1.1242   -5.2747    4.7064 C   0  0  2  0  0  0  0  0  0  0  0  0
    0.3367   -4.0791    4.6827 O   0  0  0  0  0  0  0  0  0  0  0  0
    1.1860   -3.0454    4.2514 C   0  0  1  0  0  0  0  0  0  0  0  0
    0.6373   -1.6329    4.3289 C   0  0  2  0  0  0  0  0  0  0  0  0
    0.2720   -0.7006    3.2721 O   0  0  0  0  0  0  0  0  0  0  0  0
    1.6204   -0.6516    3.7460 C   0  0  1  0  0  0  0  0  0  0  0  0
    2.1417    0.1769    4.8908 C   0  0  0  0  0  0  0  0  0  0  0  0
    3.1776   -0.7001    5.6601 C   0  0  0  0  0  0  0  0  0  0  0  0
    3.5355   -2.0849    4.9529 C   0  0  2  0  0  0  0  0  0  0  0  0
    4.7272   -2.4697    5.6040 O   0  0  0  0  0  0  0  0  0  0  0  0
    3.9009   -1.6012    3.4929 C   0  0  1  0  0  0  0  0  0  0  0  0
    4.8951   -2.3029    2.5565 C   0  0  0  0  0  0  0  0  0  0  0  0
    5.4238   -1.3247    1.4644 C   0  0  1  0  0  0  0  0  0  0  0  0
    6.1044   -2.0657    0.4080 N   0  0  0  0  0  0  0  0  0  0  0  0
    7.4538   -2.0929    0.0806 C   0  0  0  0  0  0  0  0  0  0  0  0
    7.5186   -2.9622   -0.9500 C   0  0  0  0  0  0  0  0  0  0  0  0
    6.2242   -3.4145   -1.2298 N   0  0  0  0  0  0  0  0  0  0  0  0
    5.3907   -2.8871   -0.4086 N   0  0  0  0  0  0  0  0  0  0  0  0
    4.3684   -0.3220    0.8915 C   0  0  0  0  0  0  0  0  0  0  0  0
    3.2866    0.1922    1.8770 C   0  0  0  0  0  0  0  0  0  0  0  0
    2.7215   -0.9717    2.7141 C   0  0  2  0  0  0  0  0  0  0  0  0
    2.2044   -1.8403    1.7186 O   0  0  0  0  0  0  0  0  0  0  0  0
    2.4102   -3.2344    5.1703 C   0  0  1  0  0  0  0  0  0  0  0  0
    1.9639   -3.1527    6.6714 C   0  0  0  0  0  0  0  0  0  0  0  0
    2.6275   -4.7862    4.9365 C   0  0  2  0  0  0  0  0  0  0  0  0
    3.7240   -5.3152    3.9472 C   0  0  1  0  0  0  0  0  0  0  0  0
    4.9966   -4.7860    4.2533 O   0  0  0  0  0  0  0  0  0  0  0  0
    3.9352   -6.8704    3.8775 C   0  0  1  0  0  0  0  0  0  0  0  0
    4.7131   -7.3951    4.9384 O   0  0  0  0  0  0  0  0  0  0  0  0
    2.6264   -7.6365    3.7896 C   0  0  2  0  0  0  0  0  0  0  0  0
    2.0517   -8.0001    5.0294 O   0  0  0  0  0  0  0  0  0  0  0  0
    0.2132   -9.5462    2.0757 H   0  0  0  0  0  0  0  0  0  0  0  0
    0.2317   -9.2009    3.7925 H   0  0  0  0  0  0  0  0  0  0  0  0
    1.2701  -10.4676    3.1562 H   0  0  0  0  0  0  0  0  0  0  0  0
    3.6150   -8.2594    1.3045 H   0  0  0  0  0  0  0  0  0  0  0  0
    2.2667   -9.2213    0.7015 H   0  0  0  0  0  0  0  0  0  0  0  0
    3.3755   -9.9113    1.8937 H   0  0  0  0  0  0  0  0  0  0  0  0
    2.1735   -6.4488    1.9660 H   0  0  0  0  0  0  0  0  0  0  0  0
    0.3920   -5.3705    2.6709 H   0  0  0  0  0  0  0  0  0  0  0  0
   -0.3045   -7.5070    4.3005 H   0  0  0  0  0  0  0  0  0  0  0  0
    0.8087   -5.8204    5.5965 H   0  0  0  0  0  0  0  0  0  0  0  0
    1.4253   -3.3276    3.2389 H   0  0  0  0  0  0  0  0  0  0  0  0
    0.1235   -1.4016    5.2563 H   0  0  0  0  0  0  0  0  0  0  0  0
    2.5890    1.0994    4.5137 H   0  0  0  0  0  0  0  0  0  0  0  0
    1.3217    0.4776    5.5483 H   0  0  0  0  0  0  0  0  0  0  0  0
    4.0793   -0.0928    5.7551 H   0  0  0  0  0  0  0  0  0  0  0  0
    2.8777   -0.8078    6.6984 H   0  0  0  0  0  0  0  0  0  0  0  0
    4.9915   -3.3037    5.2209 H   0  0  0  0  0  0  0  0  0  0  0  0
    4.5263   -0.7502    3.7448 H   0  0  0  0  0  0  0  0  0  0  0  0
    5.7564   -2.6772    3.1160 H   0  0  0  0  0  0  0  0  0  0  0  0
    4.4007   -3.1478    2.0858 H   0  0  0  0  0  0  0  0  0  0  0  0
    6.1794   -0.7077    1.9543 H   0  0  0  0  0  0  0  0  0  0  0  0
    8.2186   -1.5246    0.6054 H   0  0  0  0  0  0  0  0  0  0  0  0
    8.3633   -3.3116   -1.5361 H   0  0  0  0  0  0  0  0  0  0  0  0
    4.9021    0.5374    0.4841 H   0  0  0  0  0  0  0  0  0  0  0  0
    3.8564   -0.7709    0.0401 H   0  0  0  0  0  0  0  0  0  0  0  0
    3.7210    0.9557    2.5207 H   0  0  0  0  0  0  0  0  0  0  0  0
    2.4924    0.6829    1.3126 H   0  0  0  0  0  0  0  0  0  0  0  0
    1.7368   -1.3224    1.0692 H   0  0  0  0  0  0  0  0  0  0  0  0
    2.8265   -3.1487    7.3399 H   0  0  0  0  0  0  0  0  0  0  0  0
    1.3487   -3.9946    6.9874 H   0  0  0  0  0  0  0  0  0  0  0  0
    1.3639   -2.2743    6.9003 H   0  0  0  0  0  0  0  0  0  0  0  0
    2.9512   -5.2132    5.8886 H   0  0  0  0  0  0  0  0  0  0  0  0
    3.4779   -4.9576    2.9511 H   0  0  0  0  0  0  0  0  0  0  0  0
    5.6260   -5.1666    3.6558 H   0  0  0  0  0  0  0  0  0  0  0  0
    4.5026   -7.0809    2.9748 H   0  0  0  0  0  0  0  0  0  0  0  0
    4.8569   -8.3171    4.7772 H   0  0  0  0  0  0  0  0  0  0  0  0
    2.4508   -8.8068    5.3248 H   0  0  0  0  0  0  0  0  0  0  0  0
  1  2  1  0
  1 38  1  0
  1 39  1  0
  1 40  1  0
  2 36  1  0
  2  3  1  0
  2  4  1  0
  3 41  1  0
  3 42  1  0
  3 43  1  0
  4 36  1  0
  4  5  1  0
  4 44  1  6
  5  6  1  0
  5  7  1  0
  5 45  1  6
  6 46  1  0
  7 31  1  0
  7  8  1  0
  7 47  1  1
  8  9  1  0
  9 29  1  0
  9 10  1  0
  9 48  1  6
 10 12  1  0
 10 11  1  0
 10 49  1  1
 12 11  1  6
 12 27  1  0
 12 13  1  0
 13 14  1  0
 13 50  1  0
 13 51  1  0
 14 15  1  0
 14 52  1  0
 14 53  1  0
 15 16  1  1
 15 17  1  0
 15 29  1  0
 16 54  1  0
 17 27  1  0
 17 18  1  0
 17 55  1  1
 18 19  1  0
 18 56  1  0
 18 57  1  0
 19 20  1  0
 19 25  1  0
 19 58  1  1
 20 24  1  0
 20 21  1  0
 21 22  2  0
 21 59  1  0
 22 23  1  0
 22 60  1  0
 23 24  2  0
 25 26  1  0
 25 61  1  0
 25 62  1  0
 26 27  1  0
 26 63  1  0
 26 64  1  0
 27 28  1  6
 28 65  1  0
 29 30  1  1
 29 31  1  0
 30 66  1  0
 30 67  1  0
 30 68  1  0
 31 32  1  0
 31 69  1  1
 32 33  1  0
 32 34  1  0
 32 70  1  6
 33 71  1  0
 34 35  1  0
 34 36  1  0
 34 72  1  6
 35 73  1  0
 36 37  1  1
 37 74  1  0
M  END
>  <i_m_ct_stereo_status>  (312) 
1

>  <s_m_source_file>  (312) 
/var/tmp/pbs.5076255.sched01/tmpcwktr4ti/1290j0z1rin.sdf

>  <i_m_source_file_index>  (312) 
10

>  <i_lp_mmshare_version>  (312) 
48012

>  <i_f3d_flags>  (312) 
0

>  <s_epik_input>  (312) 
W09IXVtDQEhdMVtDQEBIXShbT0hdKVtDQF0oW09IXSkoQzIoW0NIM10pW0NIM10pW0NAQEhdMltDQEBIXShbT0hdKVtDQEhdKE8zKVtDQEBIXTFbQ0BdKFtDSDNdKShbQ0BASF0zW0NASF0oTzQpW0NAQF00NTYpW0NAXShbT0hdKShbQ0gyXVtDSDJdNSlbQ0BASF03W0NAXTYoW09IXSlbQ0gyXVtDSDJdW0NAQEhdKFtDSDJdNyluOFtjSF1bY0hdbm44

>  <s_epik_cmdline>  (312) 
J2VwaWtfcHl0aG9uJywgJy1waHQnLCAnMi4wJywgJy1waCcsICc3LjAnLCAnLXRuJywgJzgnLCAnLW1hJywgJzIwMCcsICctaW1hZScsICc8aW5maWxlLm1hZT4nLCAnLW9tYWUnLCAnPG91dGZpbGUubWFlPic=

>  <r_lp_tautomer_probability>  (312) 
1

>  <r_epik_Ionization_Penalty>  (312) 
3.15721e-05

>  <r_epik_Ionization_Penalty_Charging>  (312) 
0

>  <r_epik_Ionization_Penalty_Neutral>  (312) 
3.15721e-05

>  <r_epik_State_Penalty>  (312) 
-0

>  <r_epik_Charging_Adjusted_Penalty>  (312) 
0

>  <i_epik_Tot_Q>  (312) 
0

>  <i_epik_Tot_abs_Q>  (312) 
0

>  <s_lp_Force_Field>  (312) 
OPLS3e

>  <r_lp_Energy>  (312) 
119.393

>  <b_lp_Chiralities_Consistent>  (312) 
1

>  <s_lp_Variant>  (312) 
89:0-1

>  <s_i_glide_gridfile>  (312) 
pfpi4k_grid

>  <i_i_glide_lignum>  (312) 
10

>  <i_i_glide_rotatable_bonds>  (312) 
7

>  <r_i_docking_score>  (312) 
-2.98363

>  <r_i_glide_ligand_efficiency>  (312) 
-0.0806385

>  <r_i_glide_ligand_efficiency_sa>  (312) 
-0.268705

>  <r_i_glide_ligand_efficiency_ln>  (312) 
-0.647078

>  <r_i_glide_gscore>  (312) 
-2.98363

>  <r_i_glide_lipo>  (312) 
-0.382894

>  <r_i_glide_hbond>  (312) 
0

>  <r_i_glide_metal>  (312) 
-0

>  <r_i_glide_rewards>  (312) 
-0.60238

>  <r_i_glide_evdw>  (312) 
-33.2023

>  <r_i_glide_ecoul>  (312) 
-2.76225

>  <r_i_glide_erotb>  (312) 
0.0761036

>  <r_i_glide_esite>  (312) 
0

>  <r_i_glide_emodel>  (312) 
-48.8238

>  <r_i_glide_energy>  (312) 
-35.9646

>  <r_i_glide_einternal>  (312) 
1.22914

>  <r_i_glide_intrahb_reward>  (312) 
-0.5

>  <i_i_glide_confnum>  (312) 
3

>  <i_i_glide_posenum>  (312) 
7

>  <r_i_glide_eff_state_penalty>  (312) 
0

>  <ligand_id>  (312) 
89

>  <original_smiles>  (312) 
CC1(C)C2C(O)C3OC4C5OC56CCC(O)(C5CC(n7ccnn7)CCC56O)C4(C)C3C(O)C(O)C21O

>  <smiles>  (312) 
[H]OC1([H])C2([H])OC3([H])C4([H])OC45C([H])([H])C([H])([H])C(O[H])(C4([H])C([H])([H])C([H])(n6nnc([H])c6[H])C([H])([H])C([H])([H])C45O[H])C3(C([H])([H])[H])C2([H])C([H])(O[H])C([H])(O[H])C2(O[H])C1([H])C2(C([H])([H])[H])C([H])([H])[H]

$$$$
89:0:2
     RDKit          3D

 74 81  0  0  1  0  0  0  0  0999 V2000
    0.8388   -9.4792    2.9483 C   0  0  0  0  0  0  0  0  0  0  0  0
    1.9597   -8.4669    2.7019 C   0  0  0  0  0  0  0  0  0  0  0  0
    2.8409   -9.0019    1.5883 C   0  0  0  0  0  0  0  0  0  0  0  0
    1.6910   -6.9680    2.7834 C   0  0  1  0  0  0  0  0  0  0  0  0
    0.6463   -6.0788    3.4388 C   0  0  1  0  0  0  0  0  0  0  0  0
   -0.5450   -6.7836    3.7118 O   0  0  0  0  0  0  0  0  0  0  0  0
    1.1034   -5.2728    4.7018 C   0  0  2  0  0  0  0  0  0  0  0  0
    0.3200   -4.0729    4.6804 O   0  0  0  0  0  0  0  0  0  0  0  0
    1.1699   -3.0411    4.2442 C   0  0  1  0  0  0  0  0  0  0  0  0
    0.6260   -1.6278    4.3206 C   0  0  2  0  0  0  0  0  0  0  0  0
    0.2668   -0.6905    3.2638 O   0  0  0  0  0  0  0  0  0  0  0  0
    1.6164   -0.6484    3.7344 C   0  0  1  0  0  0  0  0  0  0  0  0
    2.1372    0.1812    4.8751 C   0  0  0  0  0  0  0  0  0  0  0  0
    3.1705   -0.6951    5.6531 C   0  0  0  0  0  0  0  0  0  0  0  0
    3.5176   -2.0803    4.9505 C   0  0  2  0  0  0  0  0  0  0  0  0
    4.7061   -2.4622    5.6063 O   0  0  0  0  0  0  0  0  0  0  0  0
    3.8933   -1.6034    3.4882 C   0  0  1  0  0  0  0  0  0  0  0  0
    4.8854   -2.3113    2.5504 C   0  0  0  0  0  0  0  0  0  0  0  0
    5.4171   -1.3299    1.4574 C   0  0  1  0  0  0  0  0  0  0  0  0
    6.0876   -2.0746    0.3992 N   0  0  0  0  0  0  0  0  0  0  0  0
    7.4443   -2.1195    0.0769 C   0  0  0  0  0  0  0  0  0  0  0  0
    7.5036   -2.9793   -0.9605 C   0  0  0  0  0  0  0  0  0  0  0  0
    6.2082   -3.4089   -1.2488 N   0  0  0  0  0  0  0  0  0  0  0  0
    5.3732   -2.8815   -0.4307 N   0  0  0  0  0  0  0  0  0  0  0  0
    4.3663   -0.3231    0.8865 C   0  0  0  0  0  0  0  0  0  0  0  0
    3.2847    0.1889    1.8736 C   0  0  0  0  0  0  0  0  0  0  0  0
    2.7135   -0.9747    2.7048 C   0  0  2  0  0  0  0  0  0  0  0  0
    2.2008   -1.8450    1.7083 O   0  0  0  0  0  0  0  0  0  0  0  0
    2.3902   -3.2303    5.1664 C   0  0  1  0  0  0  0  0  0  0  0  0
    1.9489   -3.1479    6.6655 C   0  0  0  0  0  0  0  0  0  0  0  0
    2.6039   -4.7847    4.9317 C   0  0  2  0  0  0  0  0  0  0  0  0
    3.7045   -5.3080    3.9468 C   0  0  1  0  0  0  0  0  0  0  0  0
    4.9684   -4.8077    4.3325 O   0  0  0  0  0  0  0  0  0  0  0  0
    3.9141   -6.8608    3.8736 C   0  0  1  0  0  0  0  0  0  0  0  0
    4.6857   -7.3595    4.9545 O   0  0  0  0  0  0  0  0  0  0  0  0
    2.6053   -7.6283    3.7852 C   0  0  2  0  0  0  0  0  0  0  0  0
    2.0353   -7.9882    5.0271 O   0  0  0  0  0  0  0  0  0  0  0  0
    0.1970   -9.5397    2.0754 H   0  0  0  0  0  0  0  0  0  0  0  0
    0.2147   -9.2002    3.7966 H   0  0  0  0  0  0  0  0  0  0  0  0
    1.2548  -10.4687    3.1535 H   0  0  0  0  0  0  0  0  0  0  0  0
    3.5928   -8.2627    1.3028 H   0  0  0  0  0  0  0  0  0  0  0  0
    2.2385   -9.2290    0.7077 H   0  0  0  0  0  0  0  0  0  0  0  0
    3.3493   -9.9180    1.8982 H   0  0  0  0  0  0  0  0  0  0  0  0
    2.1599   -6.4438    1.9579 H   0  0  0  0  0  0  0  0  0  0  0  0
    0.3837   -5.3622    2.6649 H   0  0  0  0  0  0  0  0  0  0  0  0
   -0.3228   -7.5001    4.2935 H   0  0  0  0  0  0  0  0  0  0  0  0
    0.7899   -5.8212    5.5931 H   0  0  0  0  0  0  0  0  0  0  0  0
    1.4125   -3.3336    3.2341 H   0  0  0  0  0  0  0  0  0  0  0  0
    0.1192   -1.3938    5.2497 H   0  0  0  0  0  0  0  0  0  0  0  0
    2.5917    1.1015    4.4985 H   0  0  0  0  0  0  0  0  0  0  0  0
    1.3186    0.4809    5.5353 H   0  0  0  0  0  0  0  0  0  0  0  0
    4.0776   -0.0927    5.7475 H   0  0  0  0  0  0  0  0  0  0  0  0
    2.8697   -0.8018    6.6915 H   0  0  0  0  0  0  0  0  0  0  0  0
    4.9992   -3.2549    5.1644 H   0  0  0  0  0  0  0  0  0  0  0  0
    4.5230   -0.7525    3.7404 H   0  0  0  0  0  0  0  0  0  0  0  0
    5.7433   -2.6954    3.1102 H   0  0  0  0  0  0  0  0  0  0  0  0
    4.3861   -3.1572    2.0802 H   0  0  0  0  0  0  0  0  0  0  0  0
    6.1777   -0.7160    1.9439 H   0  0  0  0  0  0  0  0  0  0  0  0
    8.2087   -1.5653    0.6120 H   0  0  0  0  0  0  0  0  0  0  0  0
    8.3450   -3.3347   -1.5424 H   0  0  0  0  0  0  0  0  0  0  0  0
    4.9009    0.5322    0.4776 H   0  0  0  0  0  0  0  0  0  0  0  0
    3.8406   -0.7639    0.0379 H   0  0  0  0  0  0  0  0  0  0  0  0
    3.7138    0.9621    2.5126 H   0  0  0  0  0  0  0  0  0  0  0  0
    2.4935    0.6840    1.3041 H   0  0  0  0  0  0  0  0  0  0  0  0
    1.7273   -1.3211    1.0642 H   0  0  0  0  0  0  0  0  0  0  0  0
    2.8145   -3.1461    7.3284 H   0  0  0  0  0  0  0  0  0  0  0  0
    1.3348   -3.9881    6.9797 H   0  0  0  0  0  0  0  0  0  0  0  0
    1.3513   -2.2690    6.8912 H   0  0  0  0  0  0  0  0  0  0  0  0
    2.9253   -5.2124    5.8849 H   0  0  0  0  0  0  0  0  0  0  0  0
    3.4798   -4.9387    2.9483 H   0  0  0  0  0  0  0  0  0  0  0  0
    5.2691   -5.3580    5.0491 H   0  0  0  0  0  0  0  0  0  0  0  0
    4.4990   -7.0696    2.9806 H   0  0  0  0  0  0  0  0  0  0  0  0
    4.8429   -8.2815    4.7963 H   0  0  0  0  0  0  0  0  0  0  0  0
    2.4193   -8.8063    5.3137 H   0  0  0  0  0  0  0  0  0  0  0  0
  1  2  1  0
  1 38  1  0
  1 39  1  0
  1 40  1  0
  2 36  1  0
  2  3  1  0
  2  4  1  0
  3 41  1  0
  3 42  1  0
  3 43  1  0
  4 36  1  0
  4  5  1  0
  4 44  1  6
  5  6  1  0
  5  7  1  0
  5 45  1  6
  6 46  1  0
  7 31  1  0
  7  8  1  0
  7 47  1  1
  8  9  1  0
  9 29  1  0
  9 10  1  0
  9 48  1  6
 10 12  1  0
 10 11  1  0
 10 49  1  1
 12 11  1  6
 12 27  1  0
 12 13  1  0
 13 14  1  0
 13 50  1  0
 13 51  1  0
 14 15  1  0
 14 52  1  0
 14 53  1  0
 15 16  1  1
 15 17  1  0
 15 29  1  0
 16 54  1  0
 17 27  1  0
 17 18  1  0
 17 55  1  1
 18 19  1  0
 18 56  1  0
 18 57  1  0
 19 20  1  0
 19 25  1  0
 19 58  1  1
 20 24  1  0
 20 21  1  0
 21 22  2  0
 21 59  1  0
 22 23  1  0
 22 60  1  0
 23 24  2  0
 25 26  1  0
 25 61  1  0
 25 62  1  0
 26 27  1  0
 26 63  1  0
 26 64  1  0
 27 28  1  6
 28 65  1  0
 29 30  1  1
 29 31  1  0
 30 66  1  0
 30 67  1  0
 30 68  1  0
 31 32  1  0
 31 69  1  1
 32 33  1  0
 32 34  1  0
 32 70  1  6
 33 71  1  0
 34 35  1  0
 34 36  1  0
 34 72  1  6
 35 73  1  0
 36 37  1  1
 37 74  1  0
M  END
>  <i_m_ct_stereo_status>  (313) 
1

>  <s_m_source_file>  (313) 
/var/tmp/pbs.5076255.sched01/tmpcwktr4ti/1290j0z1rin.sdf

>  <i_m_source_file_index>  (313) 
10

>  <i_lp_mmshare_version>  (313) 
48012

>  <i_f3d_flags>  (313) 
0

>  <s_epik_input>  (313) 
W09IXVtDQEhdMVtDQEBIXShbT0hdKVtDQF0oW09IXSkoQzIoW0NIM10pW0NIM10pW0NAQEhdMltDQEBIXShbT0hdKVtDQEhdKE8zKVtDQEBIXTFbQ0BdKFtDSDNdKShbQ0BASF0zW0NASF0oTzQpW0NAQF00NTYpW0NAXShbT0hdKShbQ0gyXVtDSDJdNSlbQ0BASF03W0NAXTYoW09IXSlbQ0gyXVtDSDJdW0NAQEhdKFtDSDJdNyluOFtjSF1bY0hdbm44

>  <s_epik_cmdline>  (313) 
J2VwaWtfcHl0aG9uJywgJy1waHQnLCAnMi4wJywgJy1waCcsICc3LjAnLCAnLXRuJywgJzgnLCAnLW1hJywgJzIwMCcsICctaW1hZScsICc8aW5maWxlLm1hZT4nLCAnLW9tYWUnLCAnPG91dGZpbGUubWFlPic=

>  <r_lp_tautomer_probability>  (313) 
1

>  <r_epik_Ionization_Penalty>  (313) 
3.15721e-05

>  <r_epik_Ionization_Penalty_Charging>  (313) 
0

>  <r_epik_Ionization_Penalty_Neutral>  (313) 
3.15721e-05

>  <r_epik_State_Penalty>  (313) 
-0

>  <r_epik_Charging_Adjusted_Penalty>  (313) 
0

>  <i_epik_Tot_Q>  (313) 
0

>  <i_epik_Tot_abs_Q>  (313) 
0

>  <s_lp_Force_Field>  (313) 
OPLS3e

>  <r_lp_Energy>  (313) 
119.393

>  <b_lp_Chiralities_Consistent>  (313) 
1

>  <s_lp_Variant>  (313) 
89:0-1

>  <s_i_glide_gridfile>  (313) 
pfpi4k_grid

>  <i_i_glide_lignum>  (313) 
10

>  <i_i_glide_rotatable_bonds>  (313) 
7

>  <r_i_docking_score>  (313) 
-2.97993

>  <r_i_glide_ligand_efficiency>  (313) 
-0.0805388

>  <r_i_glide_ligand_efficiency_sa>  (313) 
-0.268373

>  <r_i_glide_ligand_efficiency_ln>  (313) 
-0.646278

>  <r_i_glide_gscore>  (313) 
-2.97993

>  <r_i_glide_lipo>  (313) 
-0.381708

>  <r_i_glide_hbond>  (313) 
0

>  <r_i_glide_metal>  (313) 
-0

>  <r_i_glide_rewards>  (313) 
-0.600005

>  <r_i_glide_evdw>  (313) 
-33.1998

>  <r_i_glide_ecoul>  (313) 
-2.76223

>  <r_i_glide_erotb>  (313) 
0.0761036

>  <r_i_glide_esite>  (313) 
0

>  <r_i_glide_emodel>  (313) 
-48.8511

>  <r_i_glide_energy>  (313) 
-35.962

>  <r_i_glide_einternal>  (313) 
0.919431

>  <r_i_glide_intrahb_reward>  (313) 
-0.5

>  <i_i_glide_confnum>  (313) 
5

>  <i_i_glide_posenum>  (313) 
29

>  <r_i_glide_eff_state_penalty>  (313) 
0

>  <ligand_id>  (313) 
89

>  <original_smiles>  (313) 
CC1(C)C2C(O)C3OC4C5OC56CCC(O)(C5CC(n7ccnn7)CCC56O)C4(C)C3C(O)C(O)C21O

>  <smiles>  (313) 
[H]OC1([H])C2([H])OC3([H])C4([H])OC45C([H])([H])C([H])([H])C(O[H])(C4([H])C([H])([H])C([H])(n6nnc([H])c6[H])C([H])([H])C([H])([H])C45O[H])C3(C([H])([H])[H])C2([H])C([H])(O[H])C([H])(O[H])C2(O[H])C1([H])C2(C([H])([H])[H])C([H])([H])[H]

$$$$
90:0:0
     RDKit          3D

 55 61  0  0  1  0  0  0  0  0999 V2000
   -1.8715   -8.5799    2.5264 C   0  0  0  0  0  0  0  0  0  0  0  0
   -0.6388   -8.0690    2.3822 C   0  0  0  0  0  0  0  0  0  0  0  0
   -0.2888   -7.1223    1.3582 C   0  0  0  0  0  0  0  0  0  0  0  0
    1.0061   -6.8579    1.4445 C   0  0  0  0  0  0  0  0  0  0  0  0
    1.7080   -5.9521    0.6920 O   0  0  0  0  0  0  0  0  0  0  0  0
    3.1263   -6.0568    0.8457 C   0  0  1  0  0  0  0  0  0  0  0  0
    3.9301   -4.9489    0.1651 C   0  0  0  0  0  0  0  0  0  0  0  0
    5.2124   -4.8445    1.0150 C   0  0  1  0  0  0  0  0  0  0  0  0
    5.8063   -3.4573    0.9442 C   0  0  0  0  0  0  0  0  0  0  0  0
    5.4650   -2.3206    1.7312 C   0  0  0  0  0  0  0  0  0  0  0  0
    6.2440   -1.2934    1.2930 C   0  0  0  0  0  0  0  0  0  0  0  0
    7.0452   -1.6968    0.2727 O   0  0  0  0  0  0  0  0  0  0  0  0
    6.7619   -3.0095    0.0678 C   0  0  0  0  0  0  0  0  0  0  0  0
    4.7600   -5.3415    2.3815 C   0  0  0  0  0  0  0  0  0  0  0  0
    5.5844   -5.0637    3.6235 C   0  0  0  0  0  0  0  0  0  0  0  0
    3.6006   -6.0116    2.2804 C   0  0  0  0  0  0  0  0  0  0  0  0
    2.6798   -6.6246    3.3389 C   0  0  2  0  0  0  0  0  0  0  0  0
    1.8698   -5.4435    3.9291 C   0  0  0  0  0  0  0  0  0  0  0  0
    3.3950   -7.3176    4.5691 C   0  0  2  0  0  0  0  0  0  0  0  0
    4.3872   -8.2807    4.2477 O   0  0  0  0  0  0  0  0  0  0  0  0
    3.6616   -9.4288    4.1010 C   0  0  1  0  0  0  0  0  0  0  0  0
    4.0908  -10.7048    4.3400 O   0  0  0  0  0  0  0  0  0  0  0  0
    2.8005  -11.3991    4.3952 C   0  0  0  0  0  0  0  0  0  0  0  0
    1.6713  -10.3202    4.6690 C   0  0  2  0  0  0  0  0  0  0  0  0
    0.7807  -10.6991    5.6747 O   0  0  0  0  0  0  0  0  0  0  0  0
    0.8417   -9.8636    3.4407 C   0  0  0  0  0  0  0  0  0  0  0  0
    0.4563  -10.6762    2.6042 O   0  0  0  0  0  0  0  0  0  0  0  0
    0.5428   -8.3522    3.2891 C   0  0  1  0  0  0  0  0  0  0  0  0
    1.7111   -7.5940    2.5608 C   0  0  1  0  0  0  0  0  0  0  0  0
    2.6346   -9.2879    5.1799 C   0  0  2  0  0  0  0  0  0  0  0  0
    2.3748   -7.9172    5.3022 O   0  0  0  0  0  0  0  0  0  0  0  0
   -2.1024   -9.2924    3.3083 H   0  0  0  0  0  0  0  0  0  0  0  0
   -2.6608   -8.3149    1.8415 H   0  0  0  0  0  0  0  0  0  0  0  0
   -0.9650   -6.6834    0.6439 H   0  0  0  0  0  0  0  0  0  0  0  0
    3.4589   -7.0166    0.4546 H   0  0  0  0  0  0  0  0  0  0  0  0
    4.1278   -5.0981   -0.8985 H   0  0  0  0  0  0  0  0  0  0  0  0
    3.3514   -4.0264    0.2669 H   0  0  0  0  0  0  0  0  0  0  0  0
    5.9521   -5.5584    0.6523 H   0  0  0  0  0  0  0  0  0  0  0  0
    4.7491   -2.2610    2.5402 H   0  0  0  0  0  0  0  0  0  0  0  0
    6.3574   -0.2655    1.5971 H   0  0  0  0  0  0  0  0  0  0  0  0
    7.3172   -3.4710   -0.7355 H   0  0  0  0  0  0  0  0  0  0  0  0
    6.1579   -4.1522    3.5046 H   0  0  0  0  0  0  0  0  0  0  0  0
    6.3055   -5.8625    3.8130 H   0  0  0  0  0  0  0  0  0  0  0  0
    4.9638   -4.9108    4.5066 H   0  0  0  0  0  0  0  0  0  0  0  0
    1.0912   -5.7770    4.6132 H   0  0  0  0  0  0  0  0  0  0  0  0
    1.3849   -4.8587    3.1469 H   0  0  0  0  0  0  0  0  0  0  0  0
    2.5129   -4.7492    4.4683 H   0  0  0  0  0  0  0  0  0  0  0  0
    3.8618   -6.5927    5.2308 H   0  0  0  0  0  0  0  0  0  0  0  0
    3.3627   -9.4583    3.0634 H   0  0  0  0  0  0  0  0  0  0  0  0
    2.6221  -11.9338    3.4629 H   0  0  0  0  0  0  0  0  0  0  0  0
    2.8530  -12.1569    5.1822 H   0  0  0  0  0  0  0  0  0  0  0  0
    1.2058  -11.2558    6.3377 H   0  0  0  0  0  0  0  0  0  0  0  0
    0.2936   -7.9263    4.2608 H   0  0  0  0  0  0  0  0  0  0  0  0
    2.2626   -8.3001    1.9496 H   0  0  0  0  0  0  0  0  0  0  0  0
    3.0823   -9.5996    6.1294 H   0  0  0  0  0  0  0  0  0  0  0  0
  1  2  2  0
  1 32  1  0
  1 33  1  0
  2 28  1  0
  2  3  1  0
  3  4  2  0
  3 34  1  0
  4 29  1  0
  4  5  1  0
  5  6  1  0
  6 16  1  0
  6  7  1  0
  6 35  1  6
  7  8  1  0
  7 36  1  0
  7 37  1  0
  8  9  1  0
  8 14  1  0
  8 38  1  6
  9 13  2  0
  9 10  1  0
 10 11  2  0
 10 39  1  0
 11 12  1  0
 11 40  1  0
 12 13  1  0
 13 41  1  0
 14 15  1  0
 14 16  2  0
 15 42  1  0
 15 43  1  0
 15 44  1  0
 16 17  1  0
 17 29  1  0
 17 18  1  1
 17 19  1  0
 18 45  1  0
 18 46  1  0
 18 47  1  0
 19 31  1  0
 19 20  1  0
 19 48  1  1
 20 21  1  0
 21 30  1  0
 21 22  1  0
 21 49  1  6
 22 23  1  0
 23 24  1  0
 23 50  1  0
 23 51  1  0
 24 25  1  1
 24 26  1  0
 24 30  1  0
 25 52  1  0
 26 27  2  0
 26 28  1  0
 28 29  1  0
 28 53  1  1
 29 54  1  6
 30 31  1  0
 30 55  1  1
M  END
>  <i_m_ct_stereo_status>  (314) 
1

>  <s_m_source_file>  (314) 
/var/tmp/pbs.5076255.sched01/tmpcwktr4ti/1290j0z1rin.sdf

>  <i_m_source_file_index>  (314) 
11

>  <i_lp_mmshare_version>  (314) 
48012

>  <i_f3d_flags>  (314) 
0

>  <s_epik_input>  (314) 
TzFbQ0BIXTJPW0NAQEhdKE9bQ0gyXTMpW0NAQEhdMVtDQEBdMyhbT0hdKUMoPU8pW0NAQEhdKEMoPVtDSDJdKVtDSF09NClbQ0BIXTVDNE9bQ0BIXShDNltDQF0yNVtDSDNdKVtDSDJdW0NASF0oQz02W0NIM10pYzdbY0hdW2NIXW9bY0hdNw==

>  <s_epik_cmdline>  (314) 
J2VwaWtfcHl0aG9uJywgJy1waHQnLCAnMi4wJywgJy1waCcsICc3LjAnLCAnLXRuJywgJzgnLCAnLW1hJywgJzIwMCcsICctaW1hZScsICc8aW5maWxlLm1hZT4nLCAnLW9tYWUnLCAnPG91dGZpbGUubWFlPic=

>  <r_lp_tautomer_probability>  (314) 
1

>  <r_epik_Ionization_Penalty>  (314) 
2.32814e-06

>  <r_epik_Ionization_Penalty_Charging>  (314) 
0

>  <r_epik_Ionization_Penalty_Neutral>  (314) 
2.32814e-06

>  <r_epik_State_Penalty>  (314) 
-0

>  <r_epik_Charging_Adjusted_Penalty>  (314) 
0

>  <i_epik_Tot_Q>  (314) 
0

>  <i_epik_Tot_abs_Q>  (314) 
0

>  <s_epik_Chemistry_Notes>  (314) 
This compound contains an acetal/aminal-like group ( X-CH(R)-Y where X, Y are N, S, or O) that may be acid/base labile, releasing an aldehyde.

>  <s_lp_Force_Field>  (314) 
OPLS3e

>  <r_lp_Energy>  (314) 
60.383

>  <b_lp_Chiralities_Consistent>  (314) 
1

>  <s_lp_Variant>  (314) 
90:0-1

>  <s_i_glide_gridfile>  (314) 
pfpi4k_grid

>  <i_i_glide_lignum>  (314) 
11

>  <i_i_glide_rotatable_bonds>  (314) 
2

>  <r_i_docking_score>  (314) 
-3.31247

>  <r_i_glide_ligand_efficiency>  (314) 
-0.106854

>  <r_i_glide_ligand_efficiency_sa>  (314) 
-0.335669

>  <r_i_glide_ligand_efficiency_ln>  (314) 
-0.747065

>  <r_i_glide_gscore>  (314) 
-3.31247

>  <r_i_glide_lipo>  (314) 
-0.62606

>  <r_i_glide_hbond>  (314) 
-0.110161

>  <r_i_glide_metal>  (314) 
-0

>  <r_i_glide_rewards>  (314) 
-0.51516

>  <r_i_glide_evdw>  (314) 
-28.6337

>  <r_i_glide_ecoul>  (314) 
-4.88834

>  <r_i_glide_erotb>  (314) 
0.110065

>  <r_i_glide_esite>  (314) 
-0.00622273

>  <r_i_glide_emodel>  (314) 
-41.1795

>  <r_i_glide_energy>  (314) 
-33.522

>  <r_i_glide_einternal>  (314) 
0.360276

>  <r_i_glide_intrahb_reward>  (314) 
-0

>  <i_i_glide_confnum>  (314) 
2

>  <i_i_glide_posenum>  (314) 
19

>  <r_i_glide_eff_state_penalty>  (314) 
0

>  <ligand_id>  (314) 
90

>  <original_smiles>  (314) 
C=C1C=C2OC3CC(c4ccoc4)C(C)=C3C3(C)C4OC5OCC(O)(C(=O)C1C23)C5O4

>  <smiles>  (314) 
[H]OC12C(=O)C3([H])C(=C([H])[H])C([H])=C4OC5([H])C(=C(C([H])([H])[H])C([H])(c6c([H])oc([H])c6[H])C5([H])[H])C(C([H])([H])[H])(C5([H])OC([H])(OC1([H])[H])C2([H])O5)C43[H]

$$$$
90:0:1
     RDKit          3D

 55 61  0  0  1  0  0  0  0  0999 V2000
   -1.7202   -8.8578    2.7874 C   0  0  0  0  0  0  0  0  0  0  0  0
   -0.5589   -8.1988    2.6515 C   0  0  0  0  0  0  0  0  0  0  0  0
   -0.2196   -7.4395    1.4806 C   0  0  0  0  0  0  0  0  0  0  0  0
    1.0055   -6.9422    1.6276 C   0  0  0  0  0  0  0  0  0  0  0  0
    1.6647   -6.1069    0.7592 O   0  0  0  0  0  0  0  0  0  0  0  0
    3.0545   -5.9444    1.0575 C   0  0  1  0  0  0  0  0  0  0  0  0
    3.7626   -4.8804    0.2196 C   0  0  0  0  0  0  0  0  0  0  0  0
    4.9026   -4.3794    1.1315 C   0  0  1  0  0  0  0  0  0  0  0  0
    5.3011   -2.9555    0.8122 C   0  0  0  0  0  0  0  0  0  0  0  0
    4.5264   -1.7749    1.0015 C   0  0  0  0  0  0  0  0  0  0  0  0
    5.2819   -0.7325    0.5493 C   0  0  0  0  0  0  0  0  0  0  0  0
    6.4801   -1.1754    0.0831 O   0  0  0  0  0  0  0  0  0  0  0  0
    6.4753   -2.5256    0.2501 C   0  0  0  0  0  0  0  0  0  0  0  0
    4.3622   -4.6451    2.5289 C   0  0  0  0  0  0  0  0  0  0  0  0
    4.9782   -3.9497    3.7324 C   0  0  0  0  0  0  0  0  0  0  0  0
    3.3367   -5.5148    2.4832 C   0  0  0  0  0  0  0  0  0  0  0  0
    2.3839   -6.0408    3.5614 C   0  0  2  0  0  0  0  0  0  0  0  0
    1.3501   -4.9123    3.7971 C   0  0  0  0  0  0  0  0  0  0  0  0
    3.0320   -6.3261    4.9775 C   0  0  2  0  0  0  0  0  0  0  0  0
    4.1817   -7.1524    4.9782 O   0  0  0  0  0  0  0  0  0  0  0  0
    3.6546   -8.4118    5.0230 C   0  0  1  0  0  0  0  0  0  0  0  0
    4.2407   -9.5133    5.5778 O   0  0  0  0  0  0  0  0  0  0  0  0
    3.0733  -10.3918    5.6826 C   0  0  0  0  0  0  0  0  0  0  0  0
    1.7634   -9.5017    5.6329 C   0  0  2  0  0  0  0  0  0  0  0  0
    0.9013   -9.8536    6.6952 O   0  0  0  0  0  0  0  0  0  0  0  0
    1.0214   -9.4703    4.2576 C   0  0  0  0  0  0  0  0  0  0  0  0
    0.8893  -10.4955    3.5882 O   0  0  0  0  0  0  0  0  0  0  0  0
    0.5340   -8.0931    3.7115 C   0  0  1  0  0  0  0  0  0  0  0  0
    1.6647   -7.3066    2.9389 C   0  0  1  0  0  0  0  0  0  0  0  0
    2.4985   -8.2270    5.9509 C   0  0  2  0  0  0  0  0  0  0  0  0
    2.0282   -6.9215    5.7303 O   0  0  0  0  0  0  0  0  0  0  0  0
   -1.9362   -9.4219    3.6831 H   0  0  0  0  0  0  0  0  0  0  0  0
   -2.4544   -8.8710    1.9930 H   0  0  0  0  0  0  0  0  0  0  0  0
   -0.8541   -7.2887    0.6230 H   0  0  0  0  0  0  0  0  0  0  0  0
    3.5623   -6.8970    0.8952 H   0  0  0  0  0  0  0  0  0  0  0  0
    4.1093   -5.2336   -0.7485 H   0  0  0  0  0  0  0  0  0  0  0  0
    3.0452   -4.0714    0.0508 H   0  0  0  0  0  0  0  0  0  0  0  0
    5.7778   -5.0177    1.0047 H   0  0  0  0  0  0  0  0  0  0  0  0
    3.5265   -1.6954    1.4087 H   0  0  0  0  0  0  0  0  0  0  0  0
    5.1181    0.3318    0.4801 H   0  0  0  0  0  0  0  0  0  0  0  0
    7.3668   -3.0285   -0.0918 H   0  0  0  0  0  0  0  0  0  0  0  0
    5.4116   -2.9885    3.4573 H   0  0  0  0  0  0  0  0  0  0  0  0
    5.7777   -4.5550    4.1631 H   0  0  0  0  0  0  0  0  0  0  0  0
    4.2406   -3.7379    4.5045 H   0  0  0  0  0  0  0  0  0  0  0  0
    0.5460   -5.2176    4.4627 H   0  0  0  0  0  0  0  0  0  0  0  0
    0.8882   -4.5913    2.8649 H   0  0  0  0  0  0  0  0  0  0  0  0
    1.8122   -4.0199    4.2184 H   0  0  0  0  0  0  0  0  0  0  0  0
    3.3056   -5.4063    5.4925 H   0  0  0  0  0  0  0  0  0  0  0  0
    3.4927   -8.7044    3.9982 H   0  0  0  0  0  0  0  0  0  0  0  0
    3.0831  -11.1341    4.8832 H   0  0  0  0  0  0  0  0  0  0  0  0
    3.1455  -10.9496    6.6185 H   0  0  0  0  0  0  0  0  0  0  0  0
    1.0083  -10.7909    6.8799 H   0  0  0  0  0  0  0  0  0  0  0  0
    0.1186   -7.5081    4.5288 H   0  0  0  0  0  0  0  0  0  0  0  0
    2.3914   -8.0151    2.5540 H   0  0  0  0  0  0  0  0  0  0  0  0
    2.8708   -8.2433    6.9788 H   0  0  0  0  0  0  0  0  0  0  0  0
  1  2  2  0
  1 32  1  0
  1 33  1  0
  2 28  1  0
  2  3  1  0
  3  4  2  0
  3 34  1  0
  4 29  1  0
  4  5  1  0
  5  6  1  0
  6 16  1  0
  6  7  1  0
  6 35  1  1
  7  8  1  0
  7 36  1  0
  7 37  1  0
  8  9  1  0
  8 14  1  0
  8 38  1  6
  9 13  2  0
  9 10  1  0
 10 11  2  0
 10 39  1  0
 11 12  1  0
 11 40  1  0
 12 13  1  0
 13 41  1  0
 14 15  1  0
 14 16  2  0
 15 42  1  0
 15 43  1  0
 15 44  1  0
 16 17  1  0
 17 29  1  0
 17 18  1  1
 17 19  1  0
 18 45  1  0
 18 46  1  0
 18 47  1  0
 19 31  1  0
 19 20  1  0
 19 48  1  1
 20 21  1  0
 21 30  1  0
 21 22  1  0
 21 49  1  6
 22 23  1  0
 23 24  1  0
 23 50  1  0
 23 51  1  0
 24 25  1  1
 24 26  1  0
 24 30  1  0
 25 52  1  0
 26 27  2  0
 26 28  1  0
 28 29  1  0
 28 53  1  1
 29 54  1  6
 30 31  1  0
 30 55  1  1
M  END
>  <i_m_ct_stereo_status>  (315) 
1

>  <s_m_source_file>  (315) 
/var/tmp/pbs.5076255.sched01/tmpcwktr4ti/1290j0z1rin.sdf

>  <i_m_source_file_index>  (315) 
11

>  <i_lp_mmshare_version>  (315) 
48012

>  <i_f3d_flags>  (315) 
0

>  <s_epik_input>  (315) 
TzFbQ0BIXTJPW0NAQEhdKE9bQ0gyXTMpW0NAQEhdMVtDQEBdMyhbT0hdKUMoPU8pW0NAQEhdKEMoPVtDSDJdKVtDSF09NClbQ0BIXTVDNE9bQ0BIXShDNltDQF0yNVtDSDNdKVtDSDJdW0NASF0oQz02W0NIM10pYzdbY0hdW2NIXW9bY0hdNw==

>  <s_epik_cmdline>  (315) 
J2VwaWtfcHl0aG9uJywgJy1waHQnLCAnMi4wJywgJy1waCcsICc3LjAnLCAnLXRuJywgJzgnLCAnLW1hJywgJzIwMCcsICctaW1hZScsICc8aW5maWxlLm1hZT4nLCAnLW9tYWUnLCAnPG91dGZpbGUubWFlPic=

>  <r_lp_tautomer_probability>  (315) 
1

>  <r_epik_Ionization_Penalty>  (315) 
2.32814e-06

>  <r_epik_Ionization_Penalty_Charging>  (315) 
0

>  <r_epik_Ionization_Penalty_Neutral>  (315) 
2.32814e-06

>  <r_epik_State_Penalty>  (315) 
-0

>  <r_epik_Charging_Adjusted_Penalty>  (315) 
0

>  <i_epik_Tot_Q>  (315) 
0

>  <i_epik_Tot_abs_Q>  (315) 
0

>  <s_epik_Chemistry_Notes>  (315) 
This compound contains an acetal/aminal-like group ( X-CH(R)-Y where X, Y are N, S, or O) that may be acid/base labile, releasing an aldehyde.

>  <s_lp_Force_Field>  (315) 
OPLS3e

>  <r_lp_Energy>  (315) 
60.383

>  <b_lp_Chiralities_Consistent>  (315) 
1

>  <s_lp_Variant>  (315) 
90:0-1

>  <s_i_glide_gridfile>  (315) 
pfpi4k_grid

>  <i_i_glide_lignum>  (315) 
11

>  <i_i_glide_rotatable_bonds>  (315) 
2

>  <r_i_docking_score>  (315) 
-3.30901

>  <r_i_glide_ligand_efficiency>  (315) 
-0.106742

>  <r_i_glide_ligand_efficiency_sa>  (315) 
-0.335318

>  <r_i_glide_ligand_efficiency_ln>  (315) 
-0.746283

>  <r_i_glide_gscore>  (315) 
-3.30901

>  <r_i_glide_lipo>  (315) 
-0.322722

>  <r_i_glide_hbond>  (315) 
-0.10346

>  <r_i_glide_metal>  (315) 
-0

>  <r_i_glide_rewards>  (315) 
-0.51516

>  <r_i_glide_evdw>  (315) 
-29.65

>  <r_i_glide_ecoul>  (315) 
-6.45994

>  <r_i_glide_erotb>  (315) 
0.110065

>  <r_i_glide_esite>  (315) 
-0.0262437

>  <r_i_glide_emodel>  (315) 
-42.8004

>  <r_i_glide_energy>  (315) 
-36.1099

>  <r_i_glide_einternal>  (315) 
2.67161

>  <r_i_glide_intrahb_reward>  (315) 
-0

>  <i_i_glide_confnum>  (315) 
3

>  <i_i_glide_posenum>  (315) 
36

>  <r_i_glide_eff_state_penalty>  (315) 
0

>  <ligand_id>  (315) 
90

>  <original_smiles>  (315) 
C=C1C=C2OC3CC(c4ccoc4)C(C)=C3C3(C)C4OC5OCC(O)(C(=O)C1C23)C5O4

>  <smiles>  (315) 
[H]OC12C(=O)C3([H])C(=C([H])[H])C([H])=C4OC5([H])C(=C(C([H])([H])[H])C([H])(c6c([H])oc([H])c6[H])C5([H])[H])C(C([H])([H])[H])(C5([H])OC([H])(OC1([H])[H])C2([H])O5)C43[H]

$$$$
90:0:2
     RDKit          3D

 55 61  0  0  1  0  0  0  0  0999 V2000
   -1.7785   -8.7416    2.4912 C   0  0  0  0  0  0  0  0  0  0  0  0
   -0.5718   -8.1568    2.4013 C   0  0  0  0  0  0  0  0  0  0  0  0
   -0.1805   -7.3250    1.2966 C   0  0  0  0  0  0  0  0  0  0  0  0
    1.0821   -6.9492    1.4781 C   0  0  0  0  0  0  0  0  0  0  0  0
    1.8084   -6.1027    0.6764 O   0  0  0  0  0  0  0  0  0  0  0  0
    3.2065   -6.0808    0.9765 C   0  0  1  0  0  0  0  0  0  0  0  0
    3.9932   -5.0104    0.2236 C   0  0  0  0  0  0  0  0  0  0  0  0
    5.1606   -4.6623    1.1726 C   0  0  1  0  0  0  0  0  0  0  0  0
    5.6641   -3.2512    0.9812 C   0  0  0  0  0  0  0  0  0  0  0  0
    7.0085   -2.8349    0.7754 C   0  0  0  0  0  0  0  0  0  0  0  0
    6.9786   -1.4753    0.6389 C   0  0  0  0  0  0  0  0  0  0  0  0
    5.7070   -1.0110    0.7293 O   0  0  0  0  0  0  0  0  0  0  0  0
    4.9216   -2.0968    0.9434 C   0  0  0  0  0  0  0  0  0  0  0  0
    4.6100   -5.0123    2.5439 C   0  0  0  0  0  0  0  0  0  0  0  0
    5.2810   -4.4779    3.8002 C   0  0  0  0  0  0  0  0  0  0  0  0
    3.5247   -5.7980    2.4310 C   0  0  0  0  0  0  0  0  0  0  0  0
    2.5338   -6.3304    3.4694 C   0  0  2  0  0  0  0  0  0  0  0  0
    1.5878   -5.1472    3.8015 C   0  0  0  0  0  0  0  0  0  0  0  0
    3.1555   -6.7891    4.8525 C   0  0  2  0  0  0  0  0  0  0  0  0
    4.2382   -7.7010    4.7710 O   0  0  0  0  0  0  0  0  0  0  0  0
    3.6098   -8.9133    4.7156 C   0  0  1  0  0  0  0  0  0  0  0  0
    4.1039  -10.1051    5.1641 O   0  0  0  0  0  0  0  0  0  0  0  0
    2.8666  -10.8920    5.1996 C   0  0  0  0  0  0  0  0  0  0  0  0
    1.6304   -9.8963    5.2285 C   0  0  2  0  0  0  0  0  0  0  0  0
    0.6921  -10.2506    6.2255 O   0  0  0  0  0  0  0  0  0  0  0  0
    0.9090   -9.6798    3.8655 C   0  0  0  0  0  0  0  0  0  0  0  0
    0.6815  -10.6312    3.1194 O   0  0  0  0  0  0  0  0  0  0  0  0
    0.5277   -8.2279    3.4560 C   0  0  1  0  0  0  0  0  0  0  0  0
    1.7158   -7.4739    2.7461 C   0  0  1  0  0  0  0  0  0  0  0  0
    2.4679   -8.7194    5.6635 C   0  0  2  0  0  0  0  0  0  0  0  0
    2.1054   -7.3649    5.5617 O   0  0  0  0  0  0  0  0  0  0  0  0
   -2.0356   -9.3624    3.3381 H   0  0  0  0  0  0  0  0  0  0  0  0
   -2.5102   -8.6421    1.7020 H   0  0  0  0  0  0  0  0  0  0  0  0
   -0.7878   -7.0458    0.4524 H   0  0  0  0  0  0  0  0  0  0  0  0
    3.6389   -7.0519    0.7324 H   0  0  0  0  0  0  0  0  0  0  0  0
    4.3095   -5.3031   -0.7779 H   0  0  0  0  0  0  0  0  0  0  0  0
    3.3278   -4.1493    0.1269 H   0  0  0  0  0  0  0  0  0  0  0  0
    5.9920   -5.3437    0.9842 H   0  0  0  0  0  0  0  0  0  0  0  0
    7.9000   -3.4485    0.7434 H   0  0  0  0  0  0  0  0  0  0  0  0
    7.7316   -0.7189    0.4908 H   0  0  0  0  0  0  0  0  0  0  0  0
    3.8684   -1.8873    1.0294 H   0  0  0  0  0  0  0  0  0  0  0  0
    5.7893   -3.5347    3.6007 H   0  0  0  0  0  0  0  0  0  0  0  0
    6.0330   -5.1781    4.1715 H   0  0  0  0  0  0  0  0  0  0  0  0
    4.5660   -4.2733    4.5954 H   0  0  0  0  0  0  0  0  0  0  0  0
    0.7622   -5.4415    4.4472 H   0  0  0  0  0  0  0  0  0  0  0  0
    1.1519   -4.7117    2.9015 H   0  0  0  0  0  0  0  0  0  0  0  0
    2.1202   -4.3350    4.2952 H   0  0  0  0  0  0  0  0  0  0  0  0
    3.5004   -5.9399    5.4402 H   0  0  0  0  0  0  0  0  0  0  0  0
    3.4263   -9.1013    3.6702 H   0  0  0  0  0  0  0  0  0  0  0  0
    2.8200  -11.5614    4.3393 H   0  0  0  0  0  0  0  0  0  0  0  0
    2.9024  -11.5308    6.0827 H   0  0  0  0  0  0  0  0  0  0  0  0
    1.0300  -10.9647    6.7749 H   0  0  0  0  0  0  0  0  0  0  0  0
    0.1587   -7.6873    4.3254 H   0  0  0  0  0  0  0  0  0  0  0  0
    2.3796   -8.2051    2.2955 H   0  0  0  0  0  0  0  0  0  0  0  0
    2.8413   -8.8549    6.6832 H   0  0  0  0  0  0  0  0  0  0  0  0
  1  2  2  0
  1 32  1  0
  1 33  1  0
  2 28  1  0
  2  3  1  0
  3  4  2  0
  3 34  1  0
  4 29  1  0
  4  5  1  0
  5  6  1  0
  6 16  1  0
  6  7  1  0
  6 35  1  6
  7  8  1  0
  7 36  1  0
  7 37  1  0
  8  9  1  0
  8 14  1  0
  8 38  1  6
  9 13  2  0
  9 10  1  0
 10 11  2  0
 10 39  1  0
 11 12  1  0
 11 40  1  0
 12 13  1  0
 13 41  1  0
 14 15  1  0
 14 16  2  0
 15 42  1  0
 15 43  1  0
 15 44  1  0
 16 17  1  0
 17 29  1  0
 17 18  1  1
 17 19  1  0
 18 45  1  0
 18 46  1  0
 18 47  1  0
 19 31  1  0
 19 20  1  0
 19 48  1  1
 20 21  1  0
 21 30  1  0
 21 22  1  0
 21 49  1  6
 22 23  1  0
 23 24  1  0
 23 50  1  0
 23 51  1  0
 24 25  1  1
 24 26  1  0
 24 30  1  0
 25 52  1  0
 26 27  2  0
 26 28  1  0
 28 29  1  0
 28 53  1  1
 29 54  1  6
 30 31  1  0
 30 55  1  1
M  END
>  <i_m_ct_stereo_status>  (316) 
1

>  <s_m_source_file>  (316) 
/var/tmp/pbs.5076255.sched01/tmpcwktr4ti/1290j0z1rin.sdf

>  <i_m_source_file_index>  (316) 
11

>  <i_lp_mmshare_version>  (316) 
48012

>  <i_f3d_flags>  (316) 
0

>  <s_epik_input>  (316) 
TzFbQ0BIXTJPW0NAQEhdKE9bQ0gyXTMpW0NAQEhdMVtDQEBdMyhbT0hdKUMoPU8pW0NAQEhdKEMoPVtDSDJdKVtDSF09NClbQ0BIXTVDNE9bQ0BIXShDNltDQF0yNVtDSDNdKVtDSDJdW0NASF0oQz02W0NIM10pYzdbY0hdW2NIXW9bY0hdNw==

>  <s_epik_cmdline>  (316) 
J2VwaWtfcHl0aG9uJywgJy1waHQnLCAnMi4wJywgJy1waCcsICc3LjAnLCAnLXRuJywgJzgnLCAnLW1hJywgJzIwMCcsICctaW1hZScsICc8aW5maWxlLm1hZT4nLCAnLW9tYWUnLCAnPG91dGZpbGUubWFlPic=

>  <r_lp_tautomer_probability>  (316) 
1

>  <r_epik_Ionization_Penalty>  (316) 
2.32814e-06

>  <r_epik_Ionization_Penalty_Charging>  (316) 
0

>  <r_epik_Ionization_Penalty_Neutral>  (316) 
2.32814e-06

>  <r_epik_State_Penalty>  (316) 
-0

>  <r_epik_Charging_Adjusted_Penalty>  (316) 
0

>  <i_epik_Tot_Q>  (316) 
0

>  <i_epik_Tot_abs_Q>  (316) 
0

>  <s_epik_Chemistry_Notes>  (316) 
This compound contains an acetal/aminal-like group ( X-CH(R)-Y where X, Y are N, S, or O) that may be acid/base labile, releasing an aldehyde.

>  <s_lp_Force_Field>  (316) 
OPLS3e

>  <r_lp_Energy>  (316) 
60.383

>  <b_lp_Chiralities_Consistent>  (316) 
1

>  <s_lp_Variant>  (316) 
90:0-1

>  <s_i_glide_gridfile>  (316) 
pfpi4k_grid

>  <i_i_glide_lignum>  (316) 
11

>  <i_i_glide_rotatable_bonds>  (316) 
2

>  <r_i_docking_score>  (316) 
-3.18464

>  <r_i_glide_ligand_efficiency>  (316) 
-0.10273

>  <r_i_glide_ligand_efficiency_sa>  (316) 
-0.322715

>  <r_i_glide_ligand_efficiency_ln>  (316) 
-0.718234

>  <r_i_glide_gscore>  (316) 
-3.18464

>  <r_i_glide_lipo>  (316) 
-0.427261

>  <r_i_glide_hbond>  (316) 
-0.0214838

>  <r_i_glide_metal>  (316) 
-0

>  <r_i_glide_rewards>  (316) 
-0.51516

>  <r_i_glide_evdw>  (316) 
-29.213

>  <r_i_glide_ecoul>  (316) 
-5.65509

>  <r_i_glide_erotb>  (316) 
0.110065

>  <r_i_glide_esite>  (316) 
-0.0218859

>  <r_i_glide_emodel>  (316) 
-40.8707

>  <r_i_glide_energy>  (316) 
-34.8681

>  <r_i_glide_einternal>  (316) 
2.15128

>  <r_i_glide_intrahb_reward>  (316) 
-0

>  <i_i_glide_confnum>  (316) 
3

>  <i_i_glide_posenum>  (316) 
1

>  <r_i_glide_eff_state_penalty>  (316) 
0

>  <ligand_id>  (316) 
90

>  <original_smiles>  (316) 
C=C1C=C2OC3CC(c4ccoc4)C(C)=C3C3(C)C4OC5OCC(O)(C(=O)C1C23)C5O4

>  <smiles>  (316) 
[H]OC12C(=O)C3([H])C(=C([H])[H])C([H])=C4OC5([H])C(=C(C([H])([H])[H])C([H])(c6c([H])oc([H])c6[H])C5([H])[H])C(C([H])([H])[H])(C5([H])OC([H])(OC1([H])[H])C2([H])O5)C43[H]

$$$$
91:0:0
     RDKit          3D

 54 58  0  0  1  0  0  0  0  0999 V2000
    2.8406   -8.6642    1.4467 C   0  0  0  0  0  0  0  0  0  0  0  0
    2.7553   -7.3214    2.2073 C   0  0  1  0  0  0  0  0  0  0  0  0
    1.5221   -7.1794    3.1611 C   0  0  0  0  0  0  0  0  0  0  0  0
    1.6624   -8.0644    4.4197 C   0  0  0  0  0  0  0  0  0  0  0  0
    0.4302   -7.9518    5.3197 C   0  0  0  0  0  0  0  0  0  0  0  0
   -0.8539   -8.2635    4.5407 C   0  0  0  0  0  0  0  0  0  0  0  0
   -1.0305   -7.3190    3.3599 C   0  0  0  0  0  0  0  0  0  0  0  0
    0.1628   -7.4457    2.4404 C   0  0  0  0  0  0  0  0  0  0  0  0
    4.0127   -7.0948    2.8922 N   0  0  0  0  0  0  0  0  0  0  0  0
    4.7148   -6.0809    2.3728 C   0  0  0  0  0  0  0  0  0  0  0  0
    5.8394   -5.7816    2.7365 O   0  0  0  0  0  0  0  0  0  0  0  0
    3.9510   -5.4663    1.4482 N   0  0  0  0  0  0  0  0  0  0  0  0
    4.3119   -4.1309    0.8485 C   0  0  1  0  0  0  0  0  0  0  0  0
    3.2324   -3.5563   -0.1343 C   0  0  0  0  0  0  0  0  0  0  0  0
    3.6495   -2.2138   -0.7458 C   0  0  2  0  0  0  0  0  0  0  0  0
    4.9572   -2.4248   -1.5143 C   0  0  0  0  0  0  0  0  0  0  0  0
    6.0412   -2.9186   -0.5359 C   0  0  1  0  0  0  0  0  0  0  0  0
    6.2278   -1.8876    0.6034 C   0  0  0  0  0  0  0  0  0  0  0  0
    4.9069   -1.6985    1.3691 C   0  0  1  0  0  0  0  0  0  0  0  0
    3.8331   -1.1885    0.3858 C   0  0  0  0  0  0  0  0  0  0  0  0
    4.4747   -3.0566    1.9784 C   0  0  0  0  0  0  0  0  0  0  0  0
    5.6526   -4.2729    0.0492 C   0  0  0  0  0  0  0  0  0  0  0  0
    2.8014   -6.1598    1.2362 C   0  0  0  0  0  0  0  0  0  0  0  0
    1.8937   -5.9126    0.4582 O   0  0  0  0  0  0  0  0  0  0  0  0
    1.9580   -8.8130    0.8337 H   0  0  0  0  0  0  0  0  0  0  0  0
    2.8993   -9.5201    2.1226 H   0  0  0  0  0  0  0  0  0  0  0  0
    3.6981   -8.6975    0.7644 H   0  0  0  0  0  0  0  0  0  0  0  0
    1.4906   -6.1514    3.5343 H   0  0  0  0  0  0  0  0  0  0  0  0
    1.7946   -9.1027    4.1191 H   0  0  0  0  0  0  0  0  0  0  0  0
    2.5456   -7.7911    5.0038 H   0  0  0  0  0  0  0  0  0  0  0  0
    0.5432   -8.6496    6.1468 H   0  0  0  0  0  0  0  0  0  0  0  0
    0.3832   -6.9479    5.7439 H   0  0  0  0  0  0  0  0  0  0  0  0
   -0.8217   -9.2982    4.1859 H   0  0  0  0  0  0  0  0  0  0  0  0
   -1.7193   -8.1821    5.1844 H   0  0  0  0  0  0  0  0  0  0  0  0
   -1.9102   -7.5934    2.7747 H   0  0  0  0  0  0  0  0  0  0  0  0
   -1.1398   -6.2866    3.6956 H   0  0  0  0  0  0  0  0  0  0  0  0
   -0.0332   -6.7721    1.6069 H   0  0  0  0  0  0  0  0  0  0  0  0
    0.1207   -8.4622    2.0492 H   0  0  0  0  0  0  0  0  0  0  0  0
    4.3225   -7.6174    3.6913 H   0  0  0  0  0  0  0  0  0  0  0  0
    3.0607   -4.2227   -0.9749 H   0  0  0  0  0  0  0  0  0  0  0  0
    2.2784   -3.3952    0.3579 H   0  0  0  0  0  0  0  0  0  0  0  0
    2.8707   -1.8831   -1.4286 H   0  0  0  0  0  0  0  0  0  0  0  0
    4.8136   -3.1719   -2.2926 H   0  0  0  0  0  0  0  0  0  0  0  0
    5.2500   -1.4929   -2.0266 H   0  0  0  0  0  0  0  0  0  0  0  0
    6.9776   -3.0230   -1.0728 H   0  0  0  0  0  0  0  0  0  0  0  0
    6.9991   -2.2307    1.2828 H   0  0  0  0  0  0  0  0  0  0  0  0
    6.5874   -0.9124    0.2140 H   0  0  0  0  0  0  0  0  0  0  0  0
    5.0383   -0.9557    2.1545 H   0  0  0  0  0  0  0  0  0  0  0  0
    4.1090   -0.2191   -0.0262 H   0  0  0  0  0  0  0  0  0  0  0  0
    2.8777   -1.0510    0.9053 H   0  0  0  0  0  0  0  0  0  0  0  0
    3.5202   -2.9535    2.4851 H   0  0  0  0  0  0  0  0  0  0  0  0
    5.1810   -3.3387    2.7672 H   0  0  0  0  0  0  0  0  0  0  0  0
    6.4681   -4.6372    0.6800 H   0  0  0  0  0  0  0  0  0  0  0  0
    5.5249   -5.0672   -0.6969 H   0  0  0  0  0  0  0  0  0  0  0  0
  2  1  1  6
  1 25  1  0
  1 26  1  0
  1 27  1  0
  2 23  1  0
  2  3  1  0
  2  9  1  0
  3  8  1  0
  3  4  1  0
  3 28  1  0
  4  5  1  0
  4 29  1  0
  4 30  1  0
  5  6  1  0
  5 31  1  0
  5 32  1  0
  6  7  1  0
  6 33  1  0
  6 34  1  0
  7  8  1  0
  7 35  1  0
  7 36  1  0
  8 37  1  0
  8 38  1  0
  9 10  1  0
  9 39  1  0
 10 11  2  0
 10 12  1  0
 13 12  1  1
 12 23  1  0
 13 21  1  0
 13 22  1  0
 13 14  1  0
 14 15  1  0
 14 40  1  0
 14 41  1  0
 15 20  1  0
 15 16  1  0
 15 42  1  6
 16 17  1  0
 16 43  1  0
 16 44  1  0
 17 18  1  0
 17 22  1  0
 17 45  1  6
 18 19  1  0
 18 46  1  0
 18 47  1  0
 19 20  1  0
 19 21  1  0
 19 48  1  1
 20 49  1  0
 20 50  1  0
 21 51  1  0
 21 52  1  0
 22 53  1  0
 22 54  1  0
 23 24  2  0
M  END
>  <i_m_ct_stereo_status>  (317) 
1

>  <s_m_source_file>  (317) 
/var/tmp/pbs.5076255.sched01/tmpcwktr4ti/1290j0z1rin.sdf

>  <i_m_source_file_index>  (317) 
12

>  <i_lp_mmshare_version>  (317) 
48012

>  <i_f3d_flags>  (317) 
0

>  <s_epik_input>  (317) 
W0NIMl0xW0NIMl1bQ0gyXVtDSDJdW0NIMl1bQ0hdMVtDQF0yKFtDSDNdKVtOSF1DKD1PKU4oQzI9TylDMzRbQ0gyXVtDQEBIXTVbQ0gyXVtDQEhdKFtDSDJdNClbQ0gyXVtDQEBIXShbQ0gyXTUpW0NIMl0z

>  <s_epik_cmdline>  (317) 
J2VwaWtfcHl0aG9uJywgJy1waHQnLCAnMi4wJywgJy1waCcsICc3LjAnLCAnLXRuJywgJzgnLCAnLW1hJywgJzIwMCcsICctaW1hZScsICc8aW5maWxlLm1hZT4nLCAnLW9tYWUnLCAnPG91dGZpbGUubWFlPic=

>  <r_lp_tautomer_probability>  (317) 
1

>  <r_epik_Ionization_Penalty>  (317) 
3.8987e-05

>  <r_epik_Ionization_Penalty_Charging>  (317) 
0

>  <r_epik_Ionization_Penalty_Neutral>  (317) 
3.8987e-05

>  <r_epik_State_Penalty>  (317) 
-0

>  <r_epik_Charging_Adjusted_Penalty>  (317) 
0

>  <i_epik_Tot_Q>  (317) 
0

>  <i_epik_Tot_abs_Q>  (317) 
0

>  <s_lp_Force_Field>  (317) 
OPLS3e

>  <r_lp_Energy>  (317) 
5.87746

>  <b_lp_Chiralities_Consistent>  (317) 
1

>  <s_lp_Variant>  (317) 
91:0-1

>  <s_i_glide_gridfile>  (317) 
pfpi4k_grid

>  <i_i_glide_lignum>  (317) 
12

>  <i_i_glide_rotatable_bonds>  (317) 
2

>  <r_i_docking_score>  (317) 
-2.79883

>  <r_i_glide_ligand_efficiency>  (317) 
-0.116618

>  <r_i_glide_ligand_efficiency_sa>  (317) 
-0.336385

>  <r_i_glide_ligand_efficiency_ln>  (317) 
-0.669889

>  <r_i_glide_gscore>  (317) 
-2.79883

>  <r_i_glide_lipo>  (317) 
-0.270171

>  <r_i_glide_hbond>  (317) 
-0.0289147

>  <r_i_glide_metal>  (317) 
-0

>  <r_i_glide_rewards>  (317) 
-1.19006

>  <r_i_glide_evdw>  (317) 
-28.6088

>  <r_i_glide_ecoul>  (317) 
-1.46926

>  <r_i_glide_erotb>  (317) 
0.344456

>  <r_i_glide_esite>  (317) 
-0.00331509

>  <r_i_glide_emodel>  (317) 
-34.0524

>  <r_i_glide_energy>  (317) 
-30.0781

>  <r_i_glide_einternal>  (317) 
1.53537

>  <r_i_glide_intrahb_reward>  (317) 
-0

>  <i_i_glide_confnum>  (317) 
3

>  <i_i_glide_posenum>  (317) 
15

>  <r_i_glide_eff_state_penalty>  (317) 
0

>  <ligand_id>  (317) 
91

>  <original_smiles>  (317) 
CC1(C2CCCCC2)NC(=O)N(C23CC4CC(CC(C4)C2)C3)C1=O

>  <smiles>  (317) 
[H]N1C(=O)N(C23C([H])([H])C4([H])C([H])([H])C([H])(C([H])([H])C([H])(C4([H])[H])C2([H])[H])C3([H])[H])C(=O)C1(C([H])([H])[H])C1([H])C([H])([H])C([H])([H])C([H])([H])C([H])([H])C1([H])[H]

$$$$
91:0:1
     RDKit          3D

 54 58  0  0  1  0  0  0  0  0999 V2000
    3.0206   -8.6636    1.4040 C   0  0  0  0  0  0  0  0  0  0  0  0
    2.9613   -7.3249    2.1839 C   0  0  1  0  0  0  0  0  0  0  0  0
    1.7533   -7.1966    3.1757 C   0  0  0  0  0  0  0  0  0  0  0  0
    1.9266   -8.0824    4.4345 C   0  0  0  0  0  0  0  0  0  0  0  0
    0.7232   -7.9579    5.3708 C   0  0  0  0  0  0  0  0  0  0  0  0
   -0.5798   -8.2588    4.6212 C   0  0  0  0  0  0  0  0  0  0  0  0
   -0.7882   -7.3071    3.4485 C   0  0  0  0  0  0  0  0  0  0  0  0
    0.3742   -7.4482    2.4920 C   0  0  0  0  0  0  0  0  0  0  0  0
    4.2299   -7.1608    2.8664 N   0  0  0  0  0  0  0  0  0  0  0  0
    4.9700   -6.1645    2.3784 C   0  0  0  0  0  0  0  0  0  0  0  0
    6.1207   -5.9792    2.7414 O   0  0  0  0  0  0  0  0  0  0  0  0
    4.2221   -5.4800    1.4943 N   0  0  0  0  0  0  0  0  0  0  0  0
    4.5485   -4.1619    0.8172 C   0  0  1  0  0  0  0  0  0  0  0  0
    3.5254   -3.0457    1.2287 C   0  0  0  0  0  0  0  0  0  0  0  0
    3.8465   -1.7167    0.5003 C   0  0  2  0  0  0  0  0  0  0  0  0
    3.7924   -1.9519   -1.0168 C   0  0  0  0  0  0  0  0  0  0  0  0
    4.8268   -3.0236   -1.4308 C   0  0  1  0  0  0  0  0  0  0  0  0
    6.2359   -2.5707   -1.0354 C   0  0  0  0  0  0  0  0  0  0  0  0
    6.2906   -2.3065    0.4776 C   0  0  1  0  0  0  0  0  0  0  0  0
    5.2622   -1.2319    0.8747 C   0  0  0  0  0  0  0  0  0  0  0  0
    5.9658   -3.6255    1.1944 C   0  0  0  0  0  0  0  0  0  0  0  0
    4.5115   -4.3554   -0.7402 C   0  0  0  0  0  0  0  0  0  0  0  0
    3.0325   -6.1112    1.2722 C   0  0  0  0  0  0  0  0  0  0  0  0
    2.1229   -5.7519    0.5411 O   0  0  0  0  0  0  0  0  0  0  0  0
    2.1204   -8.8299    0.8218 H   0  0  0  0  0  0  0  0  0  0  0  0
    3.0992   -9.5202    2.0794 H   0  0  0  0  0  0  0  0  0  0  0  0
    3.8724   -8.7108    0.7136 H   0  0  0  0  0  0  0  0  0  0  0  0
    1.7372   -6.1725    3.5588 H   0  0  0  0  0  0  0  0  0  0  0  0
    2.0480   -9.1235    4.1366 H   0  0  0  0  0  0  0  0  0  0  0  0
    2.8232   -7.8110    4.9993 H   0  0  0  0  0  0  0  0  0  0  0  0
    0.8564   -8.6546    6.1963 H   0  0  0  0  0  0  0  0  0  0  0  0
    0.6968   -6.9523    5.7934 H   0  0  0  0  0  0  0  0  0  0  0  0
   -0.5724   -9.2944    4.2787 H   0  0  0  0  0  0  0  0  0  0  0  0
   -1.4332   -8.1663    5.2860 H   0  0  0  0  0  0  0  0  0  0  0  0
   -1.6854   -7.5810    2.8936 H   0  0  0  0  0  0  0  0  0  0  0  0
   -0.8850   -6.2706    3.7803 H   0  0  0  0  0  0  0  0  0  0  0  0
    0.1811   -6.7744    1.6565 H   0  0  0  0  0  0  0  0  0  0  0  0
    0.3055   -8.4704    2.1153 H   0  0  0  0  0  0  0  0  0  0  0  0
    4.5341   -7.7417    3.6219 H   0  0  0  0  0  0  0  0  0  0  0  0
    2.4976   -3.3095    0.9904 H   0  0  0  0  0  0  0  0  0  0  0  0
    3.5165   -2.8841    2.2986 H   0  0  0  0  0  0  0  0  0  0  0  0
    3.1165   -0.9567    0.7717 H   0  0  0  0  0  0  0  0  0  0  0  0
    2.7913   -2.2645   -1.3105 H   0  0  0  0  0  0  0  0  0  0  0  0
    3.9588   -0.9968   -1.5566 H   0  0  0  0  0  0  0  0  0  0  0  0
    4.7750   -3.1618   -2.5041 H   0  0  0  0  0  0  0  0  0  0  0  0
    6.9433   -3.3457   -1.3085 H   0  0  0  0  0  0  0  0  0  0  0  0
    6.5319   -1.6686   -1.6104 H   0  0  0  0  0  0  0  0  0  0  0  0
    7.2843   -1.9782    0.7623 H   0  0  0  0  0  0  0  0  0  0  0  0
    5.4995   -0.2863    0.3896 H   0  0  0  0  0  0  0  0  0  0  0  0
    5.3102   -1.0583    1.9569 H   0  0  0  0  0  0  0  0  0  0  0  0
    5.9775   -3.4740    2.2648 H   0  0  0  0  0  0  0  0  0  0  0  0
    6.7774   -4.3081    0.9390 H   0  0  0  0  0  0  0  0  0  0  0  0
    5.1498   -5.1942   -1.0296 H   0  0  0  0  0  0  0  0  0  0  0  0
    3.5386   -4.6661   -1.0915 H   0  0  0  0  0  0  0  0  0  0  0  0
  2  1  1  6
  1 25  1  0
  1 26  1  0
  1 27  1  0
  2 23  1  0
  2  3  1  0
  2  9  1  0
  3  8  1  0
  3  4  1  0
  3 28  1  0
  4  5  1  0
  4 29  1  0
  4 30  1  0
  5  6  1  0
  5 31  1  0
  5 32  1  0
  6  7  1  0
  6 33  1  0
  6 34  1  0
  7  8  1  0
  7 35  1  0
  7 36  1  0
  8 37  1  0
  8 38  1  0
  9 10  1  0
  9 39  1  0
 10 11  2  0
 10 12  1  0
 13 12  1  1
 12 23  1  0
 13 21  1  0
 13 22  1  0
 13 14  1  0
 14 15  1  0
 14 40  1  0
 14 41  1  0
 15 20  1  0
 15 16  1  0
 15 42  1  6
 16 17  1  0
 16 43  1  0
 16 44  1  0
 17 18  1  0
 17 22  1  0
 17 45  1  6
 18 19  1  0
 18 46  1  0
 18 47  1  0
 19 20  1  0
 19 21  1  0
 19 48  1  1
 20 49  1  0
 20 50  1  0
 21 51  1  0
 21 52  1  0
 22 53  1  0
 22 54  1  0
 23 24  2  0
M  END
>  <i_m_ct_stereo_status>  (318) 
1

>  <s_m_source_file>  (318) 
/var/tmp/pbs.5076255.sched01/tmpcwktr4ti/1290j0z1rin.sdf

>  <i_m_source_file_index>  (318) 
12

>  <i_lp_mmshare_version>  (318) 
48012

>  <i_f3d_flags>  (318) 
0

>  <s_epik_input>  (318) 
W0NIMl0xW0NIMl1bQ0gyXVtDSDJdW0NIMl1bQ0hdMVtDQF0yKFtDSDNdKVtOSF1DKD1PKU4oQzI9TylDMzRbQ0gyXVtDQEBIXTVbQ0gyXVtDQEhdKFtDSDJdNClbQ0gyXVtDQEBIXShbQ0gyXTUpW0NIMl0z

>  <s_epik_cmdline>  (318) 
J2VwaWtfcHl0aG9uJywgJy1waHQnLCAnMi4wJywgJy1waCcsICc3LjAnLCAnLXRuJywgJzgnLCAnLW1hJywgJzIwMCcsICctaW1hZScsICc8aW5maWxlLm1hZT4nLCAnLW9tYWUnLCAnPG91dGZpbGUubWFlPic=

>  <r_lp_tautomer_probability>  (318) 
1

>  <r_epik_Ionization_Penalty>  (318) 
3.8987e-05

>  <r_epik_Ionization_Penalty_Charging>  (318) 
0

>  <r_epik_Ionization_Penalty_Neutral>  (318) 
3.8987e-05

>  <r_epik_State_Penalty>  (318) 
-0

>  <r_epik_Charging_Adjusted_Penalty>  (318) 
0

>  <i_epik_Tot_Q>  (318) 
0

>  <i_epik_Tot_abs_Q>  (318) 
0

>  <s_lp_Force_Field>  (318) 
OPLS3e

>  <r_lp_Energy>  (318) 
5.87746

>  <b_lp_Chiralities_Consistent>  (318) 
1

>  <s_lp_Variant>  (318) 
91:0-1

>  <s_i_glide_gridfile>  (318) 
pfpi4k_grid

>  <i_i_glide_lignum>  (318) 
12

>  <i_i_glide_rotatable_bonds>  (318) 
2

>  <r_i_docking_score>  (318) 
-2.71716

>  <r_i_glide_ligand_efficiency>  (318) 
-0.113215

>  <r_i_glide_ligand_efficiency_sa>  (318) 
-0.326569

>  <r_i_glide_ligand_efficiency_ln>  (318) 
-0.650342

>  <r_i_glide_gscore>  (318) 
-2.71716

>  <r_i_glide_lipo>  (318) 
-0.300255

>  <r_i_glide_hbond>  (318) 
0

>  <r_i_glide_metal>  (318) 
-0

>  <r_i_glide_rewards>  (318) 
-1.22169

>  <r_i_glide_evdw>  (318) 
-28.1472

>  <r_i_glide_ecoul>  (318) 
-0.882103

>  <r_i_glide_erotb>  (318) 
0.344456

>  <r_i_glide_esite>  (318) 
0

>  <r_i_glide_emodel>  (318) 
-32.8948

>  <r_i_glide_energy>  (318) 
-29.0293

>  <r_i_glide_einternal>  (318) 
1.32596

>  <r_i_glide_intrahb_reward>  (318) 
-0

>  <i_i_glide_confnum>  (318) 
4

>  <i_i_glide_posenum>  (318) 
34

>  <r_i_glide_eff_state_penalty>  (318) 
0

>  <ligand_id>  (318) 
91

>  <original_smiles>  (318) 
CC1(C2CCCCC2)NC(=O)N(C23CC4CC(CC(C4)C2)C3)C1=O

>  <smiles>  (318) 
[H]N1C(=O)N(C23C([H])([H])C4([H])C([H])([H])C([H])(C([H])([H])C([H])(C4([H])[H])C2([H])[H])C3([H])[H])C(=O)C1(C([H])([H])[H])C1([H])C([H])([H])C([H])([H])C([H])([H])C([H])([H])C1([H])[H]

$$$$
91:0:2
     RDKit          3D

 54 58  0  0  1  0  0  0  0  0999 V2000
    5.9930   -4.9103    2.1466 C   0  0  0  0  0  0  0  0  0  0  0  0
    4.6576   -5.1613    1.4134 C   0  0  1  0  0  0  0  0  0  0  0  0
    4.2083   -4.0254    0.4037 C   0  0  0  0  0  0  0  0  0  0  0  0
    5.0226   -4.0367   -0.9197 C   0  0  0  0  0  0  0  0  0  0  0  0
    4.5871   -2.9041   -1.8536 C   0  0  0  0  0  0  0  0  0  0  0  0
    4.6527   -1.5409   -1.1522 C   0  0  0  0  0  0  0  0  0  0  0  0
    3.7689   -1.5172    0.0962 C   0  0  0  0  0  0  0  0  0  0  0  0
    4.2119   -2.6038    1.0473 C   0  0  0  0  0  0  0  0  0  0  0  0
    4.7192   -6.4596    0.7611 N   0  0  0  0  0  0  0  0  0  0  0  0
    3.8741   -7.3537    1.3010 C   0  0  0  0  0  0  0  0  0  0  0  0
    3.8131   -8.5239    0.9362 O   0  0  0  0  0  0  0  0  0  0  0  0
    3.1380   -6.7347    2.2393 N   0  0  0  0  0  0  0  0  0  0  0  0
    1.9626   -7.3771    2.9053 C   0  0  1  0  0  0  0  0  0  0  0  0
    1.1905   -6.4603    3.9136 C   0  0  0  0  0  0  0  0  0  0  0  0
   -0.0028   -7.1488    4.5748 C   0  0  2  0  0  0  0  0  0  0  0  0
    0.5109   -8.3710    5.3328 C   0  0  0  0  0  0  0  0  0  0  0  0
    1.1952   -9.3333    4.3391 C   0  0  1  0  0  0  0  0  0  0  0  0
    0.2049   -9.7412    3.2273 C   0  0  0  0  0  0  0  0  0  0  0  0
   -0.3085   -8.4978    2.4845 C   0  0  1  0  0  0  0  0  0  0  0  0
   -1.0156   -7.5699    3.4987 C   0  0  0  0  0  0  0  0  0  0  0  0
    0.9068   -7.7811    1.8311 C   0  0  0  0  0  0  0  0  0  0  0  0
    2.4307   -8.6461    3.6892 C   0  0  0  0  0  0  0  0  0  0  0  0
    3.5691   -5.4463    2.4377 C   0  0  0  0  0  0  0  0  0  0  0  0
    3.1867   -4.6157    3.2268 O   0  0  0  0  0  0  0  0  0  0  0  0
    5.9415   -4.0441    2.7977 H   0  0  0  0  0  0  0  0  0  0  0  0
    6.8081   -4.7739    1.4368 H   0  0  0  0  0  0  0  0  0  0  0  0
    6.2458   -5.7545    2.7917 H   0  0  0  0  0  0  0  0  0  0  0  0
    3.1764   -4.2290    0.0833 H   0  0  0  0  0  0  0  0  0  0  0  0
    6.0829   -3.9439   -0.6816 H   0  0  0  0  0  0  0  0  0  0  0  0
    4.8972   -4.9842   -1.4529 H   0  0  0  0  0  0  0  0  0  0  0  0
    5.2332   -2.9212   -2.7270 H   0  0  0  0  0  0  0  0  0  0  0  0
    3.5704   -3.1002   -2.1949 H   0  0  0  0  0  0  0  0  0  0  0  0
    5.6878   -1.3351   -0.8678 H   0  0  0  0  0  0  0  0  0  0  0  0
    4.3327   -0.7519   -1.8263 H   0  0  0  0  0  0  0  0  0  0  0  0
    3.8802   -0.5721    0.6257 H   0  0  0  0  0  0  0  0  0  0  0  0
    2.7115   -1.6480   -0.1423 H   0  0  0  0  0  0  0  0  0  0  0  0
    3.5543   -2.5296    1.9163 H   0  0  0  0  0  0  0  0  0  0  0  0
    5.2186   -2.3163    1.3567 H   0  0  0  0  0  0  0  0  0  0  0  0
    5.2738   -6.6761   -0.0549 H   0  0  0  0  0  0  0  0  0  0  0  0
    1.8391   -6.1369    4.7224 H   0  0  0  0  0  0  0  0  0  0  0  0
    0.8047   -5.5702    3.4338 H   0  0  0  0  0  0  0  0  0  0  0  0
   -0.4724   -6.4590    5.2747 H   0  0  0  0  0  0  0  0  0  0  0  0
    1.2365   -8.0755    6.0859 H   0  0  0  0  0  0  0  0  0  0  0  0
   -0.3017   -8.8681    5.8657 H   0  0  0  0  0  0  0  0  0  0  0  0
    1.5189  -10.2319    4.8699 H   0  0  0  0  0  0  0  0  0  0  0  0
    0.6729  -10.4256    2.5261 H   0  0  0  0  0  0  0  0  0  0  0  0
   -0.6315  -10.2947    3.6606 H   0  0  0  0  0  0  0  0  0  0  0  0
   -1.0399   -8.7987    1.7354 H   0  0  0  0  0  0  0  0  0  0  0  0
   -1.8712   -8.0640    3.9506 H   0  0  0  0  0  0  0  0  0  0  0  0
   -1.3948   -6.6854    2.9799 H   0  0  0  0  0  0  0  0  0  0  0  0
    0.5880   -6.8814    1.3184 H   0  0  0  0  0  0  0  0  0  0  0  0
    1.3044   -8.4094    1.0276 H   0  0  0  0  0  0  0  0  0  0  0  0
    2.9417   -9.3856    3.0672 H   0  0  0  0  0  0  0  0  0  0  0  0
    3.2188   -8.3679    4.3933 H   0  0  0  0  0  0  0  0  0  0  0  0
  2  1  1  1
  1 25  1  0
  1 26  1  0
  1 27  1  0
  2 23  1  0
  2  3  1  0
  2  9  1  0
  3  8  1  0
  3  4  1  0
  3 28  1  0
  4  5  1  0
  4 29  1  0
  4 30  1  0
  5  6  1  0
  5 31  1  0
  5 32  1  0
  6  7  1  0
  6 33  1  0
  6 34  1  0
  7  8  1  0
  7 35  1  0
  7 36  1  0
  8 37  1  0
  8 38  1  0
  9 10  1  0
  9 39  1  0
 10 11  2  0
 10 12  1  0
 13 12  1  6
 12 23  1  0
 13 21  1  0
 13 22  1  0
 13 14  1  0
 14 15  1  0
 14 40  1  0
 14 41  1  0
 15 20  1  0
 15 16  1  0
 15 42  1  1
 16 17  1  0
 16 43  1  0
 16 44  1  0
 17 18  1  0
 17 22  1  0
 17 45  1  1
 18 19  1  0
 18 46  1  0
 18 47  1  0
 19 20  1  0
 19 21  1  0
 19 48  1  6
 20 49  1  0
 20 50  1  0
 21 51  1  0
 21 52  1  0
 22 53  1  0
 22 54  1  0
 23 24  2  0
M  END
>  <i_m_ct_stereo_status>  (319) 
1

>  <s_m_source_file>  (319) 
/var/tmp/pbs.5076255.sched01/tmpcwktr4ti/1290j0z1rin.sdf

>  <i_m_source_file_index>  (319) 
12

>  <i_lp_mmshare_version>  (319) 
48012

>  <i_f3d_flags>  (319) 
0

>  <s_epik_input>  (319) 
W0NIMl0xW0NIMl1bQ0gyXVtDSDJdW0NIMl1bQ0hdMVtDQF0yKFtDSDNdKVtOSF1DKD1PKU4oQzI9TylDMzRbQ0gyXVtDQEBIXTVbQ0gyXVtDQEhdKFtDSDJdNClbQ0gyXVtDQEBIXShbQ0gyXTUpW0NIMl0z

>  <s_epik_cmdline>  (319) 
J2VwaWtfcHl0aG9uJywgJy1waHQnLCAnMi4wJywgJy1waCcsICc3LjAnLCAnLXRuJywgJzgnLCAnLW1hJywgJzIwMCcsICctaW1hZScsICc8aW5maWxlLm1hZT4nLCAnLW9tYWUnLCAnPG91dGZpbGUubWFlPic=

>  <r_lp_tautomer_probability>  (319) 
1

>  <r_epik_Ionization_Penalty>  (319) 
3.8987e-05

>  <r_epik_Ionization_Penalty_Charging>  (319) 
0

>  <r_epik_Ionization_Penalty_Neutral>  (319) 
3.8987e-05

>  <r_epik_State_Penalty>  (319) 
-0

>  <r_epik_Charging_Adjusted_Penalty>  (319) 
0

>  <i_epik_Tot_Q>  (319) 
0

>  <i_epik_Tot_abs_Q>  (319) 
0

>  <s_lp_Force_Field>  (319) 
OPLS3e

>  <r_lp_Energy>  (319) 
5.87746

>  <b_lp_Chiralities_Consistent>  (319) 
1

>  <s_lp_Variant>  (319) 
91:0-1

>  <s_i_glide_gridfile>  (319) 
pfpi4k_grid

>  <i_i_glide_lignum>  (319) 
12

>  <i_i_glide_rotatable_bonds>  (319) 
2

>  <r_i_docking_score>  (319) 
-2.51526

>  <r_i_glide_ligand_efficiency>  (319) 
-0.104802

>  <r_i_glide_ligand_efficiency_sa>  (319) 
-0.302302

>  <r_i_glide_ligand_efficiency_ln>  (319) 
-0.602016

>  <r_i_glide_gscore>  (319) 
-2.51526

>  <r_i_glide_lipo>  (319) 
-0.118202

>  <r_i_glide_hbond>  (319) 
0

>  <r_i_glide_metal>  (319) 
-0

>  <r_i_glide_rewards>  (319) 
-1.28886

>  <r_i_glide_evdw>  (319) 
-29.32

>  <r_i_glide_ecoul>  (319) 
0.0890355

>  <r_i_glide_erotb>  (319) 
0.344456

>  <r_i_glide_esite>  (319) 
0

>  <r_i_glide_emodel>  (319) 
-32.736

>  <r_i_glide_energy>  (319) 
-29.231

>  <r_i_glide_einternal>  (319) 
1.51321

>  <r_i_glide_intrahb_reward>  (319) 
-0

>  <i_i_glide_confnum>  (319) 
3

>  <i_i_glide_posenum>  (319) 
3

>  <r_i_glide_eff_state_penalty>  (319) 
0

>  <ligand_id>  (319) 
91

>  <original_smiles>  (319) 
CC1(C2CCCCC2)NC(=O)N(C23CC4CC(CC(C4)C2)C3)C1=O

>  <smiles>  (319) 
[H]N1C(=O)N(C23C([H])([H])C4([H])C([H])([H])C([H])(C([H])([H])C([H])(C4([H])[H])C2([H])[H])C3([H])[H])C(=O)C1(C([H])([H])[H])C1([H])C([H])([H])C([H])([H])C([H])([H])C([H])([H])C1([H])[H]

$$$$
92:0:0
     RDKit          3D

 26 31  0  0  1  0  0  0  0  0999 V2000
    2.8135   -3.0573   -1.7994 C   0  0  0  0  0  0  0  0  0  0  0  0
    3.9176   -2.7869   -2.8625 C   0  0  1  0  0  0  0  0  0  0  0  0
    3.8770   -1.2772   -2.7962 C   0  0  0  0  0  0  0  0  0  0  0  0
    4.3152   -1.2530   -1.3315 C   0  0  1  0  0  0  0  0  0  0  0  0
    3.4264   -2.3308   -0.5834 C   0  0  2  0  0  0  0  0  0  0  0  0
    4.3826   -3.3249    0.1141 C   0  0  2  0  0  0  0  0  0  0  0  0
    5.7114   -2.7173    0.6530 C   0  0  2  0  0  0  0  0  0  0  0  0
    6.2700   -1.4127    0.0871 C   0  0  0  0  0  0  0  0  0  0  0  0
    5.7640   -1.8190   -1.3733 C   0  0  2  0  0  0  0  0  0  0  0  0
    5.3182   -3.0951   -2.2654 C   0  0  1  0  0  0  0  0  0  0  0  0
    5.2455   -3.9562   -1.0067 C   0  0  1  0  0  0  0  0  0  0  0  0
    6.3630   -3.1012   -0.6357 C   0  0  2  0  0  0  0  0  0  0  0  0
    2.6540   -4.1158   -1.5985 H   0  0  0  0  0  0  0  0  0  0  0  0
    1.8436   -2.6464   -2.0882 H   0  0  0  0  0  0  0  0  0  0  0  0
    3.7181   -3.2139   -3.8419 H   0  0  0  0  0  0  0  0  0  0  0  0
    4.5990   -0.8005   -3.4627 H   0  0  0  0  0  0  0  0  0  0  0  0
    2.8933   -0.8316   -2.9536 H   0  0  0  0  0  0  0  0  0  0  0  0
    4.2375   -0.2495   -0.9161 H   0  0  0  0  0  0  0  0  0  0  0  0
    2.6860   -1.8976    0.0905 H   0  0  0  0  0  0  0  0  0  0  0  0
    3.9376   -4.0860    0.7577 H   0  0  0  0  0  0  0  0  0  0  0  0
    6.1870   -3.1628    1.5280 H   0  0  0  0  0  0  0  0  0  0  0  0
    5.7848   -0.5428    0.5310 H   0  0  0  0  0  0  0  0  0  0  0  0
    7.3503   -1.2719    0.2208 H   0  0  0  0  0  0  0  0  0  0  0  0
    6.0820   -3.4211   -2.9869 H   0  0  0  0  0  0  0  0  0  0  0  0
    5.4342   -5.0302   -1.0403 H   0  0  0  0  0  0  0  0  0  0  0  0
    7.4049   -3.4250   -0.7244 H   0  0  0  0  0  0  0  0  0  0  0  0
  1  5  1  0
  1  2  1  0
  1 13  1  0
  1 14  1  0
  2 10  1  0
  2  3  1  0
  2 15  1  6
  3  4  1  0
  3 16  1  0
  3 17  1  0
  4  9  1  0
  4  5  1  0
  4 18  1  1
  5  6  1  0
  5 19  1  1
  6 11  1  0
  6  7  1  0
  6 20  1  1
  7 12  1  0
  7  8  1  0
  7 21  1  1
  9  8  1  6
  8 22  1  0
  8 23  1  0
  9 12  1  0
  9 10  1  0
 10 11  1  0
 10 24  1  6
 11 12  1  0
 11 25  1  6
 12 26  1  1
M  END
>  <i_m_ct_stereo_status>  (320) 
1

>  <s_m_source_file>  (320) 
/var/tmp/pbs.5076255.sched01/tmpcwktr4ti/1290j0z1rin.sdf

>  <i_m_source_file_index>  (320) 
13

>  <i_lp_mmshare_version>  (320) 
48012

>  <i_f3d_flags>  (320) 
0

>  <s_epik_input>  (320) 
W0NIMl0xW0NAQEhdKFtDSDJdMilbQ0BASF0zW0NASF00W0NAQEhdNVtDQEBIXShbQ0gyXTYpW0NASF00W0NASF0xW0NASF0yW0NAXTM1Ng==

>  <s_epik_cmdline>  (320) 
J2VwaWtfcHl0aG9uJywgJy1waHQnLCAnMi4wJywgJy1waCcsICc3LjAnLCAnLXRuJywgJzgnLCAnLW1hJywgJzIwMCcsICctaW1hZScsICc8aW5maWxlLm1hZT4nLCAnLW9tYWUnLCAnPG91dGZpbGUubWFlPic=

>  <r_lp_tautomer_probability>  (320) 
1

>  <r_epik_Ionization_Penalty>  (320) 
0

>  <r_epik_Ionization_Penalty_Charging>  (320) 
0

>  <r_epik_Ionization_Penalty_Neutral>  (320) 
0

>  <r_epik_State_Penalty>  (320) 
-0

>  <r_epik_Charging_Adjusted_Penalty>  (320) 
0

>  <i_epik_Tot_Q>  (320) 
0

>  <i_epik_Tot_abs_Q>  (320) 
0

>  <s_lp_Force_Field>  (320) 
OPLS3e

>  <r_lp_Energy>  (320) 
207.163

>  <b_lp_Chiralities_Consistent>  (320) 
1

>  <s_lp_Variant>  (320) 
92:0-1

>  <s_i_glide_gridfile>  (320) 
pfpi4k_grid

>  <i_i_glide_lignum>  (320) 
13

>  <i_i_glide_rotatable_bonds>  (320) 
0

>  <r_i_docking_score>  (320) 
-3.70019

>  <r_i_glide_ligand_efficiency>  (320) 
-0.308349

>  <r_i_glide_ligand_efficiency_sa>  (320) 
-0.705943

>  <r_i_glide_ligand_efficiency_ln>  (320) 
-1.06178

>  <r_i_glide_gscore>  (320) 
-3.70019

>  <r_i_glide_lipo>  (320) 
-0.375871

>  <r_i_glide_hbond>  (320) 
0

>  <r_i_glide_metal>  (320) 
-0

>  <r_i_glide_rewards>  (320) 
-2.25

>  <r_i_glide_evdw>  (320) 
-18.8529

>  <r_i_glide_ecoul>  (320) 
-0.877801

>  <r_i_glide_erotb>  (320) 
0

>  <r_i_glide_esite>  (320) 
0

>  <r_i_glide_emodel>  (320) 
-24.3248

>  <r_i_glide_energy>  (320) 
-19.7307

>  <r_i_glide_einternal>  (320) 
0

>  <r_i_glide_intrahb_reward>  (320) 
-0

>  <i_i_glide_confnum>  (320) 
2

>  <i_i_glide_posenum>  (320) 
8

>  <r_i_glide_eff_state_penalty>  (320) 
0

>  <ligand_id>  (320) 
92

>  <original_smiles>  (320) 
C1C2CC3C1C1C4CC35C2C1C45

>  <smiles>  (320) 
[H]C1([H])C2([H])C([H])([H])C3([H])C1([H])C1([H])C4([H])C([H])([H])C35C2([H])C1([H])C45[H]

$$$$
92:0:1
     RDKit          3D

 26 31  0  0  1  0  0  0  0  0999 V2000
    5.0706   -2.3240    0.8250 C   0  0  0  0  0  0  0  0  0  0  0  0
    5.0686   -3.7639    0.2391 C   0  0  1  0  0  0  0  0  0  0  0  0
    3.5882   -4.0264    0.3616 C   0  0  0  0  0  0  0  0  0  0  0  0
    3.2359   -2.8941   -0.6010 C   0  0  1  0  0  0  0  0  0  0  0  0
    4.0886   -1.6327   -0.1555 C   0  0  2  0  0  0  0  0  0  0  0  0
    4.9114   -1.1738   -1.3917 C   0  0  2  0  0  0  0  0  0  0  0  0
    4.2167   -1.3605   -2.7745 C   0  0  2  0  0  0  0  0  0  0  0  0
    3.0960   -2.3829   -2.9706 C   0  0  0  0  0  0  0  0  0  0  0  0
    3.8129   -3.3811   -1.9522 C   0  0  2  0  0  0  0  0  0  0  0  0
    5.2583   -3.7194   -1.3061 C   0  0  1  0  0  0  0  0  0  0  0  0
    5.7978   -2.3749   -1.7943 C   0  0  1  0  0  0  0  0  0  0  0  0
    4.8956   -2.6791   -2.8910 C   0  0  2  0  0  0  0  0  0  0  0  0
    6.0589   -1.8658    0.8261 H   0  0  0  0  0  0  0  0  0  0  0  0
    4.6943   -2.2922    1.8529 H   0  0  0  0  0  0  0  0  0  0  0  0
    5.7080   -4.4799    0.7558 H   0  0  0  0  0  0  0  0  0  0  0  0
    3.2997   -5.0075   -0.0178 H   0  0  0  0  0  0  0  0  0  0  0  0
    3.1749   -3.8844    1.3587 H   0  0  0  0  0  0  0  0  0  0  0  0
    2.1589   -2.7152   -0.6202 H   0  0  0  0  0  0  0  0  0  0  0  0
    3.4894   -0.8412    0.2894 H   0  0  0  0  0  0  0  0  0  0  0  0
    5.4780   -0.2581   -1.2937 H   0  0  0  0  0  0  0  0  0  0  0  0
    4.4832   -0.6944   -3.5924 H   0  0  0  0  0  0  0  0  0  0  0  0
    2.1378   -1.9786   -2.6411 H   0  0  0  0  0  0  0  0  0  0  0  0
    2.9590   -2.7329   -4.0047 H   0  0  0  0  0  0  0  0  0  0  0  0
    5.7384   -4.5845   -1.7653 H   0  0  0  0  0  0  0  0  0  0  0  0
    6.8483   -2.2544   -2.0767 H   0  0  0  0  0  0  0  0  0  0  0  0
    5.2550   -3.1159   -3.8175 H   0  0  0  0  0  0  0  0  0  0  0  0
  1  5  1  0
  1  2  1  0
  1 13  1  0
  1 14  1  0
  2 10  1  0
  2  3  1  0
  2 15  1  1
  3  4  1  0
  3 16  1  0
  3 17  1  0
  4  9  1  0
  4  5  1  0
  4 18  1  6
  5  6  1  0
  5 19  1  1
  6 11  1  0
  6  7  1  0
  6 20  1  1
  7 12  1  0
  7  8  1  0
  7 21  1  6
  9  8  1  6
  8 22  1  0
  8 23  1  0
  9 12  1  0
  9 10  1  0
 10 11  1  0
 10 24  1  6
 11 12  1  0
 11 25  1  6
 12 26  1  6
M  END
>  <i_m_ct_stereo_status>  (321) 
1

>  <s_m_source_file>  (321) 
/var/tmp/pbs.5076255.sched01/tmpcwktr4ti/1290j0z1rin.sdf

>  <i_m_source_file_index>  (321) 
13

>  <i_lp_mmshare_version>  (321) 
48012

>  <i_f3d_flags>  (321) 
0

>  <s_epik_input>  (321) 
W0NIMl0xW0NAQEhdKFtDSDJdMilbQ0BASF0zW0NASF00W0NAQEhdNVtDQEBIXShbQ0gyXTYpW0NASF00W0NASF0xW0NASF0yW0NAXTM1Ng==

>  <s_epik_cmdline>  (321) 
J2VwaWtfcHl0aG9uJywgJy1waHQnLCAnMi4wJywgJy1waCcsICc3LjAnLCAnLXRuJywgJzgnLCAnLW1hJywgJzIwMCcsICctaW1hZScsICc8aW5maWxlLm1hZT4nLCAnLW9tYWUnLCAnPG91dGZpbGUubWFlPic=

>  <r_lp_tautomer_probability>  (321) 
1

>  <r_epik_Ionization_Penalty>  (321) 
0

>  <r_epik_Ionization_Penalty_Charging>  (321) 
0

>  <r_epik_Ionization_Penalty_Neutral>  (321) 
0

>  <r_epik_State_Penalty>  (321) 
-0

>  <r_epik_Charging_Adjusted_Penalty>  (321) 
0

>  <i_epik_Tot_Q>  (321) 
0

>  <i_epik_Tot_abs_Q>  (321) 
0

>  <s_lp_Force_Field>  (321) 
OPLS3e

>  <r_lp_Energy>  (321) 
207.163

>  <b_lp_Chiralities_Consistent>  (321) 
1

>  <s_lp_Variant>  (321) 
92:0-1

>  <s_i_glide_gridfile>  (321) 
pfpi4k_grid

>  <i_i_glide_lignum>  (321) 
13

>  <i_i_glide_rotatable_bonds>  (321) 
0

>  <r_i_docking_score>  (321) 
-3.35652

>  <r_i_glide_ligand_efficiency>  (321) 
-0.27971

>  <r_i_glide_ligand_efficiency_sa>  (321) 
-0.640376

>  <r_i_glide_ligand_efficiency_ln>  (321) 
-0.96316

>  <r_i_glide_gscore>  (321) 
-3.35652

>  <r_i_glide_lipo>  (321) 
-0.24661

>  <r_i_glide_hbond>  (321) 
0

>  <r_i_glide_metal>  (321) 
-0

>  <r_i_glide_rewards>  (321) 
-2.25

>  <r_i_glide_evdw>  (321) 
-17.7029

>  <r_i_glide_ecoul>  (321) 
0.168225

>  <r_i_glide_erotb>  (321) 
0

>  <r_i_glide_esite>  (321) 
0

>  <r_i_glide_emodel>  (321) 
-21.6963

>  <r_i_glide_energy>  (321) 
-17.5347

>  <r_i_glide_einternal>  (321) 
0

>  <r_i_glide_intrahb_reward>  (321) 
-0

>  <i_i_glide_confnum>  (321) 
1

>  <i_i_glide_posenum>  (321) 
22

>  <r_i_glide_eff_state_penalty>  (321) 
0

>  <ligand_id>  (321) 
92

>  <original_smiles>  (321) 
C1C2CC3C1C1C4CC35C2C1C45

>  <smiles>  (321) 
[H]C1([H])C2([H])C([H])([H])C3([H])C1([H])C1([H])C4([H])C([H])([H])C35C2([H])C1([H])C45[H]

$$$$
92:0:2
     RDKit          3D

 26 31  0  0  1  0  0  0  0  0999 V2000
    5.0641   -2.7182    0.8346 C   0  0  0  0  0  0  0  0  0  0  0  0
    5.7822   -3.6715   -0.1654 C   0  0  1  0  0  0  0  0  0  0  0  0
    4.7149   -4.7381   -0.2126 C   0  0  0  0  0  0  0  0  0  0  0  0
    3.6745   -3.7849   -0.7997 C   0  0  1  0  0  0  0  0  0  0  0  0
    3.7542   -2.4566    0.0578 C   0  0  2  0  0  0  0  0  0  0  0  0
    4.0214   -1.2895   -0.9150 C   0  0  2  0  0  0  0  0  0  0  0  0
    3.3663   -1.4227   -2.3224 C   0  0  2  0  0  0  0  0  0  0  0  0
    2.9660   -2.7842   -2.8907 C   0  0  0  0  0  0  0  0  0  0  0  0
    4.2470   -3.4507   -2.2063 C   0  0  2  0  0  0  0  0  0  0  0  0
    5.7086   -3.0909   -1.6054 C   0  0  1  0  0  0  0  0  0  0  0  0
    5.3582   -1.6083   -1.6240 C   0  0  1  0  0  0  0  0  0  0  0  0
    4.6342   -2.0303   -2.8139 C   0  0  2  0  0  0  0  0  0  0  0  0
    5.6264   -1.8048    1.0330 H   0  0  0  0  0  0  0  0  0  0  0  0
    4.8694   -3.1938    1.7984 H   0  0  0  0  0  0  0  0  0  0  0  0
    6.7634   -4.0142    0.1517 H   0  0  0  0  0  0  0  0  0  0  0  0
    4.9645   -5.5578   -0.8907 H   0  0  0  0  0  0  0  0  0  0  0  0
    4.4251   -5.1477    0.7552 H   0  0  0  0  0  0  0  0  0  0  0  0
    2.6871   -4.2486   -0.8223 H   0  0  0  0  0  0  0  0  0  0  0  0
    2.8822   -2.2913    0.6912 H   0  0  0  0  0  0  0  0  0  0  0  0
    4.0204   -0.2795   -0.4995 H   0  0  0  0  0  0  0  0  0  0  0  0
    3.0769   -0.5192   -2.8615 H   0  0  0  0  0  0  0  0  0  0  0  0
    2.0013   -3.1062   -2.5017 H   0  0  0  0  0  0  0  0  0  0  0  0
    2.9016   -2.8432   -3.9848 H   0  0  0  0  0  0  0  0  0  0  0  0
    6.5403   -3.3594   -2.2743 H   0  0  0  0  0  0  0  0  0  0  0  0
    6.1191   -0.8476   -1.7657 H   0  0  0  0  0  0  0  0  0  0  0  0
    5.0127   -1.8786   -3.8292 H   0  0  0  0  0  0  0  0  0  0  0  0
  1  5  1  0
  1  2  1  0
  1 13  1  0
  1 14  1  0
  2 10  1  0
  2  3  1  0
  2 15  1  1
  3  4  1  0
  3 16  1  0
  3 17  1  0
  4  9  1  0
  4  5  1  0
  4 18  1  6
  5  6  1  0
  5 19  1  1
  6 11  1  0
  6  7  1  0
  6 20  1  1
  7 12  1  0
  7  8  1  0
  7 21  1  6
  9  8  1  6
  8 22  1  0
  8 23  1  0
  9 12  1  0
  9 10  1  0
 10 11  1  0
 10 24  1  6
 11 12  1  0
 11 25  1  6
 12 26  1  6
M  END
>  <i_m_ct_stereo_status>  (322) 
1

>  <s_m_source_file>  (322) 
/var/tmp/pbs.5076255.sched01/tmpcwktr4ti/1290j0z1rin.sdf

>  <i_m_source_file_index>  (322) 
13

>  <i_lp_mmshare_version>  (322) 
48012

>  <i_f3d_flags>  (322) 
0

>  <s_epik_input>  (322) 
W0NIMl0xW0NAQEhdKFtDSDJdMilbQ0BASF0zW0NASF00W0NAQEhdNVtDQEBIXShbQ0gyXTYpW0NASF00W0NASF0xW0NASF0yW0NAXTM1Ng==

>  <s_epik_cmdline>  (322) 
J2VwaWtfcHl0aG9uJywgJy1waHQnLCAnMi4wJywgJy1waCcsICc3LjAnLCAnLXRuJywgJzgnLCAnLW1hJywgJzIwMCcsICctaW1hZScsICc8aW5maWxlLm1hZT4nLCAnLW9tYWUnLCAnPG91dGZpbGUubWFlPic=

>  <r_lp_tautomer_probability>  (322) 
1

>  <r_epik_Ionization_Penalty>  (322) 
0

>  <r_epik_Ionization_Penalty_Charging>  (322) 
0

>  <r_epik_Ionization_Penalty_Neutral>  (322) 
0

>  <r_epik_State_Penalty>  (322) 
-0

>  <r_epik_Charging_Adjusted_Penalty>  (322) 
0

>  <i_epik_Tot_Q>  (322) 
0

>  <i_epik_Tot_abs_Q>  (322) 
0

>  <s_lp_Force_Field>  (322) 
OPLS3e

>  <r_lp_Energy>  (322) 
207.163

>  <b_lp_Chiralities_Consistent>  (322) 
1

>  <s_lp_Variant>  (322) 
92:0-1

>  <s_i_glide_gridfile>  (322) 
pfpi4k_grid

>  <i_i_glide_lignum>  (322) 
13

>  <i_i_glide_rotatable_bonds>  (322) 
0

>  <r_i_docking_score>  (322) 
-3.29672

>  <r_i_glide_ligand_efficiency>  (322) 
-0.274726

>  <r_i_glide_ligand_efficiency_sa>  (322) 
-0.628966

>  <r_i_glide_ligand_efficiency_ln>  (322) 
-0.945998

>  <r_i_glide_gscore>  (322) 
-3.29672

>  <r_i_glide_lipo>  (322) 
-0.226024

>  <r_i_glide_hbond>  (322) 
0

>  <r_i_glide_metal>  (322) 
-0

>  <r_i_glide_rewards>  (322) 
-2.25

>  <r_i_glide_evdw>  (322) 
-17.6547

>  <r_i_glide_ecoul>  (322) 
0.413609

>  <r_i_glide_erotb>  (322) 
0

>  <r_i_glide_esite>  (322) 
0

>  <r_i_glide_emodel>  (322) 
-21.3274

>  <r_i_glide_energy>  (322) 
-17.241

>  <r_i_glide_einternal>  (322) 
0

>  <r_i_glide_intrahb_reward>  (322) 
-0

>  <i_i_glide_confnum>  (322) 
2

>  <i_i_glide_posenum>  (322) 
40

>  <r_i_glide_eff_state_penalty>  (322) 
0

>  <ligand_id>  (322) 
92

>  <original_smiles>  (322) 
C1C2CC3C1C1C4CC35C2C1C45

>  <smiles>  (322) 
[H]C1([H])C2([H])C([H])([H])C3([H])C1([H])C1([H])C4([H])C([H])([H])C35C2([H])C1([H])C45[H]

$$$$
93:0:0
     RDKit          3D

 38 41  0  0  1  0  0  0  0  0999 V2000
    4.0071   -5.3185    0.7587 C   0  0  0  0  0  0  0  0  0  0  0  0
    4.7450   -4.2642   -0.0284 C   0  0  0  0  0  0  0  0  0  0  0  0
    4.9837   -4.3904   -1.3455 C   0  0  0  0  0  0  0  0  0  0  0  0
    5.7124   -3.3464   -2.1714 C   0  0  1  0  0  0  0  0  0  0  0  0
    4.9566   -2.8513   -3.2699 O   0  0  0  0  0  0  0  0  0  0  0  0
    3.8863   -1.9939   -2.9887 C   0  0  0  0  0  0  0  0  0  0  0  0
    3.5992   -1.2627   -4.2956 C   0  0  0  0  0  0  0  0  0  0  0  0
    2.6373   -2.7882   -2.5630 C   0  0  0  0  0  0  0  0  0  0  0  0
    4.1909   -0.9743   -2.0739 O   0  0  0  0  0  0  0  0  0  0  0  0
    5.0516   -1.2407   -0.9643 C   0  0  2  0  0  0  0  0  0  0  0  0
    6.1982   -2.1976   -1.3024 C   0  0  1  0  0  0  0  0  0  0  0  0
    6.6088   -2.7227    0.0318 C   0  0  1  0  0  0  0  0  0  0  0  0
    7.9591   -3.2676    0.3953 C   0  0  0  0  0  0  0  0  0  0  0  0
    7.5598   -1.9116    0.7010 O   0  0  0  0  0  0  0  0  0  0  0  0
    5.2711   -3.0226    0.7118 C   0  0  2  0  0  0  0  0  0  0  0  0
    5.4128   -3.2409    2.2403 C   0  0  0  0  0  0  0  0  0  0  0  0
    4.3796   -1.8135    0.3024 C   0  0  1  0  0  0  0  0  0  0  0  0
    4.3977   -0.8089    1.2913 O   0  0  0  0  0  0  0  0  0  0  0  0
    3.1621   -4.8744    1.2878 H   0  0  0  0  0  0  0  0  0  0  0  0
    4.6699   -5.8031    1.4784 H   0  0  0  0  0  0  0  0  0  0  0  0
    3.6283   -6.0804    0.0792 H   0  0  0  0  0  0  0  0  0  0  0  0
    4.6627   -5.2601   -1.8855 H   0  0  0  0  0  0  0  0  0  0  0  0
    6.5761   -3.8457   -2.5993 H   0  0  0  0  0  0  0  0  0  0  0  0
    4.4750   -0.6955   -4.6128 H   0  0  0  0  0  0  0  0  0  0  0  0
    2.7611   -0.5742   -4.1708 H   0  0  0  0  0  0  0  0  0  0  0  0
    3.3571   -1.9857   -5.0641 H   0  0  0  0  0  0  0  0  0  0  0  0
    2.7286   -3.2557   -1.5921 H   0  0  0  0  0  0  0  0  0  0  0  0
    2.3927   -3.5551   -3.2928 H   0  0  0  0  0  0  0  0  0  0  0  0
    1.8155   -2.0953   -2.4974 H   0  0  0  0  0  0  0  0  0  0  0  0
    5.4918   -0.2684   -0.7038 H   0  0  0  0  0  0  0  0  0  0  0  0
    7.0283   -1.7254   -1.7913 H   0  0  0  0  0  0  0  0  0  0  0  0
    7.9935   -3.9671    1.2213 H   0  0  0  0  0  0  0  0  0  0  0  0
    8.7486   -3.3573   -0.3519 H   0  0  0  0  0  0  0  0  0  0  0  0
    5.9048   -2.3915    2.7105 H   0  0  0  0  0  0  0  0  0  0  0  0
    6.0186   -4.1130    2.4631 H   0  0  0  0  0  0  0  0  0  0  0  0
    4.4477   -3.3746    2.7267 H   0  0  0  0  0  0  0  0  0  0  0  0
    3.3352   -2.1023    0.1456 H   0  0  0  0  0  0  0  0  0  0  0  0
    3.8440   -1.0849    2.0008 H   0  0  0  0  0  0  0  0  0  0  0  0
  1  2  1  0
  1 19  1  0
  1 20  1  0
  1 21  1  0
  2 15  1  0
  2  3  2  0
  3  4  1  0
  3 22  1  0
  4 11  1  0
  4  5  1  0
  4 23  1  6
  5  6  1  0
  6  7  1  0
  6  8  1  0
  6  9  1  0
  7 24  1  0
  7 25  1  0
  7 26  1  0
  8 27  1  0
  8 28  1  0
  8 29  1  0
  9 10  1  0
 10 17  1  0
 10 11  1  0
 10 30  1  1
 11 12  1  0
 11 31  1  6
 12 14  1  1
 12 13  1  0
 12 15  1  0
 13 14  1  0
 13 32  1  0
 13 33  1  0
 15 16  1  1
 15 17  1  0
 16 34  1  0
 16 35  1  0
 16 36  1  0
 17 18  1  0
 17 37  1  6
 18 38  1  0
M  END
>  <i_m_ct_stereo_status>  (323) 
1

>  <s_m_source_file>  (323) 
/var/tmp/pbs.5076255.sched01/tmpcwktr4ti/1290j0z1rin.sdf

>  <i_m_source_file_index>  (323) 
14

>  <i_lp_mmshare_version>  (323) 
48012

>  <i_f3d_flags>  (323) 
0

>  <s_epik_input>  (323) 
TzFbQ0gyXVtDQF0xMltDQEhdM1tDSF00W0NIXT1DKFtDSDNdKVtDQF0yKFtDSDNdKVtDQEBIXShbT0hdKVtDQEBIXTNPQyhPNCkoW0NIM10pW0NIM10=

>  <s_epik_cmdline>  (323) 
J2VwaWtfcHl0aG9uJywgJy1waHQnLCAnMi4wJywgJy1waCcsICc3LjAnLCAnLXRuJywgJzgnLCAnLW1hJywgJzIwMCcsICctaW1hZScsICc8aW5maWxlLm1hZT4nLCAnLW9tYWUnLCAnPG91dGZpbGUubWFlPic=

>  <r_lp_tautomer_probability>  (323) 
1

>  <r_epik_Ionization_Penalty>  (323) 
2.52295e-07

>  <r_epik_Ionization_Penalty_Charging>  (323) 
0

>  <r_epik_Ionization_Penalty_Neutral>  (323) 
2.52295e-07

>  <r_epik_State_Penalty>  (323) 
-0

>  <r_epik_Charging_Adjusted_Penalty>  (323) 
0

>  <i_epik_Tot_Q>  (323) 
0

>  <i_epik_Tot_abs_Q>  (323) 
0

>  <s_lp_Force_Field>  (323) 
OPLS3e

>  <r_lp_Energy>  (323) 
34.5558

>  <b_lp_Chiralities_Consistent>  (323) 
1

>  <s_lp_Variant>  (323) 
93:0-1

>  <s_i_glide_gridfile>  (323) 
pfpi4k_grid

>  <i_i_glide_lignum>  (323) 
14

>  <i_i_glide_rotatable_bonds>  (323) 
1

>  <r_i_docking_score>  (323) 
-3.72717

>  <r_i_glide_ligand_efficiency>  (323) 
-0.207065

>  <r_i_glide_ligand_efficiency_sa>  (323) 
-0.542665

>  <r_i_glide_ligand_efficiency_ln>  (323) 
-0.958051

>  <r_i_glide_gscore>  (323) 
-3.72717

>  <r_i_glide_lipo>  (323) 
-0.644676

>  <r_i_glide_hbond>  (323) 
0

>  <r_i_glide_metal>  (323) 
-0

>  <r_i_glide_rewards>  (323) 
-1.7853

>  <r_i_glide_evdw>  (323) 
-23.8688

>  <r_i_glide_ecoul>  (323) 
-0.691732

>  <r_i_glide_erotb>  (323) 
0

>  <r_i_glide_esite>  (323) 
0

>  <r_i_glide_emodel>  (323) 
-29.5324

>  <r_i_glide_energy>  (323) 
-24.5605

>  <r_i_glide_einternal>  (323) 
0.390609

>  <r_i_glide_intrahb_reward>  (323) 
-0

>  <i_i_glide_confnum>  (323) 
2

>  <i_i_glide_posenum>  (323) 
35

>  <r_i_glide_eff_state_penalty>  (323) 
0

>  <ligand_id>  (323) 
93

>  <original_smiles>  (323) 
CC1=CC2OC(C)(C)OC3C2C2(CO2)C1(C)C3O

>  <smiles>  (323) 
[H]OC1([H])C2([H])OC(C([H])([H])[H])(C([H])([H])[H])OC3([H])C([H])=C(C([H])([H])[H])C1(C([H])([H])[H])C1(OC1([H])[H])C32[H]

$$$$
93:0:1
     RDKit          3D

 38 41  0  0  1  0  0  0  0  0999 V2000
    4.0695   -5.7602    0.1463 C   0  0  0  0  0  0  0  0  0  0  0  0
    4.5969   -4.4339   -0.3437 C   0  0  0  0  0  0  0  0  0  0  0  0
    5.0202   -4.2549   -1.6016 C   0  0  0  0  0  0  0  0  0  0  0  0
    5.5768   -2.9292   -2.1136 C   0  0  1  0  0  0  0  0  0  0  0  0
    4.8849   -2.4453   -3.2528 O   0  0  0  0  0  0  0  0  0  0  0  0
    3.5996   -1.9233   -3.0699 C   0  0  0  0  0  0  0  0  0  0  0  0
    3.3634   -1.0442   -4.2907 C   0  0  0  0  0  0  0  0  0  0  0  0
    2.5376   -3.0464   -3.0045 C   0  0  0  0  0  0  0  0  0  0  0  0
    3.4838   -1.0626   -1.9760 O   0  0  0  0  0  0  0  0  0  0  0  0
    4.2077   -1.3042   -0.7714 C   0  0  2  0  0  0  0  0  0  0  0  0
    5.6030   -1.8664   -1.0064 C   0  0  1  0  0  0  0  0  0  0  0  0
    5.9420   -2.5201    0.2896 C   0  0  1  0  0  0  0  0  0  0  0  0
    7.3129   -2.8233    0.8127 C   0  0  0  0  0  0  0  0  0  0  0  0
    6.5513   -1.6774    1.2609 O   0  0  0  0  0  0  0  0  0  0  0  0
    4.6539   -3.2550    0.6544 C   0  0  2  0  0  0  0  0  0  0  0  0
    4.6232   -3.7108    2.1326 C   0  0  0  0  0  0  0  0  0  0  0  0
    3.5357   -2.2473    0.2497 C   0  0  1  0  0  0  0  0  0  0  0  0
    3.0858   -1.4649    1.3276 O   0  0  0  0  0  0  0  0  0  0  0  0
    3.0575   -5.6438    0.5403 H   0  0  0  0  0  0  0  0  0  0  0  0
    4.7172   -6.1912    0.9116 H   0  0  0  0  0  0  0  0  0  0  0  0
    4.0431   -6.4599   -0.6884 H   0  0  0  0  0  0  0  0  0  0  0  0
    5.0060   -5.0620   -2.3210 H   0  0  0  0  0  0  0  0  0  0  0  0
    6.5974   -3.1318   -2.4249 H   0  0  0  0  0  0  0  0  0  0  0  0
    4.0946   -0.2314   -4.3354 H   0  0  0  0  0  0  0  0  0  0  0  0
    2.3626   -0.6145   -4.2692 H   0  0  0  0  0  0  0  0  0  0  0  0
    3.4635   -1.6534   -5.1763 H   0  0  0  0  0  0  0  0  0  0  0  0
    2.6188   -3.6505   -2.1130 H   0  0  0  0  0  0  0  0  0  0  0  0
    2.6328   -3.7019   -3.8628 H   0  0  0  0  0  0  0  0  0  0  0  0
    1.5360   -2.6217   -3.0012 H   0  0  0  0  0  0  0  0  0  0  0  0
    4.3352   -0.3191   -0.3071 H   0  0  0  0  0  0  0  0  0  0  0  0
    6.2958   -1.0637   -1.2343 H   0  0  0  0  0  0  0  0  0  0  0  0
    7.4107   -3.6322    1.5161 H   0  0  0  0  0  0  0  0  0  0  0  0
    8.2064   -2.5697    0.2372 H   0  0  0  0  0  0  0  0  0  0  0  0
    4.7903   -2.8712    2.8074 H   0  0  0  0  0  0  0  0  0  0  0  0
    5.3966   -4.4438    2.3439 H   0  0  0  0  0  0  0  0  0  0  0  0
    3.6646   -4.1570    2.3979 H   0  0  0  0  0  0  0  0  0  0  0  0
    2.6549   -2.7528   -0.1528 H   0  0  0  0  0  0  0  0  0  0  0  0
    2.3490   -0.9567    1.0019 H   0  0  0  0  0  0  0  0  0  0  0  0
  1  2  1  0
  1 19  1  0
  1 20  1  0
  1 21  1  0
  2 15  1  0
  2  3  2  0
  3  4  1  0
  3 22  1  0
  4 11  1  0
  4  5  1  0
  4 23  1  6
  5  6  1  0
  6  7  1  0
  6  8  1  0
  6  9  1  0
  7 24  1  0
  7 25  1  0
  7 26  1  0
  8 27  1  0
  8 28  1  0
  8 29  1  0
  9 10  1  0
 10 17  1  0
 10 11  1  0
 10 30  1  1
 11 12  1  0
 11 31  1  6
 12 14  1  1
 12 13  1  0
 12 15  1  0
 13 14  1  0
 13 32  1  0
 13 33  1  0
 15 16  1  1
 15 17  1  0
 16 34  1  0
 16 35  1  0
 16 36  1  0
 17 18  1  0
 17 37  1  6
 18 38  1  0
M  END
>  <i_m_ct_stereo_status>  (324) 
1

>  <s_m_source_file>  (324) 
/var/tmp/pbs.5076255.sched01/tmpcwktr4ti/1290j0z1rin.sdf

>  <i_m_source_file_index>  (324) 
14

>  <i_lp_mmshare_version>  (324) 
48012

>  <i_f3d_flags>  (324) 
0

>  <s_epik_input>  (324) 
TzFbQ0gyXVtDQF0xMltDQEhdM1tDSF00W0NIXT1DKFtDSDNdKVtDQF0yKFtDSDNdKVtDQEBIXShbT0hdKVtDQEBIXTNPQyhPNCkoW0NIM10pW0NIM10=

>  <s_epik_cmdline>  (324) 
J2VwaWtfcHl0aG9uJywgJy1waHQnLCAnMi4wJywgJy1waCcsICc3LjAnLCAnLXRuJywgJzgnLCAnLW1hJywgJzIwMCcsICctaW1hZScsICc8aW5maWxlLm1hZT4nLCAnLW9tYWUnLCAnPG91dGZpbGUubWFlPic=

>  <r_lp_tautomer_probability>  (324) 
1

>  <r_epik_Ionization_Penalty>  (324) 
2.52295e-07

>  <r_epik_Ionization_Penalty_Charging>  (324) 
0

>  <r_epik_Ionization_Penalty_Neutral>  (324) 
2.52295e-07

>  <r_epik_State_Penalty>  (324) 
-0

>  <r_epik_Charging_Adjusted_Penalty>  (324) 
0

>  <i_epik_Tot_Q>  (324) 
0

>  <i_epik_Tot_abs_Q>  (324) 
0

>  <s_lp_Force_Field>  (324) 
OPLS3e

>  <r_lp_Energy>  (324) 
34.5558

>  <b_lp_Chiralities_Consistent>  (324) 
1

>  <s_lp_Variant>  (324) 
93:0-1

>  <s_i_glide_gridfile>  (324) 
pfpi4k_grid

>  <i_i_glide_lignum>  (324) 
14

>  <i_i_glide_rotatable_bonds>  (324) 
1

>  <r_i_docking_score>  (324) 
-3.63234

>  <r_i_glide_ligand_efficiency>  (324) 
-0.201797

>  <r_i_glide_ligand_efficiency_sa>  (324) 
-0.528857

>  <r_i_glide_ligand_efficiency_ln>  (324) 
-0.933674

>  <r_i_glide_gscore>  (324) 
-3.63234

>  <r_i_glide_lipo>  (324) 
-0.474988

>  <r_i_glide_hbond>  (324) 
0

>  <r_i_glide_metal>  (324) 
-0

>  <r_i_glide_rewards>  (324) 
-1.76667

>  <r_i_glide_evdw>  (324) 
-24.5944

>  <r_i_glide_ecoul>  (324) 
-1.07306

>  <r_i_glide_erotb>  (324) 
0

>  <r_i_glide_esite>  (324) 
0

>  <r_i_glide_emodel>  (324) 
-30.567

>  <r_i_glide_energy>  (324) 
-25.6674

>  <r_i_glide_einternal>  (324) 
0.347491

>  <r_i_glide_intrahb_reward>  (324) 
-0

>  <i_i_glide_confnum>  (324) 
2

>  <i_i_glide_posenum>  (324) 
12

>  <r_i_glide_eff_state_penalty>  (324) 
0

>  <ligand_id>  (324) 
93

>  <original_smiles>  (324) 
CC1=CC2OC(C)(C)OC3C2C2(CO2)C1(C)C3O

>  <smiles>  (324) 
[H]OC1([H])C2([H])OC(C([H])([H])[H])(C([H])([H])[H])OC3([H])C([H])=C(C([H])([H])[H])C1(C([H])([H])[H])C1(OC1([H])[H])C32[H]

$$$$
93:0:2
     RDKit          3D

 38 41  0  0  1  0  0  0  0  0999 V2000
    3.7867   -5.4031    0.8757 C   0  0  0  0  0  0  0  0  0  0  0  0
    4.4997   -4.2885    0.1402 C   0  0  0  0  0  0  0  0  0  0  0  0
    4.8735   -4.4217   -1.1512 C   0  0  0  0  0  0  0  0  0  0  0  0
    5.5561   -3.3146   -1.9402 C   0  0  1  0  0  0  0  0  0  0  0  0
    4.8408   -2.9190   -3.1074 O   0  0  0  0  0  0  0  0  0  0  0  0
    3.6778   -2.1473   -2.9392 C   0  0  0  0  0  0  0  0  0  0  0  0
    3.4556   -1.4705   -4.2928 C   0  0  0  0  0  0  0  0  0  0  0  0
    2.4623   -3.0444   -2.6048 C   0  0  0  0  0  0  0  0  0  0  0  0
    3.8091   -1.0913   -2.0282 O   0  0  0  0  0  0  0  0  0  0  0  0
    4.5849   -1.2640   -0.8399 C   0  0  2  0  0  0  0  0  0  0  0  0
    5.8448   -2.0963   -1.0670 C   0  0  1  0  0  0  0  0  0  0  0  0
    6.1842   -2.5632    0.3160 C   0  0  1  0  0  0  0  0  0  0  0  0
    7.5316   -3.0113    0.7941 C   0  0  0  0  0  0  0  0  0  0  0  0
    7.0083   -1.6891    1.0690 O   0  0  0  0  0  0  0  0  0  0  0  0
    4.8342   -2.9889    0.8890 C   0  0  2  0  0  0  0  0  0  0  0  0
    4.8714   -3.1776    2.4298 C   0  0  0  0  0  0  0  0  0  0  0  0
    3.8631   -1.8797    0.3903 C   0  0  1  0  0  0  0  0  0  0  0  0
    3.6804   -0.8563    1.3580 O   0  0  0  0  0  0  0  0  0  0  0  0
    2.8622   -5.0312    1.3170 H   0  0  0  0  0  0  0  0  0  0  0  0
    4.4225   -5.8164    1.6598 H   0  0  0  0  0  0  0  0  0  0  0  0
    3.5405   -6.2044    0.1807 H   0  0  0  0  0  0  0  0  0  0  0  0
    4.6823   -5.3368   -1.6838 H   0  0  0  0  0  0  0  0  0  0  0  0
    6.5021   -3.7295   -2.2836 H   0  0  0  0  0  0  0  0  0  0  0  0
    4.3024   -0.8327   -4.5376 H   0  0  0  0  0  0  0  0  0  0  0  0
    2.5535   -0.8626   -4.2600 H   0  0  0  0  0  0  0  0  0  0  0  0
    3.3526   -2.2334   -5.0534 H   0  0  0  0  0  0  0  0  0  0  0  0
    2.5269   -3.5009   -1.6243 H   0  0  0  0  0  0  0  0  0  0  0  0
    2.3625   -3.8360   -3.3421 H   0  0  0  0  0  0  0  0  0  0  0  0
    1.5540   -2.4519   -2.6237 H   0  0  0  0  0  0  0  0  0  0  0  0
    4.9203   -0.2619   -0.5689 H   0  0  0  0  0  0  0  0  0  0  0  0
    6.6409   -1.5004   -1.4789 H   0  0  0  0  0  0  0  0  0  0  0  0
    7.5509   -3.6981    1.6358 H   0  0  0  0  0  0  0  0  0  0  0  0
    8.3956   -3.0287    0.1353 H   0  0  0  0  0  0  0  0  0  0  0  0
    5.2386   -2.2821    2.9283 H   0  0  0  0  0  0  0  0  0  0  0  0
    5.5285   -3.9932    2.7207 H   0  0  0  0  0  0  0  0  0  0  0  0
    3.8812   -3.3920    2.8269 H   0  0  0  0  0  0  0  0  0  0  0  0
    2.8807   -2.2770    0.1421 H   0  0  0  0  0  0  0  0  0  0  0  0
    4.4963   -0.4130    1.4757 H   0  0  0  0  0  0  0  0  0  0  0  0
  1  2  1  0
  1 19  1  0
  1 20  1  0
  1 21  1  0
  2 15  1  0
  2  3  2  0
  3  4  1  0
  3 22  1  0
  4 11  1  0
  4  5  1  0
  4 23  1  6
  5  6  1  0
  6  7  1  0
  6  8  1  0
  6  9  1  0
  7 24  1  0
  7 25  1  0
  7 26  1  0
  8 27  1  0
  8 28  1  0
  8 29  1  0
  9 10  1  0
 10 17  1  0
 10 11  1  0
 10 30  1  1
 11 12  1  0
 11 31  1  6
 12 14  1  1
 12 13  1  0
 12 15  1  0
 13 14  1  0
 13 32  1  0
 13 33  1  0
 15 16  1  1
 15 17  1  0
 16 34  1  0
 16 35  1  0
 16 36  1  0
 17 18  1  0
 17 37  1  6
 18 38  1  0
M  END
>  <i_m_ct_stereo_status>  (325) 
1

>  <s_m_source_file>  (325) 
/var/tmp/pbs.5076255.sched01/tmpcwktr4ti/1290j0z1rin.sdf

>  <i_m_source_file_index>  (325) 
14

>  <i_lp_mmshare_version>  (325) 
48012

>  <i_f3d_flags>  (325) 
0

>  <s_epik_input>  (325) 
TzFbQ0gyXVtDQF0xMltDQEhdM1tDSF00W0NIXT1DKFtDSDNdKVtDQF0yKFtDSDNdKVtDQEBIXShbT0hdKVtDQEBIXTNPQyhPNCkoW0NIM10pW0NIM10=

>  <s_epik_cmdline>  (325) 
J2VwaWtfcHl0aG9uJywgJy1waHQnLCAnMi4wJywgJy1waCcsICc3LjAnLCAnLXRuJywgJzgnLCAnLW1hJywgJzIwMCcsICctaW1hZScsICc8aW5maWxlLm1hZT4nLCAnLW9tYWUnLCAnPG91dGZpbGUubWFlPic=

>  <r_lp_tautomer_probability>  (325) 
1

>  <r_epik_Ionization_Penalty>  (325) 
2.52295e-07

>  <r_epik_Ionization_Penalty_Charging>  (325) 
0

>  <r_epik_Ionization_Penalty_Neutral>  (325) 
2.52295e-07

>  <r_epik_State_Penalty>  (325) 
-0

>  <r_epik_Charging_Adjusted_Penalty>  (325) 
0

>  <i_epik_Tot_Q>  (325) 
0

>  <i_epik_Tot_abs_Q>  (325) 
0

>  <s_lp_Force_Field>  (325) 
OPLS3e

>  <r_lp_Energy>  (325) 
34.5558

>  <b_lp_Chiralities_Consistent>  (325) 
1

>  <s_lp_Variant>  (325) 
93:0-1

>  <s_i_glide_gridfile>  (325) 
pfpi4k_grid

>  <i_i_glide_lignum>  (325) 
14

>  <i_i_glide_rotatable_bonds>  (325) 
1

>  <r_i_docking_score>  (325) 
-3.30076

>  <r_i_glide_ligand_efficiency>  (325) 
-0.183376

>  <r_i_glide_ligand_efficiency_sa>  (325) 
-0.480581

>  <r_i_glide_ligand_efficiency_ln>  (325) 
-0.848445

>  <r_i_glide_gscore>  (325) 
-3.30076

>  <r_i_glide_lipo>  (325) 
-0.476579

>  <r_i_glide_hbond>  (325) 
0

>  <r_i_glide_metal>  (325) 
-0

>  <r_i_glide_rewards>  (325) 
-1.76

>  <r_i_glide_evdw>  (325) 
-23.0697

>  <r_i_glide_ecoul>  (325) 
0.595305

>  <r_i_glide_erotb>  (325) 
0

>  <r_i_glide_esite>  (325) 
0

>  <r_i_glide_emodel>  (325) 
-27.0416

>  <r_i_glide_energy>  (325) 
-22.4744

>  <r_i_glide_einternal>  (325) 
0.0446512

>  <r_i_glide_intrahb_reward>  (325) 
-0

>  <i_i_glide_confnum>  (325) 
2

>  <i_i_glide_posenum>  (325) 
13

>  <r_i_glide_eff_state_penalty>  (325) 
0

>  <ligand_id>  (325) 
93

>  <original_smiles>  (325) 
CC1=CC2OC(C)(C)OC3C2C2(CO2)C1(C)C3O

>  <smiles>  (325) 
[H]OC1([H])C2([H])OC(C([H])([H])[H])(C([H])([H])[H])OC3([H])C([H])=C(C([H])([H])[H])C1(C([H])([H])[H])C1(OC1([H])[H])C32[H]

$$$$
96:0:0
     RDKit          3D

 71 77  0  0  1  0  0  0  0  0999 V2000
    6.9927   -8.3415    1.6357 C   0  0  0  0  0  0  0  0  0  0  0  0
    5.7859   -7.6838    1.2991 O   0  0  0  0  0  0  0  0  0  0  0  0
    5.7702   -6.3397    1.2471 C   0  0  0  0  0  0  0  0  0  0  0  0
    6.7652   -5.6316    1.3253 O   0  0  0  0  0  0  0  0  0  0  0  0
    4.3411   -5.7524    1.0525 C   0  0  2  0  0  0  0  0  0  0  0  0
    4.3720   -4.2305    0.8373 C   0  0  0  0  0  0  0  0  0  0  0  0
    4.7755   -3.4875    2.1362 C   0  0  1  0  0  0  0  0  0  0  0  0
    5.0540   -2.1083    1.9551 O   0  0  0  0  0  0  0  0  0  0  0  0
    6.0148   -1.6580    1.1457 C   0  0  0  0  0  0  0  0  0  0  0  0
    5.8495   -0.1771    0.8776 C   0  0  0  0  0  0  0  0  0  0  0  0
    6.9253   -2.3139    0.6443 O   0  0  0  0  0  0  0  0  0  0  0  0
    3.7695   -3.6943    3.3248 C   0  0  2  0  0  0  0  0  0  0  0  0
    4.7203   -3.5893    4.5838 C   0  0  0  0  0  0  0  0  0  0  0  0
    4.2196   -4.1171    5.7079 F   0  0  0  0  0  0  0  0  0  0  0  0
    3.2127   -5.1773    3.3817 C   0  0  1  0  0  0  0  0  0  0  0  0
    1.7140   -5.0428    3.7403 C   0  0  2  0  0  0  0  0  0  0  0  0
    1.0405   -5.4604    2.5630 O   0  0  0  0  0  0  0  0  0  0  0  0
    1.8242   -5.9404    1.6145 C   0  0  0  0  0  0  0  0  0  0  0  0
    1.4418   -6.2204    0.4781 O   0  0  0  0  0  0  0  0  0  0  0  0
    3.2504   -6.1158    2.1330 C   0  0  1  0  0  0  0  0  0  0  0  0
    3.2962   -7.6053    2.5763 C   0  0  0  0  0  0  0  0  0  0  0  0
    1.3781   -3.5451    3.9647 C   0  0  1  0  0  0  0  0  0  0  0  0
    1.3375   -3.1542    5.4827 C   0  0  2  0  0  0  0  0  0  0  0  0
    0.0687   -2.6877    5.9287 O   0  0  0  0  0  0  0  0  0  0  0  0
   -0.5330   -1.5070    5.4736 C   0  0  0  0  0  0  0  0  0  0  0  0
   -1.6966   -1.2550    5.7272 O   0  0  0  0  0  0  0  0  0  0  0  0
    0.2905   -0.5889    4.5065 C   0  0  1  0  0  0  0  0  0  0  0  0
   -0.3916    0.7448    4.1178 C   0  0  0  0  0  0  0  0  0  0  0  0
   -0.5508    1.2874    2.7800 C   0  0  0  0  0  0  0  0  0  0  0  0
   -1.2455    2.4544    2.9100 C   0  0  0  0  0  0  0  0  0  0  0  0
   -1.5457    2.6967    4.2055 O   0  0  0  0  0  0  0  0  0  0  0  0
   -1.0130    1.6548    4.9138 C   0  0  0  0  0  0  0  0  0  0  0  0
    1.7707   -0.4019    4.9229 C   0  0  2  0  0  0  0  0  0  0  0  0
    1.8655    0.2168    6.3239 C   0  0  0  0  0  0  0  0  0  0  0  0
    3.0715   -0.2011    4.1710 C   0  0  0  0  0  0  0  0  0  0  0  0
    2.6292   -1.6083    4.4584 C   0  0  1  0  0  0  0  0  0  0  0  0
    2.4183   -2.2834    5.6974 O   0  0  0  0  0  0  0  0  0  0  0  0
    2.4999   -2.6937    3.3744 C   0  0  1  0  0  0  0  0  0  0  0  0
    2.1179   -2.1308    1.9400 C   0  0  0  0  0  0  0  0  0  0  0  0
    1.1494   -1.1433    1.7890 O   0  0  0  0  0  0  0  0  0  0  0  0
    6.7839   -9.4074    1.6990 H   0  0  0  0  0  0  0  0  0  0  0  0
    7.3802   -8.0181    2.6064 H   0  0  0  0  0  0  0  0  0  0  0  0
    7.7594   -8.1764    0.8758 H   0  0  0  0  0  0  0  0  0  0  0  0
    4.0223   -6.1804    0.1055 H   0  0  0  0  0  0  0  0  0  0  0  0
    5.0680   -4.0053    0.0403 H   0  0  0  0  0  0  0  0  0  0  0  0
    3.4292   -3.8893    0.4271 H   0  0  0  0  0  0  0  0  0  0  0  0
    5.7351   -3.8846    2.4506 H   0  0  0  0  0  0  0  0  0  0  0  0
    4.8566    0.0250    0.4786 H   0  0  0  0  0  0  0  0  0  0  0  0
    6.5935    0.1605    0.1535 H   0  0  0  0  0  0  0  0  0  0  0  0
    5.9620    0.3699    1.8130 H   0  0  0  0  0  0  0  0  0  0  0  0
    5.6546   -4.1444    4.4532 H   0  0  0  0  0  0  0  0  0  0  0  0
    5.0295   -2.5659    4.7889 H   0  0  0  0  0  0  0  0  0  0  0  0
    3.6992   -5.7552    4.1748 H   0  0  0  0  0  0  0  0  0  0  0  0
    1.4137   -5.6967    4.5612 H   0  0  0  0  0  0  0  0  0  0  0  0
    4.1399   -7.7866    3.2390 H   0  0  0  0  0  0  0  0  0  0  0  0
    3.3955   -8.2736    1.7199 H   0  0  0  0  0  0  0  0  0  0  0  0
    2.4053   -7.9403    3.1096 H   0  0  0  0  0  0  0  0  0  0  0  0
    0.4034   -3.3271    3.5381 H   0  0  0  0  0  0  0  0  0  0  0  0
    1.5813   -4.0119    6.0964 H   0  0  0  0  0  0  0  0  0  0  0  0
    0.1962   -1.2484    3.6629 H   0  0  0  0  0  0  0  0  0  0  0  0
   -0.2295    0.9170    1.8382 H   0  0  0  0  0  0  0  0  0  0  0  0
   -1.5742    3.1987    2.2008 H   0  0  0  0  0  0  0  0  0  0  0  0
   -1.1891    1.7170    5.9798 H   0  0  0  0  0  0  0  0  0  0  0  0
    2.9002    0.3032    6.6726 H   0  0  0  0  0  0  0  0  0  0  0  0
    1.3349   -0.3771    7.0731 H   0  0  0  0  0  0  0  0  0  0  0  0
    1.4252    1.2143    6.3108 H   0  0  0  0  0  0  0  0  0  0  0  0
    3.0356    0.1314    3.1340 H   0  0  0  0  0  0  0  0  0  0  0  0
    3.9659    0.1045    4.7097 H   0  0  0  0  0  0  0  0  0  0  0  0
    2.9355   -1.6215    1.4458 H   0  0  0  0  0  0  0  0  0  0  0  0
    1.8159   -2.9468    1.2838 H   0  0  0  0  0  0  0  0  0  0  0  0
    1.1215   -0.9711    0.8596 H   0  0  0  0  0  0  0  0  0  0  0  0
  1  2  1  0
  1 41  1  0
  1 42  1  0
  1 43  1  0
  2  3  1  0
  3  4  2  0
  3  5  1  0
  5 20  1  0
  5  6  1  0
  5 44  1  6
  6  7  1  0
  6 45  1  0
  6 46  1  0
  7  8  1  0
  7 12  1  0
  7 47  1  1
  8  9  1  0
  9 10  1  0
  9 11  2  0
 10 48  1  0
 10 49  1  0
 10 50  1  0
 12 38  1  0
 12 13  1  1
 12 15  1  0
 13 14  1  0
 13 51  1  0
 13 52  1  0
 15 20  1  0
 15 16  1  0
 15 53  1  1
 16 17  1  0
 16 22  1  0
 16 54  1  1
 17 18  1  0
 18 19  2  0
 18 20  1  0
 20 21  1  1
 21 55  1  0
 21 56  1  0
 21 57  1  0
 22 38  1  0
 22 23  1  0
 22 58  1  6
 23 37  1  0
 23 24  1  0
 23 59  1  1
 24 25  1  0
 25 26  2  0
 25 27  1  0
 27 28  1  0
 27 33  1  0
 27 60  1  6
 28 32  2  0
 28 29  1  0
 29 30  2  0
 29 61  1  0
 30 31  1  0
 30 62  1  0
 31 32  1  0
 32 63  1  0
 33 36  1  0
 33 34  1  1
 33 35  1  0
 34 64  1  0
 34 65  1  0
 34 66  1  0
 36 35  1  1
 35 67  1  0
 35 68  1  0
 36 37  1  0
 36 38  1  0
 38 39  1  6
 39 40  1  0
 39 69  1  0
 39 70  1  0
 40 71  1  0
M  END
>  <i_m_ct_stereo_status>  (326) 
1

>  <s_m_source_file>  (326) 
/var/tmp/pbs.5076255.sched01/tmpcwktr4ti/1290j0z1rin.sdf

>  <i_m_source_file_index>  (326) 
18

>  <i_lp_mmshare_version>  (326) 
48012

>  <i_f3d_flags>  (326) 
0

>  <s_epik_input>  (326) 
W0NIM11PQyg9TylbQ0BASF0oW0NAQF0xKEMoTzIpPU8pW0NIM10pW0NIMl1bQ0BASF0oT0MoPU8pW0NIM10pW0NAQF0oW0NIMl1GKShbQ0BAXTM0W0NIMl1bT0hdKVtDQEhdMVtDQEhdMltDQEhdM1tDQEBIXShPNSlPQyg9TylbQ0BIXShbQ0BdKFtDQF00NTYpKFtDSDNdKVtDSDJdNiljN1tjSF1bY0hdb1tjSF03

>  <s_epik_cmdline>  (326) 
J2VwaWtfcHl0aG9uJywgJy1waHQnLCAnMi4wJywgJy1waCcsICc3LjAnLCAnLXRuJywgJzgnLCAnLW1hJywgJzIwMCcsICctaW1hZScsICc8aW5maWxlLm1hZT4nLCAnLW9tYWUnLCAnPG91dGZpbGUubWFlPic=

>  <r_lp_tautomer_probability>  (326) 
1

>  <r_epik_Ionization_Penalty>  (326) 
8.35059e-08

>  <r_epik_Ionization_Penalty_Charging>  (326) 
0

>  <r_epik_Ionization_Penalty_Neutral>  (326) 
8.35059e-08

>  <r_epik_State_Penalty>  (326) 
-0

>  <r_epik_Charging_Adjusted_Penalty>  (326) 
0

>  <i_epik_Tot_Q>  (326) 
0

>  <i_epik_Tot_abs_Q>  (326) 
0

>  <s_epik_Chemistry_Notes>  (326) 
This compound has an ester and may undergo hydrolysis at high or low pH. This compound contains an acetal/aminal-like group ( X-CH(R)-Y where X, Y are N, S, or O) that may be acid/base labile, releasing an aldehyde.

>  <s_lp_Force_Field>  (326) 
OPLS3e

>  <r_lp_Energy>  (326) 
83.319

>  <b_lp_Chiralities_Consistent>  (326) 
1

>  <s_lp_Variant>  (326) 
96:0-1

>  <s_i_glide_gridfile>  (326) 
pfpi4k_grid

>  <i_i_glide_lignum>  (326) 
18

>  <i_i_glide_rotatable_bonds>  (326) 
8

>  <r_i_docking_score>  (326) 
-3.50099

>  <r_i_glide_ligand_efficiency>  (326) 
-0.0875248

>  <r_i_glide_ligand_efficiency_sa>  (326) 
-0.299331

>  <r_i_glide_ligand_efficiency_ln>  (326) 
-0.746659

>  <r_i_glide_gscore>  (326) 
-3.50099

>  <r_i_glide_lipo>  (326) 
-0.396814

>  <r_i_glide_hbond>  (326) 
-0.293498

>  <r_i_glide_metal>  (326) 
-0

>  <r_i_glide_rewards>  (326) 
-0.338911

>  <r_i_glide_evdw>  (326) 
-28.009

>  <r_i_glide_ecoul>  (326) 
-7.83433

>  <r_i_glide_erotb>  (326) 
0.180725

>  <r_i_glide_esite>  (326) 
-0.076894

>  <r_i_glide_emodel>  (326) 
-37.8413

>  <r_i_glide_energy>  (326) 
-35.8434

>  <r_i_glide_einternal>  (326) 
11.559

>  <r_i_glide_intrahb_reward>  (326) 
-0

>  <i_i_glide_confnum>  (326) 
3

>  <i_i_glide_posenum>  (326) 
26

>  <r_i_glide_eff_state_penalty>  (326) 
0

>  <ligand_id>  (326) 
96

>  <original_smiles>  (326) 
COC(=O)C1CC(OC(C)=O)C2(CF)C3C(OC(=O)C13C)C1C3OC(=O)C(c4ccoc4)C4(C)CC4(O3)C12CO

>  <smiles>  (326) 
[H]OC([H])([H])C12C([H])(C3([H])OC(=O)C([H])(c4c([H])oc([H])c4[H])C4(C([H])([H])[H])C([H])([H])C41O3)C1([H])OC(=O)C3(C([H])([H])[H])C([H])(C(=O)OC([H])([H])[H])C([H])([H])C([H])(OC(=O)C([H])([H])[H])C2(C([H])([H])F)C13[H]

$$$$
96:0:1
     RDKit          3D

 71 77  0  0  1  0  0  0  0  0999 V2000
   -1.1298    2.3618    9.1477 C   0  0  0  0  0  0  0  0  0  0  0  0
   -0.8959    2.3744    7.7473 O   0  0  0  0  0  0  0  0  0  0  0  0
   -0.5849    1.2183    7.1577 C   0  0  0  0  0  0  0  0  0  0  0  0
   -0.5343    0.1514    7.7622 O   0  0  0  0  0  0  0  0  0  0  0  0
   -0.2815    1.3118    5.6413 C   0  0  2  0  0  0  0  0  0  0  0  0
   -0.5199   -0.0382    4.9016 C   0  0  0  0  0  0  0  0  0  0  0  0
    0.6265   -1.0390    5.2021 C   0  0  1  0  0  0  0  0  0  0  0  0
    0.3880   -2.3629    4.7385 O   0  0  0  0  0  0  0  0  0  0  0  0
   -0.1721   -3.2801    5.5350 C   0  0  0  0  0  0  0  0  0  0  0  0
    0.1005   -4.7048    5.0750 C   0  0  0  0  0  0  0  0  0  0  0  0
   -0.8563   -3.0407    6.5367 O   0  0  0  0  0  0  0  0  0  0  0  0
    2.0698   -0.5590    4.8652 C   0  0  2  0  0  0  0  0  0  0  0  0
    2.9311   -1.2449    5.9957 C   0  0  0  0  0  0  0  0  0  0  0  0
    2.9093   -2.5792    5.9462 F   0  0  0  0  0  0  0  0  0  0  0  0
    2.3032    0.9715    5.1542 C   0  0  1  0  0  0  0  0  0  0  0  0
    3.1578    1.4992    3.9878 C   0  0  2  0  0  0  0  0  0  0  0  0
    2.2634    2.3792    3.3053 O   0  0  0  0  0  0  0  0  0  0  0  0
    1.0881    2.5609    3.8877 C   0  0  0  0  0  0  0  0  0  0  0  0
    0.1285    3.1839    3.4509 O   0  0  0  0  0  0  0  0  0  0  0  0
    1.1045    1.9532    5.2623 C   0  0  1  0  0  0  0  0  0  0  0  0
    1.4617    3.1609    6.1719 C   0  0  0  0  0  0  0  0  0  0  0  0
    3.5191    0.3118    3.0577 C   0  0  1  0  0  0  0  0  0  0  0  0
    4.9437   -0.2771    3.3241 C   0  0  2  0  0  0  0  0  0  0  0  0
    5.8085   -0.2522    2.1916 O   0  0  0  0  0  0  0  0  0  0  0  0
    5.5497   -0.9048    1.0016 C   0  0  0  0  0  0  0  0  0  0  0  0
    6.2525   -0.7030    0.0149 O   0  0  0  0  0  0  0  0  0  0  0  0
    4.3870   -1.9025    0.9283 C   0  0  1  0  0  0  0  0  0  0  0  0
    4.3329   -2.6764   -0.3695 C   0  0  0  0  0  0  0  0  0  0  0  0
    5.2527   -3.6351   -0.8890 C   0  0  0  0  0  0  0  0  0  0  0  0
    4.7463   -4.0151   -2.0944 C   0  0  0  0  0  0  0  0  0  0  0  0
    3.6117   -3.3540   -2.3894 O   0  0  0  0  0  0  0  0  0  0  0  0
    3.3784   -2.5495   -1.3388 C   0  0  0  0  0  0  0  0  0  0  0  0
    4.3082   -2.7754    2.1838 C   0  0  2  0  0  0  0  0  0  0  0  0
    5.6081   -3.5623    2.4179 C   0  0  0  0  0  0  0  0  0  0  0  0
    3.1534   -3.4152    2.9151 C   0  0  0  0  0  0  0  0  0  0  0  0
    3.5740   -2.0257    3.3194 C   0  0  1  0  0  0  0  0  0  0  0  0
    4.7689   -1.5465    3.8829 O   0  0  0  0  0  0  0  0  0  0  0  0
    2.5871   -0.8510    3.3700 C   0  0  1  0  0  0  0  0  0  0  0  0
    1.4570   -0.9782    2.2876 C   0  0  0  0  0  0  0  0  0  0  0  0
    0.8637    0.2361    1.8874 O   0  0  0  0  0  0  0  0  0  0  0  0
   -1.2835    3.3804    9.5049 H   0  0  0  0  0  0  0  0  0  0  0  0
   -0.2774    1.9229    9.6734 H   0  0  0  0  0  0  0  0  0  0  0  0
   -2.0092    1.7553    9.3744 H   0  0  0  0  0  0  0  0  0  0  0  0
   -1.0647    1.9790    5.2824 H   0  0  0  0  0  0  0  0  0  0  0  0
   -1.4685   -0.4787    5.2393 H   0  0  0  0  0  0  0  0  0  0  0  0
   -0.6485    0.1688    3.8180 H   0  0  0  0  0  0  0  0  0  0  0  0
    0.6512   -1.1511    6.2782 H   0  0  0  0  0  0  0  0  0  0  0  0
   -0.1869   -4.8255    4.0309 H   0  0  0  0  0  0  0  0  0  0  0  0
   -0.4398   -5.4434    5.6755 H   0  0  0  0  0  0  0  0  0  0  0  0
    1.1704   -4.9107    5.1481 H   0  0  0  0  0  0  0  0  0  0  0  0
    3.9762   -0.9267    6.0361 H   0  0  0  0  0  0  0  0  0  0  0  0
    2.5534   -0.9924    6.9920 H   0  0  0  0  0  0  0  0  0  0  0  0
    2.8741    1.0884    6.0818 H   0  0  0  0  0  0  0  0  0  0  0  0
    4.0441    2.0566    4.3172 H   0  0  0  0  0  0  0  0  0  0  0  0
    1.7607    2.8291    7.1698 H   0  0  0  0  0  0  0  0  0  0  0  0
    0.6083    3.8366    6.2806 H   0  0  0  0  0  0  0  0  0  0  0  0
    2.2731    3.7726    5.7691 H   0  0  0  0  0  0  0  0  0  0  0  0
    3.4590    0.6340    2.0178 H   0  0  0  0  0  0  0  0  0  0  0  0
    5.4407    0.2829    4.1157 H   0  0  0  0  0  0  0  0  0  0  0  0
    3.5657   -1.1990    0.8921 H   0  0  0  0  0  0  0  0  0  0  0  0
    6.1627   -4.0492   -0.4778 H   0  0  0  0  0  0  0  0  0  0  0  0
    5.0143   -4.7649   -2.8192 H   0  0  0  0  0  0  0  0  0  0  0  0
    2.4957   -1.9520   -1.4801 H   0  0  0  0  0  0  0  0  0  0  0  0
    5.5833   -4.1048    3.3613 H   0  0  0  0  0  0  0  0  0  0  0  0
    6.4699   -2.8989    2.4449 H   0  0  0  0  0  0  0  0  0  0  0  0
    5.7502   -4.2929    1.6281 H   0  0  0  0  0  0  0  0  0  0  0  0
    2.2218   -3.5557    2.3621 H   0  0  0  0  0  0  0  0  0  0  0  0
    3.3695   -4.1936    3.6509 H   0  0  0  0  0  0  0  0  0  0  0  0
    1.7723   -1.3862    1.3391 H   0  0  0  0  0  0  0  0  0  0  0  0
    0.6731   -1.6696    2.5520 H   0  0  0  0  0  0  0  0  0  0  0  0
    0.5254    0.1302    0.9988 H   0  0  0  0  0  0  0  0  0  0  0  0
  1  2  1  0
  1 41  1  0
  1 42  1  0
  1 43  1  0
  2  3  1  0
  3  4  2  0
  3  5  1  0
  5 20  1  0
  5  6  1  0
  5 44  1  6
  6  7  1  0
  6 45  1  0
  6 46  1  0
  7  8  1  0
  7 12  1  0
  7 47  1  1
  8  9  1  0
  9 10  1  0
  9 11  2  0
 10 48  1  0
 10 49  1  0
 10 50  1  0
 12 38  1  0
 12 13  1  1
 12 15  1  0
 13 14  1  0
 13 51  1  0
 13 52  1  0
 15 20  1  0
 15 16  1  0
 15 53  1  1
 16 17  1  0
 16 22  1  0
 16 54  1  1
 17 18  1  0
 18 19  2  0
 18 20  1  0
 20 21  1  1
 21 55  1  0
 21 56  1  0
 21 57  1  0
 22 38  1  0
 22 23  1  0
 22 58  1  6
 23 37  1  0
 23 24  1  0
 23 59  1  1
 24 25  1  0
 25 26  2  0
 25 27  1  0
 27 28  1  0
 27 33  1  0
 27 60  1  6
 28 32  2  0
 28 29  1  0
 29 30  2  0
 29 61  1  0
 30 31  1  0
 30 62  1  0
 31 32  1  0
 32 63  1  0
 33 36  1  0
 33 34  1  1
 33 35  1  0
 34 64  1  0
 34 65  1  0
 34 66  1  0
 36 35  1  1
 35 67  1  0
 35 68  1  0
 36 37  1  0
 36 38  1  0
 38 39  1  6
 39 40  1  0
 39 69  1  0
 39 70  1  0
 40 71  1  0
M  END
>  <i_m_ct_stereo_status>  (327) 
1

>  <s_m_source_file>  (327) 
/var/tmp/pbs.5076255.sched01/tmpcwktr4ti/1290j0z1rin.sdf

>  <i_m_source_file_index>  (327) 
18

>  <i_lp_mmshare_version>  (327) 
48012

>  <i_f3d_flags>  (327) 
0

>  <s_epik_input>  (327) 
W0NIM11PQyg9TylbQ0BASF0oW0NAQF0xKEMoTzIpPU8pW0NIM10pW0NIMl1bQ0BASF0oT0MoPU8pW0NIM10pW0NAQF0oW0NIMl1GKShbQ0BAXTM0W0NIMl1bT0hdKVtDQEhdMVtDQEhdMltDQEhdM1tDQEBIXShPNSlPQyg9TylbQ0BIXShbQ0BdKFtDQF00NTYpKFtDSDNdKVtDSDJdNiljN1tjSF1bY0hdb1tjSF03

>  <s_epik_cmdline>  (327) 
J2VwaWtfcHl0aG9uJywgJy1waHQnLCAnMi4wJywgJy1waCcsICc3LjAnLCAnLXRuJywgJzgnLCAnLW1hJywgJzIwMCcsICctaW1hZScsICc8aW5maWxlLm1hZT4nLCAnLW9tYWUnLCAnPG91dGZpbGUubWFlPic=

>  <r_lp_tautomer_probability>  (327) 
1

>  <r_epik_Ionization_Penalty>  (327) 
8.35059e-08

>  <r_epik_Ionization_Penalty_Charging>  (327) 
0

>  <r_epik_Ionization_Penalty_Neutral>  (327) 
8.35059e-08

>  <r_epik_State_Penalty>  (327) 
-0

>  <r_epik_Charging_Adjusted_Penalty>  (327) 
0

>  <i_epik_Tot_Q>  (327) 
0

>  <i_epik_Tot_abs_Q>  (327) 
0

>  <s_epik_Chemistry_Notes>  (327) 
This compound has an ester and may undergo hydrolysis at high or low pH. This compound contains an acetal/aminal-like group ( X-CH(R)-Y where X, Y are N, S, or O) that may be acid/base labile, releasing an aldehyde.

>  <s_lp_Force_Field>  (327) 
OPLS3e

>  <r_lp_Energy>  (327) 
83.319

>  <b_lp_Chiralities_Consistent>  (327) 
1

>  <s_lp_Variant>  (327) 
96:0-1

>  <s_i_glide_gridfile>  (327) 
pfpi4k_grid

>  <i_i_glide_lignum>  (327) 
18

>  <i_i_glide_rotatable_bonds>  (327) 
8

>  <r_i_docking_score>  (327) 
-2.79444

>  <r_i_glide_ligand_efficiency>  (327) 
-0.0698611

>  <r_i_glide_ligand_efficiency_sa>  (327) 
-0.238922

>  <r_i_glide_ligand_efficiency_ln>  (327) 
-0.595972

>  <r_i_glide_gscore>  (327) 
-2.79444

>  <r_i_glide_lipo>  (327) 
-0.0941406

>  <r_i_glide_hbond>  (327) 
-0.33339

>  <r_i_glide_metal>  (327) 
-0

>  <r_i_glide_rewards>  (327) 
-0.32725

>  <r_i_glide_evdw>  (327) 
-24.6568

>  <r_i_glide_ecoul>  (327) 
-6.12104

>  <r_i_glide_erotb>  (327) 
0.180725

>  <r_i_glide_esite>  (327) 
-0.0693894

>  <r_i_glide_emodel>  (327) 
-34.1922

>  <r_i_glide_energy>  (327) 
-30.7779

>  <r_i_glide_einternal>  (327) 
5.7279

>  <r_i_glide_intrahb_reward>  (327) 
-0

>  <i_i_glide_confnum>  (327) 
5

>  <i_i_glide_posenum>  (327) 
3

>  <r_i_glide_eff_state_penalty>  (327) 
0

>  <ligand_id>  (327) 
96

>  <original_smiles>  (327) 
COC(=O)C1CC(OC(C)=O)C2(CF)C3C(OC(=O)C13C)C1C3OC(=O)C(c4ccoc4)C4(C)CC4(O3)C12CO

>  <smiles>  (327) 
[H]OC([H])([H])C12C([H])(C3([H])OC(=O)C([H])(c4c([H])oc([H])c4[H])C4(C([H])([H])[H])C([H])([H])C41O3)C1([H])OC(=O)C3(C([H])([H])[H])C([H])(C(=O)OC([H])([H])[H])C([H])([H])C([H])(OC(=O)C([H])([H])[H])C2(C([H])([H])F)C13[H]

$$$$
96:0:2
     RDKit          3D

 71 77  0  0  1  0  0  0  0  0999 V2000
    2.1352    1.9592    2.2821 C   0  0  0  0  0  0  0  0  0  0  0  0
    2.2458    0.6800    1.6812 O   0  0  0  0  0  0  0  0  0  0  0  0
    3.2548   -0.1374    2.0184 C   0  0  0  0  0  0  0  0  0  0  0  0
    4.1480    0.1364    2.8239 O   0  0  0  0  0  0  0  0  0  0  0  0
    3.1523   -1.5174    1.3257 C   0  0  2  0  0  0  0  0  0  0  0  0
    2.0357   -2.3497    1.9731 C   0  0  0  0  0  0  0  0  0  0  0  0
    2.4463   -2.7414    3.4184 C   0  0  1  0  0  0  0  0  0  0  0  0
    1.3548   -3.2437    4.1953 O   0  0  0  0  0  0  0  0  0  0  0  0
    0.4400   -2.4759    4.8402 C   0  0  0  0  0  0  0  0  0  0  0  0
    0.4459   -0.9785    4.5346 C   0  0  0  0  0  0  0  0  0  0  0  0
   -0.4008   -2.9458    5.6145 O   0  0  0  0  0  0  0  0  0  0  0  0
    3.7058   -3.6612    3.5068 C   0  0  2  0  0  0  0  0  0  0  0  0
    4.3425   -3.2661    4.8981 C   0  0  0  0  0  0  0  0  0  0  0  0
    3.5763   -3.5680    5.9497 F   0  0  0  0  0  0  0  0  0  0  0  0
    4.8198   -3.2305    2.4747 C   0  0  1  0  0  0  0  0  0  0  0  0
    5.3941   -4.5460    1.9071 C   0  0  2  0  0  0  0  0  0  0  0  0
    4.9243   -4.5626    0.5687 O   0  0  0  0  0  0  0  0  0  0  0  0
    4.3463   -3.4446    0.1490 C   0  0  0  0  0  0  0  0  0  0  0  0
    3.8222   -3.2625   -0.9416 O   0  0  0  0  0  0  0  0  0  0  0  0
    4.4650   -2.3669    1.2233 C   0  0  1  0  0  0  0  0  0  0  0  0
    5.6700   -1.5042    0.7694 C   0  0  0  0  0  0  0  0  0  0  0  0
    4.7369   -5.7386    2.6300 C   0  0  1  0  0  0  0  0  0  0  0  0
    5.6258   -6.3100    3.7790 C   0  0  2  0  0  0  0  0  0  0  0  0
    5.9741   -7.6729    3.5776 O   0  0  0  0  0  0  0  0  0  0  0  0
    5.0532   -8.7173    3.5365 C   0  0  0  0  0  0  0  0  0  0  0  0
    5.4195   -9.8500    3.2130 O   0  0  0  0  0  0  0  0  0  0  0  0
    3.5649   -8.4365    3.8790 C   0  0  1  0  0  0  0  0  0  0  0  0
    2.6289   -9.6502    3.9272 C   0  0  0  0  0  0  0  0  0  0  0  0
    1.6032   -9.9456    4.8666 C   0  0  0  0  0  0  0  0  0  0  0  0
    1.0260  -11.1336    4.4824 C   0  0  0  0  0  0  0  0  0  0  0  0
    1.5883  -11.5716    3.3331 O   0  0  0  0  0  0  0  0  0  0  0  0
    2.5578  -10.6751    3.0076 C   0  0  0  0  0  0  0  0  0  0  0  0
    3.4086   -7.5023    5.0852 C   0  0  2  0  0  0  0  0  0  0  0  0
    4.0367   -8.1184    6.3368 C   0  0  0  0  0  0  0  0  0  0  0  0
    2.3833   -6.4434    5.4568 C   0  0  0  0  0  0  0  0  0  0  0  0
    3.5848   -6.0201    4.6550 C   0  0  1  0  0  0  0  0  0  0  0  0
    4.9629   -6.0466    4.9821 O   0  0  0  0  0  0  0  0  0  0  0  0
    3.4720   -5.2562    3.3246 C   0  0  1  0  0  0  0  0  0  0  0  0
    2.1618   -5.6667    2.5133 C   0  0  0  0  0  0  0  0  0  0  0  0
    2.1577   -5.4892    1.1124 O   0  0  0  0  0  0  0  0  0  0  0  0
    1.2676    2.4848    1.8842 H   0  0  0  0  0  0  0  0  0  0  0  0
    3.0171    2.5625    2.0814 H   0  0  0  0  0  0  0  0  0  0  0  0
    2.0187    1.8751    3.3632 H   0  0  0  0  0  0  0  0  0  0  0  0
    2.8064   -1.2981    0.3130 H   0  0  0  0  0  0  0  0  0  0  0  0
    1.1202   -1.7573    1.9633 H   0  0  0  0  0  0  0  0  0  0  0  0
    1.8399   -3.1930    1.3468 H   0  0  0  0  0  0  0  0  0  0  0  0
    2.7589   -1.8342    3.9263 H   0  0  0  0  0  0  0  0  0  0  0  0
    1.4148   -0.5302    4.7751 H   0  0  0  0  0  0  0  0  0  0  0  0
   -0.3197   -0.4568    5.1038 H   0  0  0  0  0  0  0  0  0  0  0  0
    0.2286   -0.8110    3.4886 H   0  0  0  0  0  0  0  0  0  0  0  0
    5.3367   -3.6791    5.0814 H   0  0  0  0  0  0  0  0  0  0  0  0
    4.4994   -2.1856    4.9768 H   0  0  0  0  0  0  0  0  0  0  0  0
    5.6201   -2.7020    2.9988 H   0  0  0  0  0  0  0  0  0  0  0  0
    6.4840   -4.5697    1.9249 H   0  0  0  0  0  0  0  0  0  0  0  0
    6.0666   -0.8919    1.5795 H   0  0  0  0  0  0  0  0  0  0  0  0
    5.3811   -0.8278   -0.0418 H   0  0  0  0  0  0  0  0  0  0  0  0
    6.5043   -2.1116    0.4043 H   0  0  0  0  0  0  0  0  0  0  0  0
    4.5453   -6.5415    1.9194 H   0  0  0  0  0  0  0  0  0  0  0  0
    6.5660   -5.7661    3.8629 H   0  0  0  0  0  0  0  0  0  0  0  0
    3.2651   -7.9505    2.9816 H   0  0  0  0  0  0  0  0  0  0  0  0
    1.2969   -9.3926    5.7408 H   0  0  0  0  0  0  0  0  0  0  0  0
    0.2564  -11.7577    4.8912 H   0  0  0  0  0  0  0  0  0  0  0  0
    3.0800  -10.9225    2.1080 H   0  0  0  0  0  0  0  0  0  0  0  0
    3.9632   -7.4457    7.1964 H   0  0  0  0  0  0  0  0  0  0  0  0
    5.0970   -8.3326    6.1983 H   0  0  0  0  0  0  0  0  0  0  0  0
    3.5353   -9.0482    6.5940 H   0  0  0  0  0  0  0  0  0  0  0  0
    1.4087   -6.4750    4.9677 H   0  0  0  0  0  0  0  0  0  0  0  0
    2.3506   -6.0765    6.4800 H   0  0  0  0  0  0  0  0  0  0  0  0
    1.9304   -6.7158    2.5944 H   0  0  0  0  0  0  0  0  0  0  0  0
    1.2754   -5.2264    2.9578 H   0  0  0  0  0  0  0  0  0  0  0  0
    3.0088   -5.6096    0.7822 H   0  0  0  0  0  0  0  0  0  0  0  0
  1  2  1  0
  1 41  1  0
  1 42  1  0
  1 43  1  0
  2  3  1  0
  3  4  2  0
  3  5  1  0
  5 20  1  0
  5  6  1  0
  5 44  1  6
  6  7  1  0
  6 45  1  0
  6 46  1  0
  7  8  1  0
  7 12  1  0
  7 47  1  1
  8  9  1  0
  9 10  1  0
  9 11  2  0
 10 48  1  0
 10 49  1  0
 10 50  1  0
 12 38  1  0
 12 13  1  1
 12 15  1  0
 13 14  1  0
 13 51  1  0
 13 52  1  0
 15 20  1  0
 15 16  1  0
 15 53  1  1
 16 17  1  0
 16 22  1  0
 16 54  1  6
 17 18  1  0
 18 19  2  0
 18 20  1  0
 20 21  1  6
 21 55  1  0
 21 56  1  0
 21 57  1  0
 22 38  1  0
 22 23  1  0
 22 58  1  6
 23 37  1  0
 23 24  1  0
 23 59  1  1
 24 25  1  0
 25 26  2  0
 25 27  1  0
 27 28  1  0
 27 33  1  0
 27 60  1  6
 28 32  2  0
 28 29  1  0
 29 30  2  0
 29 61  1  0
 30 31  1  0
 30 62  1  0
 31 32  1  0
 32 63  1  0
 33 36  1  0
 33 34  1  1
 33 35  1  0
 34 64  1  0
 34 65  1  0
 34 66  1  0
 36 35  1  1
 35 67  1  0
 35 68  1  0
 36 37  1  0
 36 38  1  0
 38 39  1  6
 39 40  1  0
 39 69  1  0
 39 70  1  0
 40 71  1  0
M  END
>  <i_m_ct_stereo_status>  (328) 
1

>  <s_m_source_file>  (328) 
/var/tmp/pbs.5076255.sched01/tmpcwktr4ti/1290j0z1rin.sdf

>  <i_m_source_file_index>  (328) 
18

>  <i_lp_mmshare_version>  (328) 
48012

>  <i_f3d_flags>  (328) 
0

>  <s_epik_input>  (328) 
W0NIM11PQyg9TylbQ0BASF0oW0NAQF0xKEMoTzIpPU8pW0NIM10pW0NIMl1bQ0BASF0oT0MoPU8pW0NIM10pW0NAQF0oW0NIMl1GKShbQ0BAXTM0W0NIMl1bT0hdKVtDQEhdMVtDQEhdMltDQEhdM1tDQEBIXShPNSlPQyg9TylbQ0BIXShbQ0BdKFtDQF00NTYpKFtDSDNdKVtDSDJdNiljN1tjSF1bY0hdb1tjSF03

>  <s_epik_cmdline>  (328) 
J2VwaWtfcHl0aG9uJywgJy1waHQnLCAnMi4wJywgJy1waCcsICc3LjAnLCAnLXRuJywgJzgnLCAnLW1hJywgJzIwMCcsICctaW1hZScsICc8aW5maWxlLm1hZT4nLCAnLW9tYWUnLCAnPG91dGZpbGUubWFlPic=

>  <r_lp_tautomer_probability>  (328) 
1

>  <r_epik_Ionization_Penalty>  (328) 
8.35059e-08

>  <r_epik_Ionization_Penalty_Charging>  (328) 
0

>  <r_epik_Ionization_Penalty_Neutral>  (328) 
8.35059e-08

>  <r_epik_State_Penalty>  (328) 
-0

>  <r_epik_Charging_Adjusted_Penalty>  (328) 
0

>  <i_epik_Tot_Q>  (328) 
0

>  <i_epik_Tot_abs_Q>  (328) 
0

>  <s_epik_Chemistry_Notes>  (328) 
This compound has an ester and may undergo hydrolysis at high or low pH. This compound contains an acetal/aminal-like group ( X-CH(R)-Y where X, Y are N, S, or O) that may be acid/base labile, releasing an aldehyde.

>  <s_lp_Force_Field>  (328) 
OPLS3e

>  <r_lp_Energy>  (328) 
83.319

>  <b_lp_Chiralities_Consistent>  (328) 
1

>  <s_lp_Variant>  (328) 
96:0-1

>  <s_i_glide_gridfile>  (328) 
pfpi4k_grid

>  <i_i_glide_lignum>  (328) 
18

>  <i_i_glide_rotatable_bonds>  (328) 
8

>  <r_i_docking_score>  (328) 
-2.40763

>  <r_i_glide_ligand_efficiency>  (328) 
-0.0601907

>  <r_i_glide_ligand_efficiency_sa>  (328) 
-0.205849

>  <r_i_glide_ligand_efficiency_ln>  (328) 
-0.513476

>  <r_i_glide_gscore>  (328) 
-2.40763

>  <r_i_glide_lipo>  (328) 
-0.222752

>  <r_i_glide_hbond>  (328) 
0

>  <r_i_glide_metal>  (328) 
-0

>  <r_i_glide_rewards>  (328) 
-0.566171

>  <r_i_glide_evdw>  (328) 
-29.5513

>  <r_i_glide_ecoul>  (328) 
-2.12767

>  <r_i_glide_erotb>  (328) 
0.180725

>  <r_i_glide_esite>  (328) 
-0.00271494

>  <r_i_glide_emodel>  (328) 
-39.3188

>  <r_i_glide_energy>  (328) 
-31.679

>  <r_i_glide_einternal>  (328) 
5.97244

>  <r_i_glide_intrahb_reward>  (328) 
-0.5

>  <i_i_glide_confnum>  (328) 
1

>  <i_i_glide_posenum>  (328) 
2

>  <r_i_glide_eff_state_penalty>  (328) 
0

>  <ligand_id>  (328) 
96

>  <original_smiles>  (328) 
COC(=O)C1CC(OC(C)=O)C2(CF)C3C(OC(=O)C13C)C1C3OC(=O)C(c4ccoc4)C4(C)CC4(O3)C12CO

>  <smiles>  (328) 
[H]OC([H])([H])C12C([H])(C3([H])OC(=O)C([H])(c4c([H])oc([H])c4[H])C4(C([H])([H])[H])C([H])([H])C41O3)C1([H])OC(=O)C3(C([H])([H])[H])C([H])(C(=O)OC([H])([H])[H])C([H])([H])C([H])(OC(=O)C([H])([H])[H])C2(C([H])([H])F)C13[H]

$$$$
97:0:0
     RDKit          3D

 62 66  0  0  1  0  0  0  0  0999 V2000
    0.8323   -8.7185    7.0957 C   0  0  0  0  0  0  0  0  0  0  0  0
    2.1480   -9.1617    6.4261 C   0  0  0  0  0  0  0  0  0  0  0  0
    3.2624   -8.0760    6.6319 C   0  0  0  0  0  0  0  0  0  0  0  0
    2.6183  -10.2217    7.2393 O   0  0  0  0  0  0  0  0  0  0  0  0
    1.9050   -9.7250    4.9615 C   0  0  2  0  0  0  0  0  0  0  0  0
    2.9820  -10.7151    4.4597 C   0  0  0  0  0  0  0  0  0  0  0  0
    3.9541   -9.8794    3.6391 C   0  0  1  0  0  0  0  0  0  0  0  0
    4.7951  -10.6736    2.8041 O   0  0  0  0  0  0  0  0  0  0  0  0
    3.1211   -8.7600    2.9285 C   0  0  2  0  0  0  0  0  0  0  0  0
    2.9911   -9.1394    1.4221 C   0  0  0  0  0  0  0  0  0  0  0  0
    3.8589   -7.3719    3.0783 C   0  0  1  0  0  0  0  0  0  0  0  0
    5.3351   -7.3185    2.6083 C   0  0  0  0  0  0  0  0  0  0  0  0
    6.2350   -7.6890    3.3646 O   0  0  0  0  0  0  0  0  0  0  0  0
    5.7059   -6.7878    1.2181 C   0  0  0  0  0  0  0  0  0  0  0  0
    4.7408   -5.7641    0.7040 C   0  0  0  0  0  0  0  0  0  0  0  0
    4.9493   -4.7497   -0.1574 C   0  0  0  0  0  0  0  0  0  0  0  0
    6.0811   -4.0824   -0.4404 O   0  0  0  0  0  0  0  0  0  0  0  0
    5.7381   -2.8110   -0.8020 C   0  0  0  0  0  0  0  0  0  0  0  0
    6.5044   -1.9602   -1.2425 O   0  0  0  0  0  0  0  0  0  0  0  0
    4.3945   -2.6583   -0.6234 O   0  0  0  0  0  0  0  0  0  0  0  0
    3.7834   -3.9195   -0.4518 C   0  0  2  0  0  0  0  0  0  0  0  0
    2.8592   -4.2493    0.7350 C   0  0  0  0  0  0  0  0  0  0  0  0
    3.3112   -5.6845    1.1716 C   0  0  2  0  0  0  0  0  0  0  0  0
    3.0619   -6.0769    2.6771 C   0  0  2  0  0  0  0  0  0  0  0  0
    3.6082   -4.9673    3.6265 C   0  0  0  0  0  0  0  0  0  0  0  0
    1.5245   -6.2384    2.9562 C   0  0  1  0  0  0  0  0  0  0  0  0
    0.7172   -6.4367    1.8016 O   0  0  0  0  0  0  0  0  0  0  0  0
    1.2204   -7.2999    4.0465 C   0  0  0  0  0  0  0  0  0  0  0  0
    1.7198   -8.7630    3.7067 C   0  0  2  0  0  0  0  0  0  0  0  0
    0.5807   -9.4375    2.8742 C   0  0  0  0  0  0  0  0  0  0  0  0
    0.3394   -7.8782    6.6003 H   0  0  0  0  0  0  0  0  0  0  0  0
    1.0245   -8.4108    8.1251 H   0  0  0  0  0  0  0  0  0  0  0  0
    0.1141   -9.5372    7.1359 H   0  0  0  0  0  0  0  0  0  0  0  0
    3.0171   -7.0778    6.2499 H   0  0  0  0  0  0  0  0  0  0  0  0
    4.2162   -8.4141    6.1996 H   0  0  0  0  0  0  0  0  0  0  0  0
    3.4878   -8.0113    7.7160 H   0  0  0  0  0  0  0  0  0  0  0  0
    1.9868  -10.9479    7.2754 H   0  0  0  0  0  0  0  0  0  0  0  0
    0.9964  -10.3456    5.0705 H   0  0  0  0  0  0  0  0  0  0  0  0
    3.5114  -11.2660    5.2385 H   0  0  0  0  0  0  0  0  0  0  0  0
    2.5265  -11.4878    3.8295 H   0  0  0  0  0  0  0  0  0  0  0  0
    4.6468   -9.4380    4.3610 H   0  0  0  0  0  0  0  0  0  0  0  0
    4.3018  -11.0317    2.0717 H   0  0  0  0  0  0  0  0  0  0  0  0
    2.3034   -8.4888    0.8913 H   0  0  0  0  0  0  0  0  0  0  0  0
    2.6258  -10.1614    1.2857 H   0  0  0  0  0  0  0  0  0  0  0  0
    3.9452   -9.0933    0.8903 H   0  0  0  0  0  0  0  0  0  0  0  0
    3.9688   -7.3100    4.1606 H   0  0  0  0  0  0  0  0  0  0  0  0
    6.7456   -6.4281    1.1984 H   0  0  0  0  0  0  0  0  0  0  0  0
    5.6581   -7.6394    0.5314 H   0  0  0  0  0  0  0  0  0  0  0  0
    3.3453   -4.2531   -1.3880 H   0  0  0  0  0  0  0  0  0  0  0  0
    2.9668   -3.4855    1.5204 H   0  0  0  0  0  0  0  0  0  0  0  0
    1.8103   -4.2606    0.4234 H   0  0  0  0  0  0  0  0  0  0  0  0
    2.8637   -6.4306    0.5388 H   0  0  0  0  0  0  0  0  0  0  0  0
    3.0412   -4.0432    3.5585 H   0  0  0  0  0  0  0  0  0  0  0  0
    4.6498   -4.7216    3.4168 H   0  0  0  0  0  0  0  0  0  0  0  0
    3.5584   -5.2649    4.6692 H   0  0  0  0  0  0  0  0  0  0  0  0
    1.1716   -5.2915    3.3575 H   0  0  0  0  0  0  0  0  0  0  0  0
    0.8074   -7.3419    1.5363 H   0  0  0  0  0  0  0  0  0  0  0  0
    1.6845   -6.9164    4.9678 H   0  0  0  0  0  0  0  0  0  0  0  0
    0.1259   -7.3338    4.1953 H   0  0  0  0  0  0  0  0  0  0  0  0
    0.3605   -8.9264    1.9373 H   0  0  0  0  0  0  0  0  0  0  0  0
   -0.3525   -9.4293    3.4390 H   0  0  0  0  0  0  0  0  0  0  0  0
    0.7855  -10.4797    2.6259 H   0  0  0  0  0  0  0  0  0  0  0  0
  1  2  1  0
  1 31  1  0
  1 32  1  0
  1 33  1  0
  2  3  1  0
  2  4  1  0
  2  5  1  0
  3 34  1  0
  3 35  1  0
  3 36  1  0
  4 37  1  0
  5 29  1  0
  5  6  1  0
  5 38  1  1
  6  7  1  0
  6 39  1  0
  6 40  1  0
  7  8  1  0
  7  9  1  0
  7 41  1  1
  8 42  1  0
  9 29  1  0
  9 10  1  6
  9 11  1  0
 10 43  1  0
 10 44  1  0
 10 45  1  0
 11 24  1  0
 11 12  1  0
 11 46  1  1
 12 13  2  0
 12 14  1  0
 14 15  1  0
 14 47  1  0
 14 48  1  0
 15 23  1  0
 15 16  2  0
 16 21  1  0
 16 17  1  0
 17 18  1  0
 18 19  2  0
 18 20  1  0
 20 21  1  0
 21 22  1  0
 21 49  1  6
 22 23  1  0
 22 50  1  0
 22 51  1  0
 23 24  1  0
 23 52  1  6
 24 25  1  1
 24 26  1  0
 25 53  1  0
 25 54  1  0
 25 55  1  0
 26 27  1  0
 26 28  1  0
 26 56  1  1
 27 57  1  0
 28 29  1  0
 28 58  1  0
 28 59  1  0
 29 30  1  6
 30 60  1  0
 30 61  1  0
 30 62  1  0
M  END
>  <i_m_ct_stereo_status>  (329) 
1

>  <s_m_source_file>  (329) 
/var/tmp/pbs.5076255.sched01/tmpcwktr4ti/1290j0z1rin.sdf

>  <i_m_source_file_index>  (329) 
19

>  <i_lp_mmshare_version>  (329) 
48012

>  <i_f3d_flags>  (329) 
0

>  <s_epik_input>  (329) 
W09IXVtDQEBIXTFbQ0gyXVtDQEBIXShDKFtDSDNdKShbQ0gzXSlbT0hdKVtDQEBdMihbQ0gzXSlbQ0gyXVtDQEhdKFtPSF0pW0NAQF0oW0NIM10pKFtDQEhdM1tDQEBdMTJbQ0gzXSlbQ0BASF00QyhbQ0gyXUMzPU8pPUM1W0NAQEhdKFtDSDJdNClPQyhPNSk9Tw==

>  <s_epik_cmdline>  (329) 
J2VwaWtfcHl0aG9uJywgJy1waHQnLCAnMi4wJywgJy1waCcsICc3LjAnLCAnLXRuJywgJzgnLCAnLW1hJywgJzIwMCcsICctaW1hZScsICc8aW5maWxlLm1hZT4nLCAnLW9tYWUnLCAnPG91dGZpbGUubWFlPic=

>  <r_lp_tautomer_probability>  (329) 
1

>  <r_epik_Ionization_Penalty>  (329) 
1.10538e-06

>  <r_epik_Ionization_Penalty_Charging>  (329) 
0

>  <r_epik_Ionization_Penalty_Neutral>  (329) 
1.10538e-06

>  <r_epik_State_Penalty>  (329) 
-0

>  <r_epik_Charging_Adjusted_Penalty>  (329) 
0

>  <i_epik_Tot_Q>  (329) 
0

>  <i_epik_Tot_abs_Q>  (329) 
0

>  <s_epik_Chemistry_Notes>  (329) 
This compound has an ester and may undergo hydrolysis at high or low pH.

>  <s_lp_Force_Field>  (329) 
OPLS3e

>  <r_lp_Energy>  (329) 
60.3407

>  <b_lp_Chiralities_Consistent>  (329) 
1

>  <s_lp_Variant>  (329) 
97:0-1

>  <s_i_glide_gridfile>  (329) 
pfpi4k_grid

>  <i_i_glide_lignum>  (329) 
19

>  <i_i_glide_rotatable_bonds>  (329) 
4

>  <r_i_docking_score>  (329) 
-4.18422

>  <r_i_glide_ligand_efficiency>  (329) 
-0.139474

>  <r_i_glide_ligand_efficiency_sa>  (329) 
-0.433378

>  <r_i_glide_ligand_efficiency_ln>  (329) 
-0.950701

>  <r_i_glide_gscore>  (329) 
-4.18422

>  <r_i_glide_lipo>  (329) 
-0.209208

>  <r_i_glide_hbond>  (329) 
-0.383598

>  <r_i_glide_metal>  (329) 
-0

>  <r_i_glide_rewards>  (329) 
-0.548174

>  <r_i_glide_evdw>  (329) 
-25.1159

>  <r_i_glide_ecoul>  (329) 
-12.6607

>  <r_i_glide_erotb>  (329) 
0.11194

>  <r_i_glide_esite>  (329) 
-0.000280254

>  <r_i_glide_emodel>  (329) 
-46.7791

>  <r_i_glide_energy>  (329) 
-37.7767

>  <r_i_glide_einternal>  (329) 
3.35354

>  <r_i_glide_intrahb_reward>  (329) 
-0

>  <i_i_glide_confnum>  (329) 
2

>  <i_i_glide_posenum>  (329) 
21

>  <r_i_glide_eff_state_penalty>  (329) 
0

>  <ligand_id>  (329) 
97

>  <original_smiles>  (329) 
CC(C)(O)C1CC(O)C2(C)C3C(=O)CC4=C5OC(=O)OC5CC4C3(C)C(O)CC12C

>  <smiles>  (329) 
[H]OC1([H])C([H])([H])C2(C([H])([H])[H])C([H])(C(O[H])(C([H])([H])[H])C([H])([H])[H])C([H])([H])C([H])(O[H])C2(C([H])([H])[H])C2([H])C(=O)C([H])([H])C3=C4OC(=O)OC4([H])C([H])([H])C3([H])C12C([H])([H])[H]

$$$$
97:0:1
     RDKit          3D

 62 66  0  0  1  0  0  0  0  0999 V2000
   -2.7291    2.9542    4.7387 C   0  0  0  0  0  0  0  0  0  0  0  0
   -1.5284    3.2886    3.8361 C   0  0  0  0  0  0  0  0  0  0  0  0
   -1.4184    2.2708    2.6883 C   0  0  0  0  0  0  0  0  0  0  0  0
   -1.9349    4.4940    3.2226 O   0  0  0  0  0  0  0  0  0  0  0  0
   -0.2327    3.6350    4.6558 C   0  0  2  0  0  0  0  0  0  0  0  0
    0.8341    4.3918    3.8383 C   0  0  0  0  0  0  0  0  0  0  0  0
    1.7890    3.3129    3.3480 C   0  0  1  0  0  0  0  0  0  0  0  0
    3.0086    3.9165    2.9781 O   0  0  0  0  0  0  0  0  0  0  0  0
    1.8842    2.2133    4.4611 C   0  0  2  0  0  0  0  0  0  0  0  0
    3.2374    2.3556    5.2106 C   0  0  0  0  0  0  0  0  0  0  0  0
    1.7762    0.7915    3.7895 C   0  0  1  0  0  0  0  0  0  0  0  0
    2.7862    0.4826    2.6559 C   0  0  0  0  0  0  0  0  0  0  0  0
    2.5840    0.8835    1.5164 O   0  0  0  0  0  0  0  0  0  0  0  0
    4.0722   -0.3004    2.9483 C   0  0  0  0  0  0  0  0  0  0  0  0
    3.9080   -1.3040    4.0656 C   0  0  0  0  0  0  0  0  0  0  0  0
    4.5455   -2.4521    4.3025 C   0  0  0  0  0  0  0  0  0  0  0  0
    5.2102   -3.2858    3.4642 O   0  0  0  0  0  0  0  0  0  0  0  0
    5.0847   -4.5566    3.9691 C   0  0  0  0  0  0  0  0  0  0  0  0
    5.5753   -5.5692    3.4982 O   0  0  0  0  0  0  0  0  0  0  0  0
    4.3185   -4.4781    5.0993 O   0  0  0  0  0  0  0  0  0  0  0  0
    4.1825   -3.1570    5.5211 C   0  0  2  0  0  0  0  0  0  0  0  0
    2.8211   -2.5115    5.8487 C   0  0  0  0  0  0  0  0  0  0  0  0
    2.9024   -1.0976    5.1708 C   0  0  2  0  0  0  0  0  0  0  0  0
    1.5450   -0.4470    4.7309 C   0  0  2  0  0  0  0  0  0  0  0  0
    0.6966   -1.4540    3.8904 C   0  0  0  0  0  0  0  0  0  0  0  0
    0.6855   -0.0503    5.9808 C   0  0  1  0  0  0  0  0  0  0  0  0
    1.4116    0.0637    7.1861 O   0  0  0  0  0  0  0  0  0  0  0  0
   -0.1688    1.2073    5.7590 C   0  0  0  0  0  0  0  0  0  0  0  0
    0.6182    2.5106    5.3914 C   0  0  2  0  0  0  0  0  0  0  0  0
    1.0183    3.1705    6.7512 C   0  0  0  0  0  0  0  0  0  0  0  0
   -2.5915    2.0487    5.3188 H   0  0  0  0  0  0  0  0  0  0  0  0
   -3.6221    2.8087    4.1283 H   0  0  0  0  0  0  0  0  0  0  0  0
   -2.9516    3.7512    5.4519 H   0  0  0  0  0  0  0  0  0  0  0  0
   -1.2596    1.2392    2.9746 H   0  0  0  0  0  0  0  0  0  0  0  0
   -0.6423    2.5406    1.9804 H   0  0  0  0  0  0  0  0  0  0  0  0
   -2.3428    2.2551    2.1040 H   0  0  0  0  0  0  0  0  0  0  0  0
   -1.3818    4.6014    2.4540 H   0  0  0  0  0  0  0  0  0  0  0  0
   -0.5829    4.3538    5.3998 H   0  0  0  0  0  0  0  0  0  0  0  0
    0.4556    4.9812    3.0078 H   0  0  0  0  0  0  0  0  0  0  0  0
    1.3616    5.1000    4.4780 H   0  0  0  0  0  0  0  0  0  0  0  0
    1.3877    2.9173    2.4231 H   0  0  0  0  0  0  0  0  0  0  0  0
    3.5309    3.2891    2.4963 H   0  0  0  0  0  0  0  0  0  0  0  0
    3.3055    1.7203    6.0853 H   0  0  0  0  0  0  0  0  0  0  0  0
    3.4160    3.3803    5.5453 H   0  0  0  0  0  0  0  0  0  0  0  0
    4.0913    2.1066    4.5751 H   0  0  0  0  0  0  0  0  0  0  0  0
    0.8551    0.8831    3.2266 H   0  0  0  0  0  0  0  0  0  0  0  0
    4.4342   -0.7900    2.0435 H   0  0  0  0  0  0  0  0  0  0  0  0
    4.8387    0.4167    3.2405 H   0  0  0  0  0  0  0  0  0  0  0  0
    4.9176   -2.9203    6.3015 H   0  0  0  0  0  0  0  0  0  0  0  0
    2.0297   -3.1418    5.4468 H   0  0  0  0  0  0  0  0  0  0  0  0
    2.6487   -2.4344    6.9175 H   0  0  0  0  0  0  0  0  0  0  0  0
    3.4274   -0.4164    5.8359 H   0  0  0  0  0  0  0  0  0  0  0  0
    0.3296   -2.2941    4.4729 H   0  0  0  0  0  0  0  0  0  0  0  0
    1.2547   -1.8597    3.0440 H   0  0  0  0  0  0  0  0  0  0  0  0
   -0.1949   -0.9717    3.4766 H   0  0  0  0  0  0  0  0  0  0  0  0
   -0.0139   -0.8600    6.1847 H   0  0  0  0  0  0  0  0  0  0  0  0
    2.0247    0.7725    7.1083 H   0  0  0  0  0  0  0  0  0  0  0  0
   -0.8451    0.9064    4.9875 H   0  0  0  0  0  0  0  0  0  0  0  0
   -0.7882    1.3865    6.6449 H   0  0  0  0  0  0  0  0  0  0  0  0
    1.6596    2.5496    7.3705 H   0  0  0  0  0  0  0  0  0  0  0  0
    0.1318    3.3726    7.3586 H   0  0  0  0  0  0  0  0  0  0  0  0
    1.5269    4.1269    6.6257 H   0  0  0  0  0  0  0  0  0  0  0  0
  1  2  1  0
  1 31  1  0
  1 32  1  0
  1 33  1  0
  2  3  1  0
  2  4  1  0
  2  5  1  0
  3 34  1  0
  3 35  1  0
  3 36  1  0
  4 37  1  0
  5 29  1  0
  5  6  1  0
  5 38  1  1
  6  7  1  0
  6 39  1  0
  6 40  1  0
  7  8  1  0
  7  9  1  0
  7 41  1  6
  8 42  1  0
  9 29  1  0
  9 10  1  1
  9 11  1  0
 10 43  1  0
 10 44  1  0
 10 45  1  0
 11 24  1  0
 11 12  1  0
 11 46  1  6
 12 13  2  0
 12 14  1  0
 14 15  1  0
 14 47  1  0
 14 48  1  0
 15 23  1  0
 15 16  2  0
 16 21  1  0
 16 17  1  0
 17 18  1  0
 18 19  2  0
 18 20  1  0
 20 21  1  0
 21 22  1  0
 21 49  1  1
 22 23  1  0
 22 50  1  0
 22 51  1  0
 23 24  1  0
 23 52  1  1
 24 25  1  6
 24 26  1  0
 25 53  1  0
 25 54  1  0
 25 55  1  0
 26 27  1  0
 26 28  1  0
 26 56  1  1
 27 57  1  0
 28 29  1  0
 28 58  1  0
 28 59  1  0
 29 30  1  1
 30 60  1  0
 30 61  1  0
 30 62  1  0
M  END
>  <i_m_ct_stereo_status>  (330) 
1

>  <s_m_source_file>  (330) 
/var/tmp/pbs.5076255.sched01/tmpcwktr4ti/1290j0z1rin.sdf

>  <i_m_source_file_index>  (330) 
19

>  <i_lp_mmshare_version>  (330) 
48012

>  <i_f3d_flags>  (330) 
0

>  <s_epik_input>  (330) 
W09IXVtDQEBIXTFbQ0gyXVtDQEBIXShDKFtDSDNdKShbQ0gzXSlbT0hdKVtDQEBdMihbQ0gzXSlbQ0gyXVtDQEhdKFtPSF0pW0NAQF0oW0NIM10pKFtDQEhdM1tDQEBdMTJbQ0gzXSlbQ0BASF00QyhbQ0gyXUMzPU8pPUM1W0NAQEhdKFtDSDJdNClPQyhPNSk9Tw==

>  <s_epik_cmdline>  (330) 
J2VwaWtfcHl0aG9uJywgJy1waHQnLCAnMi4wJywgJy1waCcsICc3LjAnLCAnLXRuJywgJzgnLCAnLW1hJywgJzIwMCcsICctaW1hZScsICc8aW5maWxlLm1hZT4nLCAnLW9tYWUnLCAnPG91dGZpbGUubWFlPic=

>  <r_lp_tautomer_probability>  (330) 
1

>  <r_epik_Ionization_Penalty>  (330) 
1.10538e-06

>  <r_epik_Ionization_Penalty_Charging>  (330) 
0

>  <r_epik_Ionization_Penalty_Neutral>  (330) 
1.10538e-06

>  <r_epik_State_Penalty>  (330) 
-0

>  <r_epik_Charging_Adjusted_Penalty>  (330) 
0

>  <i_epik_Tot_Q>  (330) 
0

>  <i_epik_Tot_abs_Q>  (330) 
0

>  <s_epik_Chemistry_Notes>  (330) 
This compound has an ester and may undergo hydrolysis at high or low pH.

>  <s_lp_Force_Field>  (330) 
OPLS3e

>  <r_lp_Energy>  (330) 
60.3407

>  <b_lp_Chiralities_Consistent>  (330) 
1

>  <s_lp_Variant>  (330) 
97:0-1

>  <s_i_glide_gridfile>  (330) 
pfpi4k_grid

>  <i_i_glide_lignum>  (330) 
19

>  <i_i_glide_rotatable_bonds>  (330) 
4

>  <r_i_docking_score>  (330) 
-3.029

>  <r_i_glide_ligand_efficiency>  (330) 
-0.100967

>  <r_i_glide_ligand_efficiency_sa>  (330) 
-0.313727

>  <r_i_glide_ligand_efficiency_ln>  (330) 
-0.688221

>  <r_i_glide_gscore>  (330) 
-3.029

>  <r_i_glide_lipo>  (330) 
-0.0572946

>  <r_i_glide_hbond>  (330) 
-0.239516

>  <r_i_glide_metal>  (330) 
-0

>  <r_i_glide_rewards>  (330) 
-0.57811

>  <r_i_glide_evdw>  (330) 
-23.7215

>  <r_i_glide_ecoul>  (330) 
-7.19963

>  <r_i_glide_erotb>  (330) 
0.11194

>  <r_i_glide_esite>  (330) 
0

>  <r_i_glide_emodel>  (330) 
-37.9896

>  <r_i_glide_energy>  (330) 
-30.9211

>  <r_i_glide_einternal>  (330) 
1.7242

>  <r_i_glide_intrahb_reward>  (330) 
-0

>  <i_i_glide_confnum>  (330) 
5

>  <i_i_glide_posenum>  (330) 
2

>  <r_i_glide_eff_state_penalty>  (330) 
0

>  <ligand_id>  (330) 
97

>  <original_smiles>  (330) 
CC(C)(O)C1CC(O)C2(C)C3C(=O)CC4=C5OC(=O)OC5CC4C3(C)C(O)CC12C

>  <smiles>  (330) 
[H]OC1([H])C([H])([H])C2(C([H])([H])[H])C([H])(C(O[H])(C([H])([H])[H])C([H])([H])[H])C([H])([H])C([H])(O[H])C2(C([H])([H])[H])C2([H])C(=O)C([H])([H])C3=C4OC(=O)OC4([H])C([H])([H])C3([H])C12C([H])([H])[H]

$$$$
97:0:2
     RDKit          3D

 62 66  0  0  1  0  0  0  0  0999 V2000
   -2.7007    2.9956    4.8842 C   0  0  0  0  0  0  0  0  0  0  0  0
   -1.5190    3.3155    3.9502 C   0  0  0  0  0  0  0  0  0  0  0  0
   -1.4488    2.3041    2.7917 C   0  0  0  0  0  0  0  0  0  0  0  0
   -1.9146    4.5288    3.3378 O   0  0  0  0  0  0  0  0  0  0  0  0
   -0.1927    3.6310    4.7366 C   0  0  2  0  0  0  0  0  0  0  0  0
    0.8544    4.3874    3.8996 C   0  0  0  0  0  0  0  0  0  0  0  0
    1.7865    3.3142    3.3719 C   0  0  1  0  0  0  0  0  0  0  0  0
    2.9762    3.9502    2.9703 O   0  0  0  0  0  0  0  0  0  0  0  0
    1.9057    2.1897    4.4603 C   0  0  2  0  0  0  0  0  0  0  0  0
    3.2822    2.3007    5.1692 C   0  0  0  0  0  0  0  0  0  0  0  0
    1.7606    0.7778    3.7690 C   0  0  1  0  0  0  0  0  0  0  0  0
    2.7377    0.4712    2.6062 C   0  0  0  0  0  0  0  0  0  0  0  0
    2.4987    0.8862    1.4713 O   0  0  0  0  0  0  0  0  0  0  0  0
    4.0158   -0.3363    2.8482 C   0  0  0  0  0  0  0  0  0  0  0  0
    3.8671   -1.3602    3.9563 C   0  0  0  0  0  0  0  0  0  0  0  0
    4.4962   -2.5167    4.1579 C   0  0  0  0  0  0  0  0  0  0  0  0
    5.1402   -3.3492    3.2990 O   0  0  0  0  0  0  0  0  0  0  0  0
    5.0054   -4.6234    3.7905 C   0  0  0  0  0  0  0  0  0  0  0  0
    5.4680   -5.6412    3.2918 O   0  0  0  0  0  0  0  0  0  0  0  0
    4.2632   -4.5548    4.9361 O   0  0  0  0  0  0  0  0  0  0  0  0
    4.1564   -3.2333    5.3780 C   0  0  2  0  0  0  0  0  0  0  0  0
    2.8148   -2.5761    5.7515 C   0  0  0  0  0  0  0  0  0  0  0  0
    2.8971   -1.1536    5.0908 C   0  0  2  0  0  0  0  0  0  0  0  0
    1.5387   -0.4766    4.6962 C   0  0  2  0  0  0  0  0  0  0  0  0
    0.6526   -1.4584    3.8646 C   0  0  0  0  0  0  0  0  0  0  0  0
    0.7183   -0.0862    5.9758 C   0  0  1  0  0  0  0  0  0  0  0  0
    1.4809   -0.0031    7.1594 O   0  0  0  0  0  0  0  0  0  0  0  0
   -0.1263    1.1863    5.7926 C   0  0  0  0  0  0  0  0  0  0  0  0
    0.6688    2.4860    5.4286 C   0  0  2  0  0  0  0  0  0  0  0  0
    1.1147    3.1151    6.7882 C   0  0  0  0  0  0  0  0  0  0  0  0
   -2.5832    2.0660    5.4377 H   0  0  0  0  0  0  0  0  0  0  0  0
   -3.6143    2.8973    4.2918 H   0  0  0  0  0  0  0  0  0  0  0  0
   -2.8865    3.7802    5.6177 H   0  0  0  0  0  0  0  0  0  0  0  0
   -1.3073    1.2665    3.0753 H   0  0  0  0  0  0  0  0  0  0  0  0
   -0.6770    2.5459    2.0644 H   0  0  0  0  0  0  0  0  0  0  0  0
   -2.3812    2.3190    2.2233 H   0  0  0  0  0  0  0  0  0  0  0  0
   -1.3591    4.6412    2.5742 H   0  0  0  0  0  0  0  0  0  0  0  0
   -0.5092    4.3432    5.5029 H   0  0  0  0  0  0  0  0  0  0  0  0
    0.4590    4.9940    3.0865 H   0  0  0  0  0  0  0  0  0  0  0  0
    1.4078    5.0797    4.5350 H   0  0  0  0  0  0  0  0  0  0  0  0
    1.3596    2.9222    2.4544 H   0  0  0  0  0  0  0  0  0  0  0  0
    2.8083    4.3496    2.1288 H   0  0  0  0  0  0  0  0  0  0  0  0
    3.3637    1.6470    6.0313 H   0  0  0  0  0  0  0  0  0  0  0  0
    3.4849    3.3142    5.5199 H   0  0  0  0  0  0  0  0  0  0  0  0
    4.1107    2.0502    4.5054 H   0  0  0  0  0  0  0  0  0  0  0  0
    0.8258    0.8885    3.2328 H   0  0  0  0  0  0  0  0  0  0  0  0
    4.3508   -0.8132    1.9274 H   0  0  0  0  0  0  0  0  0  0  0  0
    4.7999    0.3634    3.1390 H   0  0  0  0  0  0  0  0  0  0  0  0
    4.9178   -3.0208    6.1404 H   0  0  0  0  0  0  0  0  0  0  0  0
    2.0029   -3.1905    5.3597 H   0  0  0  0  0  0  0  0  0  0  0  0
    2.6727   -2.5142    6.8250 H   0  0  0  0  0  0  0  0  0  0  0  0
    3.4507   -0.4903    5.7504 H   0  0  0  0  0  0  0  0  0  0  0  0
    0.2926   -2.3051    4.4468 H   0  0  0  0  0  0  0  0  0  0  0  0
    1.1807   -1.8588    2.9990 H   0  0  0  0  0  0  0  0  0  0  0  0
   -0.2441   -0.9603    3.4884 H   0  0  0  0  0  0  0  0  0  0  0  0
    0.0153   -0.8915    6.1878 H   0  0  0  0  0  0  0  0  0  0  0  0
    2.1137    0.6908    7.0680 H   0  0  0  0  0  0  0  0  0  0  0  0
   -0.8273    0.9101    5.0284 H   0  0  0  0  0  0  0  0  0  0  0  0
   -0.7269    1.3576    6.6933 H   0  0  0  0  0  0  0  0  0  0  0  0
    1.7651    2.4745    7.3796 H   0  0  0  0  0  0  0  0  0  0  0  0
    0.2491    3.3175    7.4220 H   0  0  0  0  0  0  0  0  0  0  0  0
    1.6336    4.0658    6.6645 H   0  0  0  0  0  0  0  0  0  0  0  0
  1  2  1  0
  1 31  1  0
  1 32  1  0
  1 33  1  0
  2  3  1  0
  2  4  1  0
  2  5  1  0
  3 34  1  0
  3 35  1  0
  3 36  1  0
  4 37  1  0
  5 29  1  0
  5  6  1  0
  5 38  1  1
  6  7  1  0
  6 39  1  0
  6 40  1  0
  7  8  1  0
  7  9  1  0
  7 41  1  6
  8 42  1  0
  9 29  1  0
  9 10  1  1
  9 11  1  0
 10 43  1  0
 10 44  1  0
 10 45  1  0
 11 24  1  0
 11 12  1  0
 11 46  1  6
 12 13  2  0
 12 14  1  0
 14 15  1  0
 14 47  1  0
 14 48  1  0
 15 23  1  0
 15 16  2  0
 16 21  1  0
 16 17  1  0
 17 18  1  0
 18 19  2  0
 18 20  1  0
 20 21  1  0
 21 22  1  0
 21 49  1  1
 22 23  1  0
 22 50  1  0
 22 51  1  0
 23 24  1  0
 23 52  1  1
 24 25  1  6
 24 26  1  0
 25 53  1  0
 25 54  1  0
 25 55  1  0
 26 27  1  0
 26 28  1  0
 26 56  1  1
 27 57  1  0
 28 29  1  0
 28 58  1  0
 28 59  1  0
 29 30  1  1
 30 60  1  0
 30 61  1  0
 30 62  1  0
M  END
>  <i_m_ct_stereo_status>  (331) 
1

>  <s_m_source_file>  (331) 
/var/tmp/pbs.5076255.sched01/tmpcwktr4ti/1290j0z1rin.sdf

>  <i_m_source_file_index>  (331) 
19

>  <i_lp_mmshare_version>  (331) 
48012

>  <i_f3d_flags>  (331) 
0

>  <s_epik_input>  (331) 
W09IXVtDQEBIXTFbQ0gyXVtDQEBIXShDKFtDSDNdKShbQ0gzXSlbT0hdKVtDQEBdMihbQ0gzXSlbQ0gyXVtDQEhdKFtPSF0pW0NAQF0oW0NIM10pKFtDQEhdM1tDQEBdMTJbQ0gzXSlbQ0BASF00QyhbQ0gyXUMzPU8pPUM1W0NAQEhdKFtDSDJdNClPQyhPNSk9Tw==

>  <s_epik_cmdline>  (331) 
J2VwaWtfcHl0aG9uJywgJy1waHQnLCAnMi4wJywgJy1waCcsICc3LjAnLCAnLXRuJywgJzgnLCAnLW1hJywgJzIwMCcsICctaW1hZScsICc8aW5maWxlLm1hZT4nLCAnLW9tYWUnLCAnPG91dGZpbGUubWFlPic=

>  <r_lp_tautomer_probability>  (331) 
1

>  <r_epik_Ionization_Penalty>  (331) 
1.10538e-06

>  <r_epik_Ionization_Penalty_Charging>  (331) 
0

>  <r_epik_Ionization_Penalty_Neutral>  (331) 
1.10538e-06

>  <r_epik_State_Penalty>  (331) 
-0

>  <r_epik_Charging_Adjusted_Penalty>  (331) 
0

>  <i_epik_Tot_Q>  (331) 
0

>  <i_epik_Tot_abs_Q>  (331) 
0

>  <s_epik_Chemistry_Notes>  (331) 
This compound has an ester and may undergo hydrolysis at high or low pH.

>  <s_lp_Force_Field>  (331) 
OPLS3e

>  <r_lp_Energy>  (331) 
60.3407

>  <b_lp_Chiralities_Consistent>  (331) 
1

>  <s_lp_Variant>  (331) 
97:0-1

>  <s_i_glide_gridfile>  (331) 
pfpi4k_grid

>  <i_i_glide_lignum>  (331) 
19

>  <i_i_glide_rotatable_bonds>  (331) 
4

>  <r_i_docking_score>  (331) 
-2.64906

>  <r_i_glide_ligand_efficiency>  (331) 
-0.088302

>  <r_i_glide_ligand_efficiency_sa>  (331) 
-0.274375

>  <r_i_glide_ligand_efficiency_ln>  (331) 
-0.601895

>  <r_i_glide_gscore>  (331) 
-2.64906

>  <r_i_glide_lipo>  (331) 
-0.0576471

>  <r_i_glide_hbond>  (331) 
-0.206024

>  <r_i_glide_metal>  (331) 
-0

>  <r_i_glide_rewards>  (331) 
-0.573649

>  <r_i_glide_evdw>  (331) 
-24.0568

>  <r_i_glide_ecoul>  (331) 
-4.80561

>  <r_i_glide_erotb>  (331) 
0.11194

>  <r_i_glide_esite>  (331) 
0

>  <r_i_glide_emodel>  (331) 
-34.5501

>  <r_i_glide_energy>  (331) 
-28.8624

>  <r_i_glide_einternal>  (331) 
1.7785

>  <r_i_glide_intrahb_reward>  (331) 
-0

>  <i_i_glide_confnum>  (331) 
2

>  <i_i_glide_posenum>  (331) 
40

>  <r_i_glide_eff_state_penalty>  (331) 
0

>  <ligand_id>  (331) 
97

>  <original_smiles>  (331) 
CC(C)(O)C1CC(O)C2(C)C3C(=O)CC4=C5OC(=O)OC5CC4C3(C)C(O)CC12C

>  <smiles>  (331) 
[H]OC1([H])C([H])([H])C2(C([H])([H])[H])C([H])(C(O[H])(C([H])([H])[H])C([H])([H])[H])C([H])([H])C([H])(O[H])C2(C([H])([H])[H])C2([H])C(=O)C([H])([H])C3=C4OC(=O)OC4([H])C([H])([H])C3([H])C12C([H])([H])[H]

$$$$
98:0:0
     RDKit          3D

 61 65  0  0  1  0  0  0  0  0999 V2000
    2.3705    4.7408    3.3686 C   0  0  0  0  0  0  0  0  0  0  0  0
    1.8870    3.5878    3.8583 C   0  0  0  0  0  0  0  0  0  0  0  0
    0.4512    3.1036    3.7785 C   0  0  2  0  0  0  0  0  0  0  0  0
   -0.7335    3.4065    4.8287 C   0  0  1  0  0  0  0  0  0  0  0  0
   -1.7718    4.1140    4.1769 O   0  0  0  0  0  0  0  0  0  0  0  0
   -1.3720    2.1059    5.5684 C   0  0  0  0  0  0  0  0  0  0  0  0
   -0.3349    0.9669    6.0427 C   0  0  2  0  0  0  0  0  0  0  0  0
   -0.5201    0.7557    7.4586 O   0  0  0  0  0  0  0  0  0  0  0  0
   -0.1258    1.7666    8.3752 C   0  0  0  0  0  0  0  0  0  0  0  0
    0.9340    1.5916    5.5762 C   0  0  2  0  0  0  0  0  0  0  0  0
    2.2415    2.4143    5.9553 C   0  0  0  0  0  0  0  0  0  0  0  0
    2.0639    3.8067    6.6500 C   0  0  0  0  0  0  0  0  0  0  0  0
    3.3377    1.7138    6.8259 C   0  0  0  0  0  0  0  0  0  0  0  0
    2.7188    2.4454    4.4449 C   0  0  1  0  0  0  0  0  0  0  0  0
    2.1579    1.0817    3.8003 C   0  0  1  0  0  0  0  0  0  0  0  0
    2.0308    0.5292    2.3673 C   0  0  1  0  0  0  0  0  0  0  0  0
    3.3068    0.3680    1.5156 C   0  0  0  0  0  0  0  0  0  0  0  0
    1.2112   -0.8171    2.6958 C   0  0  0  0  0  0  0  0  0  0  0  0
    1.1041   -1.0341    4.2887 C   0  0  1  0  0  0  0  0  0  0  0  0
    2.4380   -0.3170    4.5520 C   0  0  1  0  0  0  0  0  0  0  0  0
    3.5746   -1.0363    4.1209 O   0  0  0  0  0  0  0  0  0  0  0  0
   -0.1742   -0.5872    5.3304 C   0  0  1  0  0  0  0  0  0  0  0  0
   -0.1134   -1.6514    6.4530 C   0  0  0  0  0  0  0  0  0  0  0  0
   -1.4135   -0.9257    4.7389 O   0  0  0  0  0  0  0  0  0  0  0  0
    0.7336    1.6434    4.0166 C   0  0  2  0  0  0  0  0  0  0  0  0
   -0.4447    1.0347    3.3561 O   0  0  0  0  0  0  0  0  0  0  0  0
   -1.0840    1.4081    2.1181 C   0  0  0  0  0  0  0  0  0  0  0  0
    3.4247    4.9642    3.4291 H   0  0  0  0  0  0  0  0  0  0  0  0
    1.7114    5.4728    2.9246 H   0  0  0  0  0  0  0  0  0  0  0  0
    0.1596    3.3618    2.7665 H   0  0  0  0  0  0  0  0  0  0  0  0
   -0.4135    4.0947    5.6000 H   0  0  0  0  0  0  0  0  0  0  0  0
   -1.9367    3.6848    3.3493 H   0  0  0  0  0  0  0  0  0  0  0  0
   -1.9336    2.4665    6.4303 H   0  0  0  0  0  0  0  0  0  0  0  0
   -2.1418    1.6575    4.9433 H   0  0  0  0  0  0  0  0  0  0  0  0
   -0.5670    1.5428    9.3447 H   0  0  0  0  0  0  0  0  0  0  0  0
   -0.4526    2.7643    8.0830 H   0  0  0  0  0  0  0  0  0  0  0  0
    0.9525    1.7648    8.5138 H   0  0  0  0  0  0  0  0  0  0  0  0
    1.3197    0.8000    6.1729 H   0  0  0  0  0  0  0  0  0  0  0  0
    3.0254    4.3109    6.7429 H   0  0  0  0  0  0  0  0  0  0  0  0
    1.6697    3.7085    7.6586 H   0  0  0  0  0  0  0  0  0  0  0  0
    1.4506    4.5406    6.1423 H   0  0  0  0  0  0  0  0  0  0  0  0
    4.0052    2.4385    7.2891 H   0  0  0  0  0  0  0  0  0  0  0  0
    4.0090    1.0844    6.2452 H   0  0  0  0  0  0  0  0  0  0  0  0
    2.9195    1.1207    7.6374 H   0  0  0  0  0  0  0  0  0  0  0  0
    3.7901    2.6069    4.3165 H   0  0  0  0  0  0  0  0  0  0  0  0
    1.4745    1.2302    1.7569 H   0  0  0  0  0  0  0  0  0  0  0  0
    4.0312   -0.3678    1.8534 H   0  0  0  0  0  0  0  0  0  0  0  0
    3.8103    1.3243    1.4458 H   0  0  0  0  0  0  0  0  0  0  0  0
    3.0365    0.0793    0.5001 H   0  0  0  0  0  0  0  0  0  0  0  0
    0.2443   -0.8753    2.2032 H   0  0  0  0  0  0  0  0  0  0  0  0
    1.7541   -1.6626    2.2657 H   0  0  0  0  0  0  0  0  0  0  0  0
    1.2513   -2.1054    4.4300 H   0  0  0  0  0  0  0  0  0  0  0  0
    2.6773   -0.3766    5.6058 H   0  0  0  0  0  0  0  0  0  0  0  0
    3.5056   -1.1357    3.1807 H   0  0  0  0  0  0  0  0  0  0  0  0
    0.7878   -1.5407    7.0553 H   0  0  0  0  0  0  0  0  0  0  0  0
   -0.1156   -2.6635    6.0480 H   0  0  0  0  0  0  0  0  0  0  0  0
   -0.9800   -1.5969    7.1117 H   0  0  0  0  0  0  0  0  0  0  0  0
   -1.5548   -0.2753    4.0614 H   0  0  0  0  0  0  0  0  0  0  0  0
   -1.7338    0.5825    1.8147 H   0  0  0  0  0  0  0  0  0  0  0  0
   -0.4216    1.5962    1.2782 H   0  0  0  0  0  0  0  0  0  0  0  0
   -1.7332    2.2748    2.2315 H   0  0  0  0  0  0  0  0  0  0  0  0
  1  2  2  0
  1 28  1  0
  1 29  1  0
  2 14  1  0
  2  3  1  0
  3 25  1  0
  3  4  1  0
  3 30  1  6
  4  5  1  0
  4  6  1  0
  4 31  1  1
  5 32  1  0
  6  7  1  0
  6 33  1  0
  6 34  1  0
  7 22  1  0
  7  8  1  1
  7 10  1  0
  8  9  1  0
  9 35  1  0
  9 36  1  0
  9 37  1  0
 10 25  1  0
 10 11  1  0
 10 38  1  6
 11 12  1  0
 11 13  1  0
 11 14  1  0
 12 39  1  0
 12 40  1  0
 12 41  1  0
 13 42  1  0
 13 43  1  0
 13 44  1  0
 14 15  1  0
 14 45  1  1
 15 20  1  0
 15 16  1  0
 15 25  1  1
 16 17  1  0
 16 18  1  0
 16 46  1  6
 17 47  1  0
 17 48  1  0
 17 49  1  0
 18 19  1  0
 18 50  1  0
 18 51  1  0
 19 20  1  0
 19 22  1  0
 19 52  1  6
 20 21  1  0
 20 53  1  1
 21 54  1  0
 22 23  1  0
 22 24  1  6
 23 55  1  0
 23 56  1  0
 23 57  1  0
 24 58  1  0
 25 26  1  1
 26 27  1  0
 27 59  1  0
 27 60  1  0
 27 61  1  0
M  END
>  <i_m_ct_stereo_status>  (332) 
1

>  <s_m_source_file>  (332) 
/var/tmp/pbs.5076255.sched01/tmpcwktr4ti/1290j0z1rin.sdf

>  <i_m_source_file_index>  (332) 
20

>  <i_lp_mmshare_version>  (332) 
48012

>  <i_f3d_flags>  (332) 
0

>  <s_epik_input>  (332) 
W0NAXTEyM1tDQEhdNEMoPVtDSDJdKVtDQEhdNVtDQF0zKE9bQ0gzXSlbQ0BASF0oQzQoW0NIM10pW0NIM10pW0NAQF0oT1tDSDNdKShbQ0gyXVtDQEBIXTVbT0hdKVtDQEBdKFtDSDNdKShbT0hdKVtDQEhdKFtDQEhdMltPSF0pW0NIMl1bQ0BASF0xW0NIM10=

>  <s_epik_cmdline>  (332) 
J2VwaWtfcHl0aG9uJywgJy1waHQnLCAnMi4wJywgJy1waCcsICc3LjAnLCAnLXRuJywgJzgnLCAnLW1hJywgJzIwMCcsICctaW1hZScsICc8aW5maWxlLm1hZT4nLCAnLW9tYWUnLCAnPG91dGZpbGUubWFlPic=

>  <r_lp_tautomer_probability>  (332) 
1

>  <r_epik_Ionization_Penalty>  (332) 
5.64873e-07

>  <r_epik_Ionization_Penalty_Charging>  (332) 
0

>  <r_epik_Ionization_Penalty_Neutral>  (332) 
5.64873e-07

>  <r_epik_State_Penalty>  (332) 
-0

>  <r_epik_Charging_Adjusted_Penalty>  (332) 
0

>  <i_epik_Tot_Q>  (332) 
0

>  <i_epik_Tot_abs_Q>  (332) 
0

>  <s_lp_Force_Field>  (332) 
OPLS3e

>  <r_lp_Energy>  (332) 
280.904

>  <b_lp_Chiralities_Consistent>  (332) 
1

>  <s_lp_Variant>  (332) 
98:0-1

>  <s_i_glide_gridfile>  (332) 
pfpi4k_grid

>  <i_i_glide_lignum>  (332) 
20

>  <i_i_glide_rotatable_bonds>  (332) 
5

>  <r_i_docking_score>  (332) 
-3.18514

>  <r_i_glide_ligand_efficiency>  (332) 
-0.117968

>  <r_i_glide_ligand_efficiency_sa>  (332) 
-0.353904

>  <r_i_glide_ligand_efficiency_ln>  (332) 
-0.741448

>  <r_i_glide_gscore>  (332) 
-3.18514

>  <r_i_glide_lipo>  (332) 
-0.0886096

>  <r_i_glide_hbond>  (332) 
0

>  <r_i_glide_metal>  (332) 
-0

>  <r_i_glide_rewards>  (332) 
-1.32839

>  <r_i_glide_evdw>  (332) 
-19.2608

>  <r_i_glide_ecoul>  (332) 
-5.36731

>  <r_i_glide_erotb>  (332) 
0

>  <r_i_glide_esite>  (332) 
0

>  <r_i_glide_emodel>  (332) 
-35.2256

>  <r_i_glide_energy>  (332) 
-24.6281

>  <r_i_glide_einternal>  (332) 
0.309873

>  <r_i_glide_intrahb_reward>  (332) 
-0.5

>  <i_i_glide_confnum>  (332) 
1

>  <i_i_glide_posenum>  (332) 
11

>  <r_i_glide_eff_state_penalty>  (332) 
0

>  <ligand_id>  (332) 
98

>  <original_smiles>  (332) 
C=C1C2C(O)CC3(OC)C4C(C)(C)C1C1(C(C)CC(C1O)C3(C)O)C24OC

>  <smiles>  (332) 
[H]OC1([H])C([H])([H])C2(OC([H])([H])[H])C3([H])C4(OC([H])([H])[H])C1([H])C(=C([H])[H])C([H])(C3(C([H])([H])[H])C([H])([H])[H])C41C([H])(O[H])C([H])(C([H])([H])C1([H])C([H])([H])[H])C2(O[H])C([H])([H])[H]

$$$$
98:0:1
     RDKit          3D

 61 65  0  0  1  0  0  0  0  0999 V2000
    2.7008    4.5621    2.9729 C   0  0  0  0  0  0  0  0  0  0  0  0
    2.1609    3.4725    3.5437 C   0  0  0  0  0  0  0  0  0  0  0  0
    0.7067    3.0685    3.5005 C   0  0  2  0  0  0  0  0  0  0  0  0
   -0.4516    3.5154    4.5156 C   0  0  1  0  0  0  0  0  0  0  0  0
   -1.4438    4.2392    3.8073 O   0  0  0  0  0  0  0  0  0  0  0  0
   -1.1642    2.3054    5.3426 C   0  0  0  0  0  0  0  0  0  0  0  0
   -0.1931    1.1361    5.8873 C   0  0  2  0  0  0  0  0  0  0  0  0
   -0.3796    1.0294    7.3148 O   0  0  0  0  0  0  0  0  0  0  0  0
    0.0743    2.0763    8.1571 C   0  0  0  0  0  0  0  0  0  0  0  0
    1.1043    1.6553    5.3835 C   0  0  2  0  0  0  0  0  0  0  0  0
    2.4582    2.4240    5.7003 C   0  0  0  0  0  0  0  0  0  0  0  0
    2.3680    3.8651    6.2997 C   0  0  0  0  0  0  0  0  0  0  0  0
    3.5162    1.7185    6.6102 C   0  0  0  0  0  0  0  0  0  0  0  0
    2.9310    2.3243    4.1914 C   0  0  1  0  0  0  0  0  0  0  0  0
    2.2819    0.9595    3.6380 C   0  0  1  0  0  0  0  0  0  0  0  0
    2.1053    0.3261    2.2433 C   0  0  1  0  0  0  0  0  0  0  0  0
    3.3657    0.0361    1.3976 C   0  0  0  0  0  0  0  0  0  0  0  0
    1.2200   -0.9506    2.6646 C   0  0  0  0  0  0  0  0  0  0  0  0
    1.1154   -1.0543    4.2661 C   0  0  1  0  0  0  0  0  0  0  0  0
    2.4876   -0.3975    4.4756 C   0  0  1  0  0  0  0  0  0  0  0  0
    3.5796   -1.2056    4.0777 O   0  0  0  0  0  0  0  0  0  0  0  0
   -0.1292   -0.4687    5.2802 C   0  0  1  0  0  0  0  0  0  0  0  0
   -0.1171   -1.4538    6.4698 C   0  0  0  0  0  0  0  0  0  0  0  0
   -1.3878   -0.7846    4.7178 O   0  0  0  0  0  0  0  0  0  0  0  0
    0.8982    1.6160    3.8268 C   0  0  2  0  0  0  0  0  0  0  0  0
   -0.3153    1.0278    3.2148 O   0  0  0  0  0  0  0  0  0  0  0  0
   -0.9692    1.3921    1.9864 C   0  0  0  0  0  0  0  0  0  0  0  0
    3.7706    4.7298    3.0044 H   0  0  0  0  0  0  0  0  0  0  0  0
    2.0819    5.3028    2.4824 H   0  0  0  0  0  0  0  0  0  0  0  0
    0.4381    3.2861    2.4822 H   0  0  0  0  0  0  0  0  0  0  0  0
   -0.0933    4.2310    5.2398 H   0  0  0  0  0  0  0  0  0  0  0  0
   -1.2640    4.1326    2.8790 H   0  0  0  0  0  0  0  0  0  0  0  0
   -1.7062    2.7483    6.1809 H   0  0  0  0  0  0  0  0  0  0  0  0
   -1.9637    1.8626    4.7475 H   0  0  0  0  0  0  0  0  0  0  0  0
   -0.3728    1.9395    9.1416 H   0  0  0  0  0  0  0  0  0  0  0  0
   -0.2011    3.0686    7.8018 H   0  0  0  0  0  0  0  0  0  0  0  0
    1.1520    2.0263    8.2968 H   0  0  0  0  0  0  0  0  0  0  0  0
    1.4468    0.8778    6.0276 H   0  0  0  0  0  0  0  0  0  0  0  0
    3.3581    4.3181    6.3574 H   0  0  0  0  0  0  0  0  0  0  0  0
    1.9738    3.8588    7.3126 H   0  0  0  0  0  0  0  0  0  0  0  0
    1.7960    4.5984    5.7483 H   0  0  0  0  0  0  0  0  0  0  0  0
    4.2299    2.4340    7.0245 H   0  0  0  0  0  0  0  0  0  0  0  0
    4.1536    1.0156    6.0700 H   0  0  0  0  0  0  0  0  0  0  0  0
    3.0726    1.2035    7.4650 H   0  0  0  0  0  0  0  0  0  0  0  0
    4.0104    2.4165    4.0650 H   0  0  0  0  0  0  0  0  0  0  0  0
    1.5729    0.9972    1.5821 H   0  0  0  0  0  0  0  0  0  0  0  0
    4.0356   -0.7203    1.7935 H   0  0  0  0  0  0  0  0  0  0  0  0
    3.9484    0.9429    1.2714 H   0  0  0  0  0  0  0  0  0  0  0  0
    3.0785   -0.3007    0.4006 H   0  0  0  0  0  0  0  0  0  0  0  0
    0.2490   -0.9869    2.1774 H   0  0  0  0  0  0  0  0  0  0  0  0
    1.7223   -1.8404    2.2854 H   0  0  0  0  0  0  0  0  0  0  0  0
    1.1960   -2.1217    4.4748 H   0  0  0  0  0  0  0  0  0  0  0  0
    2.7361   -0.4034    5.5284 H   0  0  0  0  0  0  0  0  0  0  0  0
    3.5974   -1.9812    4.6170 H   0  0  0  0  0  0  0  0  0  0  0  0
    0.7971   -1.3556    7.0619 H   0  0  0  0  0  0  0  0  0  0  0  0
   -0.1837   -2.4919    6.1338 H   0  0  0  0  0  0  0  0  0  0  0  0
   -0.9729   -1.2941    7.1223 H   0  0  0  0  0  0  0  0  0  0  0  0
   -1.4974   -0.1726    4.0001 H   0  0  0  0  0  0  0  0  0  0  0  0
   -1.6328    0.5750    1.6987 H   0  0  0  0  0  0  0  0  0  0  0  0
   -0.3080    1.5728    1.1420 H   0  0  0  0  0  0  0  0  0  0  0  0
   -1.5974    2.2726    2.1085 H   0  0  0  0  0  0  0  0  0  0  0  0
  1  2  2  0
  1 28  1  0
  1 29  1  0
  2 14  1  0
  2  3  1  0
  3 25  1  0
  3  4  1  0
  3 30  1  6
  4  5  1  0
  4  6  1  0
  4 31  1  1
  5 32  1  0
  6  7  1  0
  6 33  1  0
  6 34  1  0
  7 22  1  0
  7  8  1  1
  7 10  1  0
  8  9  1  0
  9 35  1  0
  9 36  1  0
  9 37  1  0
 10 25  1  0
 10 11  1  0
 10 38  1  6
 11 12  1  0
 11 13  1  0
 11 14  1  0
 12 39  1  0
 12 40  1  0
 12 41  1  0
 13 42  1  0
 13 43  1  0
 13 44  1  0
 14 15  1  0
 14 45  1  1
 15 20  1  0
 15 16  1  0
 15 25  1  1
 16 17  1  0
 16 18  1  0
 16 46  1  6
 17 47  1  0
 17 48  1  0
 17 49  1  0
 18 19  1  0
 18 50  1  0
 18 51  1  0
 19 20  1  0
 19 22  1  0
 19 52  1  6
 20 21  1  0
 20 53  1  1
 21 54  1  0
 22 23  1  0
 22 24  1  6
 23 55  1  0
 23 56  1  0
 23 57  1  0
 24 58  1  0
 25 26  1  1
 26 27  1  0
 27 59  1  0
 27 60  1  0
 27 61  1  0
M  END
>  <i_m_ct_stereo_status>  (333) 
1

>  <s_m_source_file>  (333) 
/var/tmp/pbs.5076255.sched01/tmpcwktr4ti/1290j0z1rin.sdf

>  <i_m_source_file_index>  (333) 
20

>  <i_lp_mmshare_version>  (333) 
48012

>  <i_f3d_flags>  (333) 
0

>  <s_epik_input>  (333) 
W0NAXTEyM1tDQEhdNEMoPVtDSDJdKVtDQEhdNVtDQF0zKE9bQ0gzXSlbQ0BASF0oQzQoW0NIM10pW0NIM10pW0NAQF0oT1tDSDNdKShbQ0gyXVtDQEBIXTVbT0hdKVtDQEBdKFtDSDNdKShbT0hdKVtDQEhdKFtDQEhdMltPSF0pW0NIMl1bQ0BASF0xW0NIM10=

>  <s_epik_cmdline>  (333) 
J2VwaWtfcHl0aG9uJywgJy1waHQnLCAnMi4wJywgJy1waCcsICc3LjAnLCAnLXRuJywgJzgnLCAnLW1hJywgJzIwMCcsICctaW1hZScsICc8aW5maWxlLm1hZT4nLCAnLW9tYWUnLCAnPG91dGZpbGUubWFlPic=

>  <r_lp_tautomer_probability>  (333) 
1

>  <r_epik_Ionization_Penalty>  (333) 
5.64873e-07

>  <r_epik_Ionization_Penalty_Charging>  (333) 
0

>  <r_epik_Ionization_Penalty_Neutral>  (333) 
5.64873e-07

>  <r_epik_State_Penalty>  (333) 
-0

>  <r_epik_Charging_Adjusted_Penalty>  (333) 
0

>  <i_epik_Tot_Q>  (333) 
0

>  <i_epik_Tot_abs_Q>  (333) 
0

>  <s_lp_Force_Field>  (333) 
OPLS3e

>  <r_lp_Energy>  (333) 
280.904

>  <b_lp_Chiralities_Consistent>  (333) 
1

>  <s_lp_Variant>  (333) 
98:0-1

>  <s_i_glide_gridfile>  (333) 
pfpi4k_grid

>  <i_i_glide_lignum>  (333) 
20

>  <i_i_glide_rotatable_bonds>  (333) 
5

>  <r_i_docking_score>  (333) 
-3.11316

>  <r_i_glide_ligand_efficiency>  (333) 
-0.115302

>  <r_i_glide_ligand_efficiency_sa>  (333) 
-0.345906

>  <r_i_glide_ligand_efficiency_ln>  (333) 
-0.724692

>  <r_i_glide_gscore>  (333) 
-3.11316

>  <r_i_glide_lipo>  (333) 
-0.01681

>  <r_i_glide_hbond>  (333) 
0

>  <r_i_glide_metal>  (333) 
-0

>  <r_i_glide_rewards>  (333) 
-1.32839

>  <r_i_glide_evdw>  (333) 
-19.6165

>  <r_i_glide_ecoul>  (333) 
-5.24751

>  <r_i_glide_erotb>  (333) 
0

>  <r_i_glide_esite>  (333) 
0

>  <r_i_glide_emodel>  (333) 
-34.33

>  <r_i_glide_energy>  (333) 
-24.8641

>  <r_i_glide_einternal>  (333) 
1.94888

>  <r_i_glide_intrahb_reward>  (333) 
-0.5

>  <i_i_glide_confnum>  (333) 
2

>  <i_i_glide_posenum>  (333) 
25

>  <r_i_glide_eff_state_penalty>  (333) 
0

>  <ligand_id>  (333) 
98

>  <original_smiles>  (333) 
C=C1C2C(O)CC3(OC)C4C(C)(C)C1C1(C(C)CC(C1O)C3(C)O)C24OC

>  <smiles>  (333) 
[H]OC1([H])C([H])([H])C2(OC([H])([H])[H])C3([H])C4(OC([H])([H])[H])C1([H])C(=C([H])[H])C([H])(C3(C([H])([H])[H])C([H])([H])[H])C41C([H])(O[H])C([H])(C([H])([H])C1([H])C([H])([H])[H])C2(O[H])C([H])([H])[H]

$$$$
98:0:2
     RDKit          3D

 61 65  0  0  1  0  0  0  0  0999 V2000
    0.2442    5.2907    4.4852 C   0  0  0  0  0  0  0  0  0  0  0  0
    0.4809    4.0531    4.8906 C   0  0  0  0  0  0  0  0  0  0  0  0
    0.6518    2.8259    4.0097 C   0  0  2  0  0  0  0  0  0  0  0  0
   -0.5264    1.8685    3.5212 C   0  0  1  0  0  0  0  0  0  0  0  0
   -0.5446    1.8271    2.1126 O   0  0  0  0  0  0  0  0  0  0  0  0
   -0.4356    0.3241    4.0046 C   0  0  0  0  0  0  0  0  0  0  0  0
    0.0407    0.0308    5.5204 C   0  0  2  0  0  0  0  0  0  0  0  0
   -1.0438   -0.6264    6.2194 O   0  0  0  0  0  0  0  0  0  0  0  0
   -1.4575   -1.8878    5.6784 C   0  0  0  0  0  0  0  0  0  0  0  0
    0.2226    1.4438    5.9335 C   0  0  2  0  0  0  0  0  0  0  0  0
   -0.3797    2.7012    6.7159 C   0  0  0  0  0  0  0  0  0  0  0  0
   -1.8012    3.2133    6.3076 C   0  0  0  0  0  0  0  0  0  0  0  0
   -0.4817    2.6420    8.2787 C   0  0  0  0  0  0  0  0  0  0  0  0
    0.8406    3.6233    6.3176 C   0  0  1  0  0  0  0  0  0  0  0  0
    2.0904    2.6226    6.2091 C   0  0  1  0  0  0  0  0  0  0  0  0
    3.5257    2.7280    5.6569 C   0  0  1  0  0  0  0  0  0  0  0  0
    4.4719    3.7907    6.2510 C   0  0  0  0  0  0  0  0  0  0  0  0
    3.9668    1.1898    5.8264 C   0  0  0  0  0  0  0  0  0  0  0  0
    2.8377    0.3745    6.6399 C   0  0  1  0  0  0  0  0  0  0  0  0
    2.3904    1.6114    7.4252 C   0  0  1  0  0  0  0  0  0  0  0  0
    3.3233    2.0533    8.3704 O   0  0  0  0  0  0  0  0  0  0  0  0
    1.5736   -0.5912    6.0181 C   0  0  1  0  0  0  0  0  0  0  0  0
    1.3940   -1.6470    7.1456 C   0  0  0  0  0  0  0  0  0  0  0  0
    2.0797   -1.3897    4.9796 O   0  0  0  0  0  0  0  0  0  0  0  0
    1.3814    1.9618    5.0051 C   0  0  2  0  0  0  0  0  0  0  0  0
    2.0899    1.0378    4.0868 O   0  0  0  0  0  0  0  0  0  0  0  0
    2.7067    1.3359    2.8212 C   0  0  0  0  0  0  0  0  0  0  0  0
    0.2140    6.1206    5.1892 H   0  0  0  0  0  0  0  0  0  0  0  0
    0.0552    5.5171    3.4380 H   0  0  0  0  0  0  0  0  0  0  0  0
    1.2332    3.2140    3.1677 H   0  0  0  0  0  0  0  0  0  0  0  0
   -1.5034    2.2441    3.7999 H   0  0  0  0  0  0  0  0  0  0  0  0
   -0.4220    2.7113    1.7706 H   0  0  0  0  0  0  0  0  0  0  0  0
   -1.4367   -0.0634    3.8315 H   0  0  0  0  0  0  0  0  0  0  0  0
    0.1889   -0.2452    3.3206 H   0  0  0  0  0  0  0  0  0  0  0  0
   -1.9189   -2.4899    6.4599 H   0  0  0  0  0  0  0  0  0  0  0  0
   -0.6430   -2.4768    5.2429 H   0  0  0  0  0  0  0  0  0  0  0  0
   -2.2048   -1.7659    4.8881 H   0  0  0  0  0  0  0  0  0  0  0  0
    0.2901    0.9722    6.8817 H   0  0  0  0  0  0  0  0  0  0  0  0
   -2.0422    4.1297    6.8520 H   0  0  0  0  0  0  0  0  0  0  0  0
   -2.5701    2.4785    6.5521 H   0  0  0  0  0  0  0  0  0  0  0  0
   -1.9481    3.5100    5.2739 H   0  0  0  0  0  0  0  0  0  0  0  0
   -1.1753    3.3886    8.6693 H   0  0  0  0  0  0  0  0  0  0  0  0
    0.4519    2.8984    8.7790 H   0  0  0  0  0  0  0  0  0  0  0  0
   -0.8348    1.6769    8.6425 H   0  0  0  0  0  0  0  0  0  0  0  0
    0.9926    4.4862    6.9756 H   0  0  0  0  0  0  0  0  0  0  0  0
    3.4883    3.0588    4.6254 H   0  0  0  0  0  0  0  0  0  0  0  0
    4.7658    3.6578    7.2913 H   0  0  0  0  0  0  0  0  0  0  0  0
    4.0206    4.7779    6.1668 H   0  0  0  0  0  0  0  0  0  0  0  0
    5.4003    3.8199    5.6846 H   0  0  0  0  0  0  0  0  0  0  0  0
    4.2569    0.6915    4.9033 H   0  0  0  0  0  0  0  0  0  0  0  0
    4.8914    1.1632    6.4083 H   0  0  0  0  0  0  0  0  0  0  0  0
    3.4127   -0.2690    7.3086 H   0  0  0  0  0  0  0  0  0  0  0  0
    1.6379    1.3266    8.1538 H   0  0  0  0  0  0  0  0  0  0  0  0
    4.1300    2.2774    7.9026 H   0  0  0  0  0  0  0  0  0  0  0  0
    0.9789   -1.2005    8.0434 H   0  0  0  0  0  0  0  0  0  0  0  0
    2.3496   -2.0947    7.4205 H   0  0  0  0  0  0  0  0  0  0  0  0
    0.7830   -2.5081    6.8862 H   0  0  0  0  0  0  0  0  0  0  0  0
    2.2621   -0.7924    4.2574 H   0  0  0  0  0  0  0  0  0  0  0  0
    3.3524    0.4884    2.5746 H   0  0  0  0  0  0  0  0  0  0  0  0
    3.3506    2.2104    2.7830 H   0  0  0  0  0  0  0  0  0  0  0  0
    1.9938    1.4175    2.0029 H   0  0  0  0  0  0  0  0  0  0  0  0
  1  2  2  0
  1 28  1  0
  1 29  1  0
  2 14  1  0
  2  3  1  0
  3 25  1  0
  3  4  1  0
  3 30  1  6
  4  5  1  0
  4  6  1  0
  4 31  1  1
  5 32  1  0
  6  7  1  0
  6 33  1  0
  6 34  1  0
  7 22  1  0
  7  8  1  1
  7 10  1  0
  8  9  1  0
  9 35  1  0
  9 36  1  0
  9 37  1  0
 10 25  1  0
 10 11  1  0
 10 38  1  1
 11 12  1  0
 11 13  1  0
 11 14  1  0
 12 39  1  0
 12 40  1  0
 12 41  1  0
 13 42  1  0
 13 43  1  0
 13 44  1  0
 14 15  1  0
 14 45  1  1
 15 20  1  0
 15 16  1  0
 15 25  1  6
 16 17  1  0
 16 18  1  0
 16 46  1  6
 17 47  1  0
 17 48  1  0
 17 49  1  0
 18 19  1  0
 18 50  1  0
 18 51  1  0
 19 20  1  0
 19 22  1  0
 19 52  1  1
 20 21  1  0
 20 53  1  1
 21 54  1  0
 22 23  1  0
 22 24  1  6
 23 55  1  0
 23 56  1  0
 23 57  1  0
 24 58  1  0
 25 26  1  6
 26 27  1  0
 27 59  1  0
 27 60  1  0
 27 61  1  0
M  END
>  <i_m_ct_stereo_status>  (334) 
1

>  <s_m_source_file>  (334) 
/var/tmp/pbs.5076255.sched01/tmpcwktr4ti/1290j0z1rin.sdf

>  <i_m_source_file_index>  (334) 
20

>  <i_lp_mmshare_version>  (334) 
48012

>  <i_f3d_flags>  (334) 
0

>  <s_epik_input>  (334) 
W0NAXTEyM1tDQEhdNEMoPVtDSDJdKVtDQEhdNVtDQF0zKE9bQ0gzXSlbQ0BASF0oQzQoW0NIM10pW0NIM10pW0NAQF0oT1tDSDNdKShbQ0gyXVtDQEBIXTVbT0hdKVtDQEBdKFtDSDNdKShbT0hdKVtDQEhdKFtDQEhdMltPSF0pW0NIMl1bQ0BASF0xW0NIM10=

>  <s_epik_cmdline>  (334) 
J2VwaWtfcHl0aG9uJywgJy1waHQnLCAnMi4wJywgJy1waCcsICc3LjAnLCAnLXRuJywgJzgnLCAnLW1hJywgJzIwMCcsICctaW1hZScsICc8aW5maWxlLm1hZT4nLCAnLW9tYWUnLCAnPG91dGZpbGUubWFlPic=

>  <r_lp_tautomer_probability>  (334) 
1

>  <r_epik_Ionization_Penalty>  (334) 
5.64873e-07

>  <r_epik_Ionization_Penalty_Charging>  (334) 
0

>  <r_epik_Ionization_Penalty_Neutral>  (334) 
5.64873e-07

>  <r_epik_State_Penalty>  (334) 
-0

>  <r_epik_Charging_Adjusted_Penalty>  (334) 
0

>  <i_epik_Tot_Q>  (334) 
0

>  <i_epik_Tot_abs_Q>  (334) 
0

>  <s_lp_Force_Field>  (334) 
OPLS3e

>  <r_lp_Energy>  (334) 
280.904

>  <b_lp_Chiralities_Consistent>  (334) 
1

>  <s_lp_Variant>  (334) 
98:0-1

>  <s_i_glide_gridfile>  (334) 
pfpi4k_grid

>  <i_i_glide_lignum>  (334) 
20

>  <i_i_glide_rotatable_bonds>  (334) 
5

>  <r_i_docking_score>  (334) 
-2.62317

>  <r_i_glide_ligand_efficiency>  (334) 
-0.0971546

>  <r_i_glide_ligand_efficiency_sa>  (334) 
-0.291464

>  <r_i_glide_ligand_efficiency_ln>  (334) 
-0.610632

>  <r_i_glide_gscore>  (334) 
-2.62317

>  <r_i_glide_lipo>  (334) 
-0.0602099

>  <r_i_glide_hbond>  (334) 
-0.0513068

>  <r_i_glide_metal>  (334) 
-0

>  <r_i_glide_rewards>  (334) 
-1.32839

>  <r_i_glide_evdw>  (334) 
-14.9644

>  <r_i_glide_ecoul>  (334) 
-2.90029

>  <r_i_glide_erotb>  (334) 
0

>  <r_i_glide_esite>  (334) 
0

>  <r_i_glide_emodel>  (334) 
-26.6121

>  <r_i_glide_energy>  (334) 
-17.8647

>  <r_i_glide_einternal>  (334) 
1.22181

>  <r_i_glide_intrahb_reward>  (334) 
-0.5

>  <i_i_glide_confnum>  (334) 
1

>  <i_i_glide_posenum>  (334) 
17

>  <r_i_glide_eff_state_penalty>  (334) 
0

>  <ligand_id>  (334) 
98

>  <original_smiles>  (334) 
C=C1C2C(O)CC3(OC)C4C(C)(C)C1C1(C(C)CC(C1O)C3(C)O)C24OC

>  <smiles>  (334) 
[H]OC1([H])C([H])([H])C2(OC([H])([H])[H])C3([H])C4(OC([H])([H])[H])C1([H])C(=C([H])[H])C([H])(C3(C([H])([H])[H])C([H])([H])[H])C41C([H])(O[H])C([H])(C([H])([H])C1([H])C([H])([H])[H])C2(O[H])C([H])([H])[H]

$$$$
100:0:0
     RDKit          3D

 43 46  0  0  1  0  0  0  0  0999 V2000
    3.2860   -1.5415   -3.3654 C   0  0  0  0  0  0  0  0  0  0  0  0
    4.1358   -2.5172   -2.5381 C   0  0  0  0  0  0  0  0  0  0  0  0
    4.3860   -3.7425   -3.4551 C   0  0  0  0  0  0  0  0  0  0  0  0
    5.3603   -1.9112   -1.8003 C   0  0  2  0  0  0  0  0  0  0  0  0
    6.4159   -2.9350   -1.3750 C   0  0  0  0  0  0  0  0  0  0  0  0
    5.7746   -3.9325   -0.4114 C   0  0  0  0  0  0  0  0  0  0  0  0
    4.2257   -4.0842   -0.4296 C   0  0  1  0  0  0  0  0  0  0  0  0
    3.5860   -4.3860    0.9576 C   0  0  0  0  0  0  0  0  0  0  0  0
    3.6257   -5.8250    1.4202 N   0  0  0  0  0  0  0  0  0  0  0  0
    2.4886   -6.5755    1.3186 C   0  0  0  0  0  0  0  0  0  0  0  0
    1.4067   -6.1301    0.9079 O   0  0  0  0  0  0  0  0  0  0  0  0
    2.5409   -8.0565    1.6682 C   0  0  0  0  0  0  0  0  0  0  0  0
    3.4534   -8.3419    3.2145 S   0  0  0  0  0  0  0  0  0  0  0  0
    4.9506   -7.4995    2.7758 C   0  0  0  0  0  0  0  0  0  0  0  0
    6.1838   -8.0043    3.2309 C   0  0  0  0  0  0  0  0  0  0  0  0
    7.3587   -7.3632    2.8071 C   0  0  0  0  0  0  0  0  0  0  0  0
    7.2067   -6.2142    1.9668 C   0  0  0  0  0  0  0  0  0  0  0  0
    6.0368   -5.7367    1.5883 N   0  0  0  0  0  0  0  0  0  0  0  0
    4.9018   -6.3134    1.9247 C   0  0  0  0  0  0  0  0  0  0  0  0
    3.6454   -2.8230   -1.0914 C   0  0  1  0  0  0  0  0  0  0  0  0
    4.3633   -1.5198   -0.6804 C   0  0  0  0  0  0  0  0  0  0  0  0
    3.8267   -1.2278   -4.2688 H   0  0  0  0  0  0  0  0  0  0  0  0
    3.0215   -0.6349   -2.8213 H   0  0  0  0  0  0  0  0  0  0  0  0
    2.3407   -2.0062   -3.6814 H   0  0  0  0  0  0  0  0  0  0  0  0
    4.9612   -4.5328   -3.0006 H   0  0  0  0  0  0  0  0  0  0  0  0
    4.9446   -3.4736   -4.3588 H   0  0  0  0  0  0  0  0  0  0  0  0
    3.4480   -4.2204   -3.7705 H   0  0  0  0  0  0  0  0  0  0  0  0
    5.8047   -1.0698   -2.3151 H   0  0  0  0  0  0  0  0  0  0  0  0
    6.8191   -3.4747   -2.2335 H   0  0  0  0  0  0  0  0  0  0  0  0
    7.2882   -2.4726   -0.8907 H   0  0  0  0  0  0  0  0  0  0  0  0
    6.2333   -4.9081   -0.5460 H   0  0  0  0  0  0  0  0  0  0  0  0
    6.0613   -3.5130    0.5523 H   0  0  0  0  0  0  0  0  0  0  0  0
    3.9885   -4.9494   -1.0548 H   0  0  0  0  0  0  0  0  0  0  0  0
    4.0428   -3.7666    1.7396 H   0  0  0  0  0  0  0  0  0  0  0  0
    2.5517   -4.0137    0.9397 H   0  0  0  0  0  0  0  0  0  0  0  0
    1.5233   -8.4882    1.7303 H   0  0  0  0  0  0  0  0  0  0  0  0
    3.0647   -8.5795    0.8789 H   0  0  0  0  0  0  0  0  0  0  0  0
    6.2257   -8.8664    3.8841 H   0  0  0  0  0  0  0  0  0  0  0  0
    8.3594   -7.7166    3.0683 H   0  0  0  0  0  0  0  0  0  0  0  0
    8.0785   -5.7062    1.5815 H   0  0  0  0  0  0  0  0  0  0  0  0
    2.5588   -2.7705   -1.0235 H   0  0  0  0  0  0  0  0  0  0  0  0
    4.7646   -1.5233    0.3517 H   0  0  0  0  0  0  0  0  0  0  0  0
    3.7869   -0.6111   -0.8750 H   0  0  0  0  0  0  0  0  0  0  0  0
  1  2  1  0
  1 22  1  0
  1 23  1  0
  1 24  1  0
  2 20  1  0
  2  3  1  0
  2  4  1  0
  3 25  1  0
  3 26  1  0
  3 27  1  0
  4 21  1  0
  4  5  1  0
  4 28  1  6
  5  6  1  0
  5 29  1  0
  5 30  1  0
  6  7  1  0
  6 31  1  0
  6 32  1  0
  7  8  1  0
  7 20  1  0
  7 33  1  6
  8  9  1  0
  8 34  1  0
  8 35  1  0
  9 19  1  0
  9 10  1  0
 10 11  2  0
 10 12  1  0
 12 13  1  0
 12 36  1  0
 12 37  1  0
 13 14  1  0
 14 19  2  0
 14 15  1  0
 15 16  2  0
 15 38  1  0
 16 17  1  0
 16 39  1  0
 17 18  2  0
 17 40  1  0
 18 19  1  0
 20 21  1  0
 20 41  1  6
 21 42  1  0
 21 43  1  0
M  END
>  <i_m_ct_stereo_status>  (335) 
1

>  <s_m_source_file>  (335) 
/var/tmp/pbs.5076255.sched01/tmpcwktr4ti/1290j0z1rin.sdf

>  <i_m_source_file_index>  (335) 
22

>  <i_lp_mmshare_version>  (335) 
48012

>  <i_f3d_flags>  (335) 
0

>  <s_epik_input>  (335) 
W0NIM11DKFtDSDNdKShbQ0BIXTEyKVtDQEhdKFtDSDJdMilbQ0BASF0oW0NIMl1bQ0gyXTEpW0NIMl1OKEMoPU8pW0NIMl1TMyljKGMzNCluW2NIXVtjSF1bY0hdNA==

>  <s_epik_cmdline>  (335) 
J2VwaWtfcHl0aG9uJywgJy1waHQnLCAnMi4wJywgJy1waCcsICc3LjAnLCAnLXRuJywgJzgnLCAnLW1hJywgJzIwMCcsICctaW1hZScsICc8aW5maWxlLm1hZT4nLCAnLW9tYWUnLCAnPG91dGZpbGUubWFlPic=

>  <r_lp_tautomer_probability>  (335) 
1

>  <r_epik_Ionization_Penalty>  (335) 
0.000172412

>  <r_epik_Ionization_Penalty_Charging>  (335) 
0

>  <r_epik_Ionization_Penalty_Neutral>  (335) 
0.000172412

>  <r_epik_State_Penalty>  (335) 
-0

>  <r_epik_Charging_Adjusted_Penalty>  (335) 
0

>  <i_epik_Tot_Q>  (335) 
0

>  <i_epik_Tot_abs_Q>  (335) 
0

>  <s_lp_Force_Field>  (335) 
OPLS3e

>  <r_lp_Energy>  (335) 
53.3605

>  <b_lp_Chiralities_Consistent>  (335) 
1

>  <s_lp_Variant>  (335) 
100:0-1

>  <s_i_glide_gridfile>  (335) 
pfpi4k_grid

>  <i_i_glide_lignum>  (335) 
22

>  <i_i_glide_rotatable_bonds>  (335) 
2

>  <r_i_docking_score>  (335) 
-3.00454

>  <r_i_glide_ligand_efficiency>  (335) 
-0.143074

>  <r_i_glide_ligand_efficiency_sa>  (335) 
-0.394729

>  <r_i_glide_ligand_efficiency_ln>  (335) 
-0.742867

>  <r_i_glide_gscore>  (335) 
-3.00454

>  <r_i_glide_lipo>  (335) 
-0.372766

>  <r_i_glide_hbond>  (335) 
-0.132119

>  <r_i_glide_metal>  (335) 
-0

>  <r_i_glide_rewards>  (335) 
-1.39387

>  <r_i_glide_evdw>  (335) 
-23.27

>  <r_i_glide_ecoul>  (335) 
-2.24093

>  <r_i_glide_erotb>  (335) 
0.402594

>  <r_i_glide_esite>  (335) 
-0.00874245

>  <r_i_glide_emodel>  (335) 
-27.0754

>  <r_i_glide_energy>  (335) 
-25.5109

>  <r_i_glide_einternal>  (335) 
2.46982

>  <r_i_glide_intrahb_reward>  (335) 
-0

>  <i_i_glide_confnum>  (335) 
4

>  <i_i_glide_posenum>  (335) 
19

>  <r_i_glide_eff_state_penalty>  (335) 
0

>  <ligand_id>  (335) 
100

>  <original_smiles>  (335) 
CC1(C)C2CCC(CN3C(=O)CSc4cccnc43)C1C2

>  <smiles>  (335) 
[H]c1nc2c(c([H])c1[H])SC([H])([H])C(=O)N2C([H])([H])C1([H])C([H])([H])C([H])([H])C2([H])C([H])([H])C1([H])C2(C([H])([H])[H])C([H])([H])[H]

$$$$
100:0:1
     RDKit          3D

 43 46  0  0  1  0  0  0  0  0999 V2000
    2.9745   -1.6312   -4.1453 C   0  0  0  0  0  0  0  0  0  0  0  0
    3.8659   -2.3906   -3.1400 C   0  0  0  0  0  0  0  0  0  0  0  0
    4.2312   -3.7160   -3.8427 C   0  0  0  0  0  0  0  0  0  0  0  0
    5.0106   -1.6071   -2.4607 C   0  0  2  0  0  0  0  0  0  0  0  0
    6.1194   -2.4714   -1.8369 C   0  0  0  0  0  0  0  0  0  0  0  0
    5.5295   -3.2858   -0.6659 C   0  0  0  0  0  0  0  0  0  0  0  0
    4.0010   -3.5754   -0.7821 C   0  0  1  0  0  0  0  0  0  0  0  0
    3.3155   -3.6464    0.5961 C   0  0  0  0  0  0  0  0  0  0  0  0
    3.7832   -4.7870    1.4394 N   0  0  0  0  0  0  0  0  0  0  0  0
    4.9295   -4.5869    2.1509 C   0  0  0  0  0  0  0  0  0  0  0  0
    5.5232   -3.5169    2.1588 O   0  0  0  0  0  0  0  0  0  0  0  0
    5.4300   -5.7184    3.0704 C   0  0  0  0  0  0  0  0  0  0  0  0
    5.2816   -7.3453    2.2695 S   0  0  0  0  0  0  0  0  0  0  0  0
    3.5892   -7.2362    1.8542 C   0  0  0  0  0  0  0  0  0  0  0  0
    2.7872   -8.3964    1.9559 C   0  0  0  0  0  0  0  0  0  0  0  0
    1.4183   -8.2716    1.6904 C   0  0  0  0  0  0  0  0  0  0  0  0
    0.9051   -7.0287    1.3224 C   0  0  0  0  0  0  0  0  0  0  0  0
    1.6708   -5.9134    1.2272 N   0  0  0  0  0  0  0  0  0  0  0  0
    2.9898   -5.9844    1.4828 C   0  0  0  0  0  0  0  0  0  0  0  0
    3.3458   -2.5011   -1.6830 C   0  0  1  0  0  0  0  0  0  0  0  0
    3.9312   -1.0926   -1.4855 C   0  0  0  0  0  0  0  0  0  0  0  0
    3.5060   -1.4369   -5.0800 H   0  0  0  0  0  0  0  0  0  0  0  0
    2.6218   -0.6662   -3.7846 H   0  0  0  0  0  0  0  0  0  0  0  0
    2.0765   -2.2214   -4.3387 H   0  0  0  0  0  0  0  0  0  0  0  0
    4.8433   -4.3733   -3.2348 H   0  0  0  0  0  0  0  0  0  0  0  0
    4.8079   -3.5652   -4.7441 H   0  0  0  0  0  0  0  0  0  0  0  0
    3.3376   -4.2844   -4.0876 H   0  0  0  0  0  0  0  0  0  0  0  0
    5.3701   -0.7967   -3.0845 H   0  0  0  0  0  0  0  0  0  0  0  0
    6.6124   -3.0990   -2.6000 H   0  0  0  0  0  0  0  0  0  0  0  0
    6.9118   -1.8550   -1.4290 H   0  0  0  0  0  0  0  0  0  0  0  0
    6.1009   -4.1999   -0.5100 H   0  0  0  0  0  0  0  0  0  0  0  0
    5.6692   -2.6798    0.2185 H   0  0  0  0  0  0  0  0  0  0  0  0
    3.8273   -4.5471   -1.2440 H   0  0  0  0  0  0  0  0  0  0  0  0
    3.4088   -2.6949    1.1296 H   0  0  0  0  0  0  0  0  0  0  0  0
    2.2558   -3.7060    0.3946 H   0  0  0  0  0  0  0  0  0  0  0  0
    6.4698   -5.5600    3.3880 H   0  0  0  0  0  0  0  0  0  0  0  0
    4.8168   -5.7230    3.9879 H   0  0  0  0  0  0  0  0  0  0  0  0
    3.2413   -9.3212    2.2542 H   0  0  0  0  0  0  0  0  0  0  0  0
    0.7833   -9.1469    1.7569 H   0  0  0  0  0  0  0  0  0  0  0  0
   -0.1412   -6.9218    1.0815 H   0  0  0  0  0  0  0  0  0  0  0  0
    2.2510   -2.5303   -1.6623 H   0  0  0  0  0  0  0  0  0  0  0  0
    4.2654   -0.8565   -0.4557 H   0  0  0  0  0  0  0  0  0  0  0  0
    3.3400   -0.2867   -1.9220 H   0  0  0  0  0  0  0  0  0  0  0  0
  1  2  1  0
  1 22  1  0
  1 23  1  0
  1 24  1  0
  2 20  1  0
  2  3  1  0
  2  4  1  0
  3 25  1  0
  3 26  1  0
  3 27  1  0
  4 21  1  0
  4  5  1  0
  4 28  1  6
  5  6  1  0
  5 29  1  0
  5 30  1  0
  6  7  1  0
  6 31  1  0
  6 32  1  0
  7  8  1  0
  7 20  1  0
  7 33  1  6
  8  9  1  0
  8 34  1  0
  8 35  1  0
  9 19  1  0
  9 10  1  0
 10 11  2  0
 10 12  1  0
 12 13  1  0
 12 36  1  0
 12 37  1  0
 13 14  1  0
 14 19  2  0
 14 15  1  0
 15 16  2  0
 15 38  1  0
 16 17  1  0
 16 39  1  0
 17 18  2  0
 17 40  1  0
 18 19  1  0
 20 21  1  0
 20 41  1  6
 21 42  1  0
 21 43  1  0
M  END
>  <i_m_ct_stereo_status>  (336) 
1

>  <s_m_source_file>  (336) 
/var/tmp/pbs.5076255.sched01/tmpcwktr4ti/1290j0z1rin.sdf

>  <i_m_source_file_index>  (336) 
22

>  <i_lp_mmshare_version>  (336) 
48012

>  <i_f3d_flags>  (336) 
0

>  <s_epik_input>  (336) 
W0NIM11DKFtDSDNdKShbQ0BIXTEyKVtDQEhdKFtDSDJdMilbQ0BASF0oW0NIMl1bQ0gyXTEpW0NIMl1OKEMoPU8pW0NIMl1TMyljKGMzNCluW2NIXVtjSF1bY0hdNA==

>  <s_epik_cmdline>  (336) 
J2VwaWtfcHl0aG9uJywgJy1waHQnLCAnMi4wJywgJy1waCcsICc3LjAnLCAnLXRuJywgJzgnLCAnLW1hJywgJzIwMCcsICctaW1hZScsICc8aW5maWxlLm1hZT4nLCAnLW9tYWUnLCAnPG91dGZpbGUubWFlPic=

>  <r_lp_tautomer_probability>  (336) 
1

>  <r_epik_Ionization_Penalty>  (336) 
0.000172412

>  <r_epik_Ionization_Penalty_Charging>  (336) 
0

>  <r_epik_Ionization_Penalty_Neutral>  (336) 
0.000172412

>  <r_epik_State_Penalty>  (336) 
-0

>  <r_epik_Charging_Adjusted_Penalty>  (336) 
0

>  <i_epik_Tot_Q>  (336) 
0

>  <i_epik_Tot_abs_Q>  (336) 
0

>  <s_lp_Force_Field>  (336) 
OPLS3e

>  <r_lp_Energy>  (336) 
53.3605

>  <b_lp_Chiralities_Consistent>  (336) 
1

>  <s_lp_Variant>  (336) 
100:0-1

>  <s_i_glide_gridfile>  (336) 
pfpi4k_grid

>  <i_i_glide_lignum>  (336) 
22

>  <i_i_glide_rotatable_bonds>  (336) 
2

>  <r_i_docking_score>  (336) 
-2.6727

>  <r_i_glide_ligand_efficiency>  (336) 
-0.127271

>  <r_i_glide_ligand_efficiency_sa>  (336) 
-0.351132

>  <r_i_glide_ligand_efficiency_ln>  (336) 
-0.660819

>  <r_i_glide_gscore>  (336) 
-2.6727

>  <r_i_glide_lipo>  (336) 
-0.284377

>  <r_i_glide_hbond>  (336) 
-0.0765464

>  <r_i_glide_metal>  (336) 
-0

>  <r_i_glide_rewards>  (336) 
-1.39382

>  <r_i_glide_evdw>  (336) 
-21.9079

>  <r_i_glide_ecoul>  (336) 
-1.50104

>  <r_i_glide_erotb>  (336) 
0.402594

>  <r_i_glide_esite>  (336) 
0

>  <r_i_glide_emodel>  (336) 
-26.8882

>  <r_i_glide_energy>  (336) 
-23.4089

>  <r_i_glide_einternal>  (336) 
0.226663

>  <r_i_glide_intrahb_reward>  (336) 
-0

>  <i_i_glide_confnum>  (336) 
3

>  <i_i_glide_posenum>  (336) 
12

>  <r_i_glide_eff_state_penalty>  (336) 
0

>  <ligand_id>  (336) 
100

>  <original_smiles>  (336) 
CC1(C)C2CCC(CN3C(=O)CSc4cccnc43)C1C2

>  <smiles>  (336) 
[H]c1nc2c(c([H])c1[H])SC([H])([H])C(=O)N2C([H])([H])C1([H])C([H])([H])C([H])([H])C2([H])C([H])([H])C1([H])C2(C([H])([H])[H])C([H])([H])[H]

$$$$
100:0:2
     RDKit          3D

 43 46  0  0  1  0  0  0  0  0999 V2000
   -0.9336   -8.9670    3.2789 C   0  0  0  0  0  0  0  0  0  0  0  0
    0.5478   -8.9856    3.7294 C   0  0  0  0  0  0  0  0  0  0  0  0
    0.7312   -7.6914    4.5530 C   0  0  0  0  0  0  0  0  0  0  0  0
    1.1051  -10.3006    4.3444 C   0  0  2  0  0  0  0  0  0  0  0  0
    2.4045  -10.1642    5.1568 C   0  0  0  0  0  0  0  0  0  0  0  0
    3.5542   -9.6627    4.2490 C   0  0  0  0  0  0  0  0  0  0  0  0
    3.0772   -8.8945    2.9768 C   0  0  1  0  0  0  0  0  0  0  0  0
    4.0148   -9.1178    1.7687 C   0  0  0  0  0  0  0  0  0  0  0  0
    5.2910   -8.3836    1.9112 N   0  0  0  0  0  0  0  0  0  0  0  0
    6.3713   -9.0190    2.4265 C   0  0  0  0  0  0  0  0  0  0  0  0
    6.3301  -10.1804    2.8598 O   0  0  0  0  0  0  0  0  0  0  0  0
    7.7161   -8.3024    2.4886 C   0  0  0  0  0  0  0  0  0  0  0  0
    7.5443   -6.6134    3.0810 S   0  0  0  0  0  0  0  0  0  0  0  0
    6.3215   -6.0978    1.9351 C   0  0  0  0  0  0  0  0  0  0  0  0
    6.3669   -4.7775    1.4510 C   0  0  0  0  0  0  0  0  0  0  0  0
    5.4267   -4.3683    0.5017 C   0  0  0  0  0  0  0  0  0  0  0  0
    4.4745   -5.3088    0.0697 C   0  0  0  0  0  0  0  0  0  0  0  0
    4.4313   -6.5729    0.5379 N   0  0  0  0  0  0  0  0  0  0  0  0
    5.3385   -7.0083    1.4427 C   0  0  0  0  0  0  0  0  0  0  0  0
    1.6234   -9.2903    2.6454 C   0  0  1  0  0  0  0  0  0  0  0  0
    1.2961  -10.7746    2.8877 C   0  0  0  0  0  0  0  0  0  0  0  0
   -1.6030   -8.9723    4.1388 H   0  0  0  0  0  0  0  0  0  0  0  0
   -1.2255   -9.8241    2.6707 H   0  0  0  0  0  0  0  0  0  0  0  0
   -1.1587   -8.0784    2.6877 H   0  0  0  0  0  0  0  0  0  0  0  0
    1.7452   -7.5654    4.9394 H   0  0  0  0  0  0  0  0  0  0  0  0
    0.0870   -7.6732    5.4308 H   0  0  0  0  0  0  0  0  0  0  0  0
    0.5358   -6.7966    3.9642 H   0  0  0  0  0  0  0  0  0  0  0  0
    0.3336  -10.8570    4.8764 H   0  0  0  0  0  0  0  0  0  0  0  0
    2.2649   -9.4827    5.9981 H   0  0  0  0  0  0  0  0  0  0  0  0
    2.6839  -11.1155    5.6134 H   0  0  0  0  0  0  0  0  0  0  0  0
    4.2982   -9.0920    4.8108 H   0  0  0  0  0  0  0  0  0  0  0  0
    4.0575  -10.5714    3.9198 H   0  0  0  0  0  0  0  0  0  0  0  0
    3.0915   -7.8258    3.1841 H   0  0  0  0  0  0  0  0  0  0  0  0
    4.1586  -10.1881    1.6138 H   0  0  0  0  0  0  0  0  0  0  0  0
    3.4918   -8.8195    0.8639 H   0  0  0  0  0  0  0  0  0  0  0  0
    8.4249   -8.8631    3.0950 H   0  0  0  0  0  0  0  0  0  0  0  0
    8.1115   -8.2551    1.4715 H   0  0  0  0  0  0  0  0  0  0  0  0
    7.1329   -4.0986    1.8086 H   0  0  0  0  0  0  0  0  0  0  0  0
    5.4376   -3.3688    0.0970 H   0  0  0  0  0  0  0  0  0  0  0  0
    3.7342   -5.0401   -0.6634 H   0  0  0  0  0  0  0  0  0  0  0  0
    1.2927   -8.9257    1.6709 H   0  0  0  0  0  0  0  0  0  0  0  0
    2.1422  -11.4570    2.7324 H   0  0  0  0  0  0  0  0  0  0  0  0
    0.4034  -11.1475    2.3872 H   0  0  0  0  0  0  0  0  0  0  0  0
  1  2  1  0
  1 22  1  0
  1 23  1  0
  1 24  1  0
  2 20  1  0
  2  3  1  0
  2  4  1  0
  3 25  1  0
  3 26  1  0
  3 27  1  0
  4 21  1  0
  4  5  1  0
  4 28  1  1
  5  6  1  0
  5 29  1  0
  5 30  1  0
  6  7  1  0
  6 31  1  0
  6 32  1  0
  7  8  1  0
  7 20  1  0
  7 33  1  1
  8  9  1  0
  8 34  1  0
  8 35  1  0
  9 19  1  0
  9 10  1  0
 10 11  2  0
 10 12  1  0
 12 13  1  0
 12 36  1  0
 12 37  1  0
 13 14  1  0
 14 19  2  0
 14 15  1  0
 15 16  2  0
 15 38  1  0
 16 17  1  0
 16 39  1  0
 17 18  2  0
 17 40  1  0
 18 19  1  0
 20 21  1  0
 20 41  1  6
 21 42  1  0
 21 43  1  0
M  END
>  <i_m_ct_stereo_status>  (337) 
1

>  <s_m_source_file>  (337) 
/var/tmp/pbs.5076255.sched01/tmpcwktr4ti/1290j0z1rin.sdf

>  <i_m_source_file_index>  (337) 
22

>  <i_lp_mmshare_version>  (337) 
48012

>  <i_f3d_flags>  (337) 
0

>  <s_epik_input>  (337) 
W0NIM11DKFtDSDNdKShbQ0BIXTEyKVtDQEhdKFtDSDJdMilbQ0BASF0oW0NIMl1bQ0gyXTEpW0NIMl1OKEMoPU8pW0NIMl1TMyljKGMzNCluW2NIXVtjSF1bY0hdNA==

>  <s_epik_cmdline>  (337) 
J2VwaWtfcHl0aG9uJywgJy1waHQnLCAnMi4wJywgJy1waCcsICc3LjAnLCAnLXRuJywgJzgnLCAnLW1hJywgJzIwMCcsICctaW1hZScsICc8aW5maWxlLm1hZT4nLCAnLW9tYWUnLCAnPG91dGZpbGUubWFlPic=

>  <r_lp_tautomer_probability>  (337) 
1

>  <r_epik_Ionization_Penalty>  (337) 
0.000172412

>  <r_epik_Ionization_Penalty_Charging>  (337) 
0

>  <r_epik_Ionization_Penalty_Neutral>  (337) 
0.000172412

>  <r_epik_State_Penalty>  (337) 
-0

>  <r_epik_Charging_Adjusted_Penalty>  (337) 
0

>  <i_epik_Tot_Q>  (337) 
0

>  <i_epik_Tot_abs_Q>  (337) 
0

>  <s_lp_Force_Field>  (337) 
OPLS3e

>  <r_lp_Energy>  (337) 
53.3605

>  <b_lp_Chiralities_Consistent>  (337) 
1

>  <s_lp_Variant>  (337) 
100:0-1

>  <s_i_glide_gridfile>  (337) 
pfpi4k_grid

>  <i_i_glide_lignum>  (337) 
22

>  <i_i_glide_rotatable_bonds>  (337) 
2

>  <r_i_docking_score>  (337) 
-2.66735

>  <r_i_glide_ligand_efficiency>  (337) 
-0.127016

>  <r_i_glide_ligand_efficiency_sa>  (337) 
-0.350429

>  <r_i_glide_ligand_efficiency_ln>  (337) 
-0.659496

>  <r_i_glide_gscore>  (337) 
-2.66735

>  <r_i_glide_lipo>  (337) 
-0.474353

>  <r_i_glide_hbond>  (337) 
0

>  <r_i_glide_metal>  (337) 
-0

>  <r_i_glide_rewards>  (337) 
-1.4249

>  <r_i_glide_evdw>  (337) 
-22.089

>  <r_i_glide_ecoul>  (337) 
-0.441609

>  <r_i_glide_erotb>  (337) 
0.402594

>  <r_i_glide_esite>  (337) 
0

>  <r_i_glide_emodel>  (337) 
-26.5701

>  <r_i_glide_energy>  (337) 
-22.5306

>  <r_i_glide_einternal>  (337) 
0.80092

>  <r_i_glide_intrahb_reward>  (337) 
-0

>  <i_i_glide_confnum>  (337) 
3

>  <i_i_glide_posenum>  (337) 
30

>  <r_i_glide_eff_state_penalty>  (337) 
0

>  <ligand_id>  (337) 
100

>  <original_smiles>  (337) 
CC1(C)C2CCC(CN3C(=O)CSc4cccnc43)C1C2

>  <smiles>  (337) 
[H]c1nc2c(c([H])c1[H])SC([H])([H])C(=O)N2C([H])([H])C1([H])C([H])([H])C([H])([H])C2([H])C([H])([H])C1([H])C2(C([H])([H])[H])C([H])([H])[H]

$$$$
101:0:0
     RDKit          3D

 32 35  0  0  1  0  0  0  0  0999 V2000
    1.8479   -7.4825    1.6879 C   0  0  0  0  0  0  0  0  0  0  0  0
    3.1540   -7.3662    2.0175 N   0  0  0  0  0  0  0  0  0  0  0  0
    3.8125   -6.2888    1.5714 N   0  0  0  0  0  0  0  0  0  0  0  0
    3.1327   -5.4010    0.8010 C   0  0  0  0  0  0  0  0  0  0  0  0
    3.8884   -4.1453    0.3304 C   0  0  1  0  0  0  0  0  0  0  0  0
    4.1992   -3.1975    1.5208 C   0  0  0  0  0  0  0  0  0  0  0  0
    4.9790   -1.9555    1.0267 C   0  0  2  0  0  0  0  0  0  0  0  0
    4.1216   -1.1840    0.0055 C   0  0  0  0  0  0  0  0  0  0  0  0
    3.8306   -2.0963   -1.2010 C   0  0  1  0  0  0  0  0  0  0  0  0
    5.1466   -2.5366   -1.8667 C   0  0  0  0  0  0  0  0  0  0  0  0
    5.9926   -3.3068   -0.8372 C   0  0  1  0  0  0  0  0  0  0  0  0
    6.3025   -2.4038    0.3732 C   0  0  0  0  0  0  0  0  0  0  0  0
    5.2182   -4.5543   -0.3578 C   0  0  0  0  0  0  0  0  0  0  0  0
    3.0618   -3.3399   -0.7176 C   0  0  0  0  0  0  0  0  0  0  0  0
    1.8160   -5.5191    0.4949 N   0  0  0  0  0  0  0  0  0  0  0  0
    1.1490   -6.5853    0.9497 N   0  0  0  0  0  0  0  0  0  0  0  0
    1.3246   -8.3689    2.0199 H   0  0  0  0  0  0  0  0  0  0  0  0
    3.2788   -2.8853    2.0191 H   0  0  0  0  0  0  0  0  0  0  0  0
    4.7949   -3.7152    2.2746 H   0  0  0  0  0  0  0  0  0  0  0  0
    5.2006   -1.3060    1.8735 H   0  0  0  0  0  0  0  0  0  0  0  0
    3.1814   -0.8753    0.4648 H   0  0  0  0  0  0  0  0  0  0  0  0
    4.6257   -0.2722   -0.3162 H   0  0  0  0  0  0  0  0  0  0  0  0
    3.2133   -1.5585   -1.9215 H   0  0  0  0  0  0  0  0  0  0  0  0
    4.9379   -3.1723   -2.7279 H   0  0  0  0  0  0  0  0  0  0  0  0
    5.6921   -1.6699   -2.2383 H   0  0  0  0  0  0  0  0  0  0  0  0
    6.9275   -3.6194   -1.3014 H   0  0  0  0  0  0  0  0  0  0  0  0
    6.8877   -1.5397    0.0608 H   0  0  0  0  0  0  0  0  0  0  0  0
    6.9127   -2.9442    1.0971 H   0  0  0  0  0  0  0  0  0  0  0  0
    5.8549   -5.1149    0.3290 H   0  0  0  0  0  0  0  0  0  0  0  0
    5.0148   -5.2207   -1.1990 H   0  0  0  0  0  0  0  0  0  0  0  0
    2.8117   -3.9620   -1.5775 H   0  0  0  0  0  0  0  0  0  0  0  0
    2.1137   -3.0054   -0.2943 H   0  0  0  0  0  0  0  0  0  0  0  0
  1 16  2  0
  1  2  1  0
  1 17  1  0
  2  3  2  0
  3  4  1  0
  5  4  1  1
  4 15  2  0
  5 13  1  0
  5 14  1  0
  5  6  1  0
  6  7  1  0
  6 18  1  0
  6 19  1  0
  7 12  1  0
  7  8  1  0
  7 20  1  1
  8  9  1  0
  8 21  1  0
  8 22  1  0
  9 10  1  0
  9 14  1  0
  9 23  1  6
 10 11  1  0
 10 24  1  0
 10 25  1  0
 11 12  1  0
 11 13  1  0
 11 26  1  6
 12 27  1  0
 12 28  1  0
 13 29  1  0
 13 30  1  0
 14 31  1  0
 14 32  1  0
 15 16  1  0
M  END
>  <i_m_ct_stereo_status>  (338) 
1

>  <s_m_source_file>  (338) 
/var/tmp/pbs.5076255.sched01/tmpcwktr4ti/1290j0z1rin.sdf

>  <i_m_source_file_index>  (338) 
23

>  <i_lp_mmshare_version>  (338) 
48012

>  <i_f3d_flags>  (338) 
0

>  <s_epik_input>  (338) 
bjFuW2NIXW5uYzFDMjNbQ0gyXVtDQEhdNFtDSDJdW0NAQEhdKFtDSDJdMylbQ0gyXVtDQEhdKFtDSDJdNClbQ0gyXTI=

>  <s_epik_cmdline>  (338) 
J2VwaWtfcHl0aG9uJywgJy1waHQnLCAnMi4wJywgJy1waCcsICc3LjAnLCAnLXRuJywgJzgnLCAnLW1hJywgJzIwMCcsICctaW1hZScsICc8aW5maWxlLm1hZT4nLCAnLW9tYWUnLCAnPG91dGZpbGUubWFlPic=

>  <r_lp_tautomer_probability>  (338) 
1

>  <r_epik_Ionization_Penalty>  (338) 
4.73165e-10

>  <r_epik_Ionization_Penalty_Charging>  (338) 
0

>  <r_epik_Ionization_Penalty_Neutral>  (338) 
4.73165e-10

>  <r_epik_State_Penalty>  (338) 
-0

>  <r_epik_Charging_Adjusted_Penalty>  (338) 
0

>  <i_epik_Tot_Q>  (338) 
0

>  <i_epik_Tot_abs_Q>  (338) 
0

>  <s_lp_Force_Field>  (338) 
OPLS3e

>  <r_lp_Energy>  (338) 
19.2543

>  <b_lp_Chiralities_Consistent>  (338) 
1

>  <s_lp_Variant>  (338) 
101:0-1

>  <s_i_glide_gridfile>  (338) 
pfpi4k_grid

>  <i_i_glide_lignum>  (338) 
23

>  <i_i_glide_rotatable_bonds>  (338) 
1

>  <r_i_docking_score>  (338) 
-3.62653

>  <r_i_glide_ligand_efficiency>  (338) 
-0.226658

>  <r_i_glide_ligand_efficiency_sa>  (338) 
-0.571142

>  <r_i_glide_ligand_efficiency_ln>  (338) 
-0.961283

>  <r_i_glide_gscore>  (338) 
-3.62653

>  <r_i_glide_lipo>  (338) 
-0.346933

>  <r_i_glide_hbond>  (338) 
0

>  <r_i_glide_metal>  (338) 
-0

>  <r_i_glide_rewards>  (338) 
-1.93444

>  <r_i_glide_evdw>  (338) 
-21.2032

>  <r_i_glide_ecoul>  (338) 
-2.90327

>  <r_i_glide_erotb>  (338) 
0.358155

>  <r_i_glide_esite>  (338) 
-0.207659

>  <r_i_glide_emodel>  (338) 
-29.6688

>  <r_i_glide_energy>  (338) 
-24.1065

>  <r_i_glide_einternal>  (338) 
0.0628682

>  <r_i_glide_intrahb_reward>  (338) 
-0

>  <i_i_glide_confnum>  (338) 
1

>  <i_i_glide_posenum>  (338) 
5

>  <r_i_glide_eff_state_penalty>  (338) 
0

>  <ligand_id>  (338) 
101

>  <original_smiles>  (338) 
c1nnc(C23CC4CC(CC(C4)C2)C3)nn1

>  <smiles>  (338) 
[H]c1nnc(C23C([H])([H])C4([H])C([H])([H])C([H])(C([H])([H])C([H])(C4([H])[H])C2([H])[H])C3([H])[H])nn1

$$$$
101:0:1
     RDKit          3D

 32 35  0  0  1  0  0  0  0  0999 V2000
    1.8221   -5.7186    2.4978 C   0  0  0  0  0  0  0  0  0  0  0  0
    1.6240   -6.1105    1.2191 N   0  0  0  0  0  0  0  0  0  0  0  0
    2.2048   -5.3842    0.2579 N   0  0  0  0  0  0  0  0  0  0  0  0
    2.9208   -4.2904    0.6267 C   0  0  0  0  0  0  0  0  0  0  0  0
    3.6047   -3.4804   -0.4830 C   0  0  1  0  0  0  0  0  0  0  0  0
    4.8860   -4.1928   -0.9888 C   0  0  0  0  0  0  0  0  0  0  0  0
    5.5358   -3.3625   -2.1127 C   0  0  2  0  0  0  0  0  0  0  0  0
    5.9218   -1.9905   -1.5436 C   0  0  0  0  0  0  0  0  0  0  0  0
    4.6613   -1.2416   -1.0871 C   0  0  1  0  0  0  0  0  0  0  0  0
    3.6932   -1.0827   -2.2754 C   0  0  0  0  0  0  0  0  0  0  0  0
    3.2998   -2.4651   -2.8093 C   0  0  1  0  0  0  0  0  0  0  0  0
    4.5513   -3.2070   -3.2917 C   0  0  0  0  0  0  0  0  0  0  0  0
    2.6351   -3.2765   -1.6818 C   0  0  0  0  0  0  0  0  0  0  0  0
    3.9908   -2.0575    0.0279 C   0  0  0  0  0  0  0  0  0  0  0  0
    3.1399   -3.9286    1.9153 N   0  0  0  0  0  0  0  0  0  0  0  0
    2.5615   -4.6524    2.8781 N   0  0  0  0  0  0  0  0  0  0  0  0
    1.3485   -6.2946    3.2778 H   0  0  0  0  0  0  0  0  0  0  0  0
    5.5954   -4.3424   -0.1735 H   0  0  0  0  0  0  0  0  0  0  0  0
    4.6384   -5.1818   -1.3728 H   0  0  0  0  0  0  0  0  0  0  0  0
    6.4379   -3.8498   -2.4785 H   0  0  0  0  0  0  0  0  0  0  0  0
    6.6242   -2.1029   -0.7155 H   0  0  0  0  0  0  0  0  0  0  0  0
    6.4237   -1.4348   -2.3142 H   0  0  0  0  0  0  0  0  0  0  0  0
    4.9329   -0.2608   -0.6939 H   0  0  0  0  0  0  0  0  0  0  0  0
    2.7738   -0.6108   -1.9460 H   0  0  0  0  0  0  0  0  0  0  0  0
    4.1301   -0.4563   -3.0553 H   0  0  0  0  0  0  0  0  0  0  0  0
    2.5897   -2.3432   -3.6280 H   0  0  0  0  0  0  0  0  0  0  0  0
    5.0084   -2.6544   -4.1081 H   0  0  0  0  0  0  0  0  0  0  0  0
    4.2734   -4.1853   -3.6861 H   0  0  0  0  0  0  0  0  0  0  0  0
    2.2876   -4.2257   -2.0837 H   0  0  0  0  0  0  0  0  0  0  0  0
    1.7385   -2.7755   -1.3463 H   0  0  0  0  0  0  0  0  0  0  0  0
    3.1091   -1.5280    0.3951 H   0  0  0  0  0  0  0  0  0  0  0  0
    4.6908   -2.1208    0.8627 H   0  0  0  0  0  0  0  0  0  0  0  0
  1 16  2  0
  1  2  1  0
  1 17  1  0
  2  3  2  0
  3  4  1  0
  5  4  1  1
  4 15  2  0
  5 13  1  0
  5 14  1  0
  5  6  1  0
  6  7  1  0
  6 18  1  0
  6 19  1  0
  7 12  1  0
  7  8  1  0
  7 20  1  6
  8  9  1  0
  8 21  1  0
  8 22  1  0
  9 10  1  0
  9 14  1  0
  9 23  1  1
 10 11  1  0
 10 24  1  0
 10 25  1  0
 11 12  1  0
 11 13  1  0
 11 26  1  6
 12 27  1  0
 12 28  1  0
 13 29  1  0
 13 30  1  0
 14 31  1  0
 14 32  1  0
 15 16  1  0
M  END
>  <i_m_ct_stereo_status>  (339) 
1

>  <s_m_source_file>  (339) 
/var/tmp/pbs.5076255.sched01/tmpcwktr4ti/1290j0z1rin.sdf

>  <i_m_source_file_index>  (339) 
23

>  <i_lp_mmshare_version>  (339) 
48012

>  <i_f3d_flags>  (339) 
0

>  <s_epik_input>  (339) 
bjFuW2NIXW5uYzFDMjNbQ0gyXVtDQEhdNFtDSDJdW0NAQEhdKFtDSDJdMylbQ0gyXVtDQEhdKFtDSDJdNClbQ0gyXTI=

>  <s_epik_cmdline>  (339) 
J2VwaWtfcHl0aG9uJywgJy1waHQnLCAnMi4wJywgJy1waCcsICc3LjAnLCAnLXRuJywgJzgnLCAnLW1hJywgJzIwMCcsICctaW1hZScsICc8aW5maWxlLm1hZT4nLCAnLW9tYWUnLCAnPG91dGZpbGUubWFlPic=

>  <r_lp_tautomer_probability>  (339) 
1

>  <r_epik_Ionization_Penalty>  (339) 
4.73165e-10

>  <r_epik_Ionization_Penalty_Charging>  (339) 
0

>  <r_epik_Ionization_Penalty_Neutral>  (339) 
4.73165e-10

>  <r_epik_State_Penalty>  (339) 
-0

>  <r_epik_Charging_Adjusted_Penalty>  (339) 
0

>  <i_epik_Tot_Q>  (339) 
0

>  <i_epik_Tot_abs_Q>  (339) 
0

>  <s_lp_Force_Field>  (339) 
OPLS3e

>  <r_lp_Energy>  (339) 
19.2543

>  <b_lp_Chiralities_Consistent>  (339) 
1

>  <s_lp_Variant>  (339) 
101:0-1

>  <s_i_glide_gridfile>  (339) 
pfpi4k_grid

>  <i_i_glide_lignum>  (339) 
23

>  <i_i_glide_rotatable_bonds>  (339) 
1

>  <r_i_docking_score>  (339) 
-3.43764

>  <r_i_glide_ligand_efficiency>  (339) 
-0.214852

>  <r_i_glide_ligand_efficiency_sa>  (339) 
-0.541394

>  <r_i_glide_ligand_efficiency_ln>  (339) 
-0.911215

>  <r_i_glide_gscore>  (339) 
-3.43764

>  <r_i_glide_lipo>  (339) 
-0.512254

>  <r_i_glide_hbond>  (339) 
0

>  <r_i_glide_metal>  (339) 
-0

>  <r_i_glide_rewards>  (339) 
-1.93444

>  <r_i_glide_evdw>  (339) 
-19.1885

>  <r_i_glide_ecoul>  (339) 
-1.40256

>  <r_i_glide_erotb>  (339) 
0.358155

>  <r_i_glide_esite>  (339) 
-0.179291

>  <r_i_glide_emodel>  (339) 
-25.7734

>  <r_i_glide_energy>  (339) 
-20.591

>  <r_i_glide_einternal>  (339) 
0.130165

>  <r_i_glide_intrahb_reward>  (339) 
-0

>  <i_i_glide_confnum>  (339) 
5

>  <i_i_glide_posenum>  (339) 
26

>  <r_i_glide_eff_state_penalty>  (339) 
0

>  <ligand_id>  (339) 
101

>  <original_smiles>  (339) 
c1nnc(C23CC4CC(CC(C4)C2)C3)nn1

>  <smiles>  (339) 
[H]c1nnc(C23C([H])([H])C4([H])C([H])([H])C([H])(C([H])([H])C([H])(C4([H])[H])C2([H])[H])C3([H])[H])nn1

$$$$
101:0:2
     RDKit          3D

 32 35  0  0  1  0  0  0  0  0999 V2000
    3.9939    0.6016    4.0334 C   0  0  0  0  0  0  0  0  0  0  0  0
    2.9746    0.4572    3.1573 N   0  0  0  0  0  0  0  0  0  0  0  0
    3.1747   -0.3461    2.1070 N   0  0  0  0  0  0  0  0  0  0  0  0
    4.3724   -0.9750    2.0041 C   0  0  0  0  0  0  0  0  0  0  0  0
    4.5893   -1.8873    0.7903 C   0  0  1  0  0  0  0  0  0  0  0  0
    5.8771   -2.7544    0.9556 C   0  0  0  0  0  0  0  0  0  0  0  0
    6.0831   -3.6765   -0.2580 C   0  0  2  0  0  0  0  0  0  0  0  0
    6.2248   -2.8157   -1.5283 C   0  0  0  0  0  0  0  0  0  0  0  0
    4.9383   -1.9893   -1.7266 C   0  0  1  0  0  0  0  0  0  0  0  0
    3.7320   -2.9416   -1.8631 C   0  0  0  0  0  0  0  0  0  0  0  0
    3.6009   -3.7931   -0.5827 C   0  0  1  0  0  0  0  0  0  0  0  0
    4.8777   -4.6270   -0.3757 C   0  0  0  0  0  0  0  0  0  0  0  0
    3.3918   -2.8677    0.6320 C   0  0  0  0  0  0  0  0  0  0  0  0
    4.7314   -1.0572   -0.5111 C   0  0  0  0  0  0  0  0  0  0  0  0
    5.4043   -0.7854    2.8658 N   0  0  0  0  0  0  0  0  0  0  0  0
    5.2059    0.0121    3.9212 N   0  0  0  0  0  0  0  0  0  0  0  0
    3.8345    1.2534    4.8825 H   0  0  0  0  0  0  0  0  0  0  0  0
    6.7615   -2.1224    1.0580 H   0  0  0  0  0  0  0  0  0  0  0  0
    5.8191   -3.3587    1.8636 H   0  0  0  0  0  0  0  0  0  0  0  0
    6.9923   -4.2596   -0.1135 H   0  0  0  0  0  0  0  0  0  0  0  0
    7.0853   -2.1558   -1.4281 H   0  0  0  0  0  0  0  0  0  0  0  0
    6.4179   -3.4468   -2.3966 H   0  0  0  0  0  0  0  0  0  0  0  0
    5.0220   -1.3866   -2.6303 H   0  0  0  0  0  0  0  0  0  0  0  0
    2.8154   -2.3731   -2.0296 H   0  0  0  0  0  0  0  0  0  0  0  0
    3.8534   -3.5924   -2.7308 H   0  0  0  0  0  0  0  0  0  0  0  0
    2.7460   -4.4627   -0.6852 H   0  0  0  0  0  0  0  0  0  0  0  0
    5.0146   -5.3226   -1.2048 H   0  0  0  0  0  0  0  0  0  0  0  0
    4.7852   -5.2306    0.5280 H   0  0  0  0  0  0  0  0  0  0  0  0
    3.2597   -3.4605    1.5395 H   0  0  0  0  0  0  0  0  0  0  0  0
    2.4582   -2.3190    0.4855 H   0  0  0  0  0  0  0  0  0  0  0  0
    3.8338   -0.4597   -0.6644 H   0  0  0  0  0  0  0  0  0  0  0  0
    5.5588   -0.3506   -0.4228 H   0  0  0  0  0  0  0  0  0  0  0  0
  1 16  2  0
  1  2  1  0
  1 17  1  0
  2  3  2  0
  3  4  1  0
  5  4  1  1
  4 15  2  0
  5 13  1  0
  5 14  1  0
  5  6  1  0
  6  7  1  0
  6 18  1  0
  6 19  1  0
  7 12  1  0
  7  8  1  0
  7 20  1  1
  8  9  1  0
  8 21  1  0
  8 22  1  0
  9 10  1  0
  9 14  1  0
  9 23  1  6
 10 11  1  0
 10 24  1  0
 10 25  1  0
 11 12  1  0
 11 13  1  0
 11 26  1  6
 12 27  1  0
 12 28  1  0
 13 29  1  0
 13 30  1  0
 14 31  1  0
 14 32  1  0
 15 16  1  0
M  END
>  <i_m_ct_stereo_status>  (340) 
1

>  <s_m_source_file>  (340) 
/var/tmp/pbs.5076255.sched01/tmpcwktr4ti/1290j0z1rin.sdf

>  <i_m_source_file_index>  (340) 
23

>  <i_lp_mmshare_version>  (340) 
48012

>  <i_f3d_flags>  (340) 
0

>  <s_epik_input>  (340) 
bjFuW2NIXW5uYzFDMjNbQ0gyXVtDQEhdNFtDSDJdW0NAQEhdKFtDSDJdMylbQ0gyXVtDQEhdKFtDSDJdNClbQ0gyXTI=

>  <s_epik_cmdline>  (340) 
J2VwaWtfcHl0aG9uJywgJy1waHQnLCAnMi4wJywgJy1waCcsICc3LjAnLCAnLXRuJywgJzgnLCAnLW1hJywgJzIwMCcsICctaW1hZScsICc8aW5maWxlLm1hZT4nLCAnLW9tYWUnLCAnPG91dGZpbGUubWFlPic=

>  <r_lp_tautomer_probability>  (340) 
1

>  <r_epik_Ionization_Penalty>  (340) 
4.73165e-10

>  <r_epik_Ionization_Penalty_Charging>  (340) 
0

>  <r_epik_Ionization_Penalty_Neutral>  (340) 
4.73165e-10

>  <r_epik_State_Penalty>  (340) 
-0

>  <r_epik_Charging_Adjusted_Penalty>  (340) 
0

>  <i_epik_Tot_Q>  (340) 
0

>  <i_epik_Tot_abs_Q>  (340) 
0

>  <s_lp_Force_Field>  (340) 
OPLS3e

>  <r_lp_Energy>  (340) 
19.2543

>  <b_lp_Chiralities_Consistent>  (340) 
1

>  <s_lp_Variant>  (340) 
101:0-1

>  <s_i_glide_gridfile>  (340) 
pfpi4k_grid

>  <i_i_glide_lignum>  (340) 
23

>  <i_i_glide_rotatable_bonds>  (340) 
1

>  <r_i_docking_score>  (340) 
-2.91362

>  <r_i_glide_ligand_efficiency>  (340) 
-0.182101

>  <r_i_glide_ligand_efficiency_sa>  (340) 
-0.458867

>  <r_i_glide_ligand_efficiency_ln>  (340) 
-0.772314

>  <r_i_glide_gscore>  (340) 
-2.91362

>  <r_i_glide_lipo>  (340) 
-0.157166

>  <r_i_glide_hbond>  (340) 
0

>  <r_i_glide_metal>  (340) 
-0

>  <r_i_glide_rewards>  (340) 
-2.00299

>  <r_i_glide_evdw>  (340) 
-21.5747

>  <r_i_glide_ecoul>  (340) 
-0.122694

>  <r_i_glide_erotb>  (340) 
0.358155

>  <r_i_glide_esite>  (340) 
-0.0144828

>  <r_i_glide_emodel>  (340) 
-26.0504

>  <r_i_glide_energy>  (340) 
-21.6974

>  <r_i_glide_einternal>  (340) 
0.222136

>  <r_i_glide_intrahb_reward>  (340) 
-0

>  <i_i_glide_confnum>  (340) 
5

>  <i_i_glide_posenum>  (340) 
2

>  <r_i_glide_eff_state_penalty>  (340) 
0

>  <ligand_id>  (340) 
101

>  <original_smiles>  (340) 
c1nnc(C23CC4CC(CC(C4)C2)C3)nn1

>  <smiles>  (340) 
[H]c1nnc(C23C([H])([H])C4([H])C([H])([H])C([H])(C([H])([H])C([H])(C4([H])[H])C2([H])[H])C3([H])[H])nn1

$$$$
102:0:0
     RDKit          3D

 62 67  0  0  1  0  0  0  0  0999 V2000
   -0.2771   -6.5870    4.6960 C   0  0  0  0  0  0  0  0  0  0  0  0
    0.9348   -7.2142    3.9400 C   0  0  0  0  0  0  0  0  0  0  0  0
    1.3650   -8.5115    4.6748 C   0  0  0  0  0  0  0  0  0  0  0  0
    0.5355   -7.5141    2.6077 O   0  0  0  0  0  0  0  0  0  0  0  0
    1.1271   -6.4545    1.9540 C   0  0  2  0  0  0  0  0  0  0  0  0
    1.2947   -6.2510    0.5679 O   0  0  0  0  0  0  0  0  0  0  0  0
    2.2538   -5.1631    0.6529 C   0  0  1  0  0  0  0  0  0  0  0  0
    3.3415   -5.6698    1.5832 C   0  0  2  0  0  0  0  0  0  0  0  0
    4.2243   -6.8215    0.9812 C   0  0  0  0  0  0  0  0  0  0  0  0
    2.4549   -6.4667    2.6125 C   0  0  1  0  0  0  0  0  0  0  0  0
    2.0321   -6.2691    3.9447 O   0  0  0  0  0  0  0  0  0  0  0  0
    4.2604   -4.4305    1.8263 C   0  0  1  0  0  0  0  0  0  0  0  0
    5.0033   -4.2577    0.5842 O   0  0  0  0  0  0  0  0  0  0  0  0
    4.2222   -4.2331   -0.6378 C   0  0  2  0  0  0  0  0  0  0  0  0
    4.8123   -3.1941   -1.6060 C   0  0  1  0  0  0  0  0  0  0  0  0
    4.2695   -3.3752   -2.9027 O   0  0  0  0  0  0  0  0  0  0  0  0
    4.7347   -1.7298   -1.0736 C   0  0  0  0  0  0  0  0  0  0  0  0
    6.1057   -1.4505   -0.4049 C   0  0  0  0  0  0  0  0  0  0  0  0
    4.5951   -0.7563   -2.2678 C   0  0  0  0  0  0  0  0  0  0  0  0
    3.4933   -1.5157   -0.1356 C   0  0  2  0  0  0  0  0  0  0  0  0
    3.6643   -0.3554    0.8812 C   0  0  1  0  0  0  0  0  0  0  0  0
    2.3593    0.0780    1.3333 O   0  0  0  0  0  0  0  0  0  0  0  0
    4.4896   -0.6814    1.9570 O   0  0  0  0  0  0  0  0  0  0  0  0
    4.5900   -1.9552    2.4381 C   0  0  0  0  0  0  0  0  0  0  0  0
    5.4199   -2.2811    3.2991 O   0  0  0  0  0  0  0  0  0  0  0  0
    3.5593   -3.0336    2.0044 C   0  0  2  0  0  0  0  0  0  0  0  0
    2.5517   -3.0407    3.1789 C   0  0  0  0  0  0  0  0  0  0  0  0
    2.8528   -2.7093    0.6281 C   0  0  2  0  0  0  0  0  0  0  0  0
    2.7360   -3.9920   -0.2760 C   0  0  2  0  0  0  0  0  0  0  0  0
    1.7394   -3.8060   -1.4456 C   0  0  0  0  0  0  0  0  0  0  0  0
   -0.5760   -5.6512    4.2204 H   0  0  0  0  0  0  0  0  0  0  0  0
   -0.0275   -6.3828    5.7338 H   0  0  0  0  0  0  0  0  0  0  0  0
   -1.1177   -7.2784    4.6665 H   0  0  0  0  0  0  0  0  0  0  0  0
    2.1914   -8.9958    4.1614 H   0  0  0  0  0  0  0  0  0  0  0  0
    0.5260   -9.2063    4.7331 H   0  0  0  0  0  0  0  0  0  0  0  0
    1.6792   -8.2722    5.6960 H   0  0  0  0  0  0  0  0  0  0  0  0
    0.4851   -5.6322    2.2918 H   0  0  0  0  0  0  0  0  0  0  0  0
    1.6425   -4.4848    1.2058 H   0  0  0  0  0  0  0  0  0  0  0  0
    4.8436   -7.2855    1.7579 H   0  0  0  0  0  0  0  0  0  0  0  0
    4.9280   -6.5681    0.2020 H   0  0  0  0  0  0  0  0  0  0  0  0
    3.5935   -7.6073    0.5565 H   0  0  0  0  0  0  0  0  0  0  0  0
    2.8501   -7.4932    2.6300 H   0  0  0  0  0  0  0  0  0  0  0  0
    4.9724   -4.6370    2.6312 H   0  0  0  0  0  0  0  0  0  0  0  0
    4.3480   -5.1883   -1.1259 H   0  0  0  0  0  0  0  0  0  0  0  0
    5.8585   -3.4685   -1.7364 H   0  0  0  0  0  0  0  0  0  0  0  0
    4.0671   -4.2836   -3.0296 H   0  0  0  0  0  0  0  0  0  0  0  0
    6.1802   -0.4293   -0.0231 H   0  0  0  0  0  0  0  0  0  0  0  0
    6.9014   -1.5780   -1.1328 H   0  0  0  0  0  0  0  0  0  0  0  0
    6.3281   -2.1402    0.4002 H   0  0  0  0  0  0  0  0  0  0  0  0
    4.5971    0.2562   -1.9283 H   0  0  0  0  0  0  0  0  0  0  0  0
    3.6555   -0.8793   -2.8174 H   0  0  0  0  0  0  0  0  0  0  0  0
    5.4047   -0.8700   -2.9667 H   0  0  0  0  0  0  0  0  0  0  0  0
    2.7302   -1.1801   -0.8319 H   0  0  0  0  0  0  0  0  0  0  0  0
    4.0650    0.5282    0.3828 H   0  0  0  0  0  0  0  0  0  0  0  0
    1.7257   -0.1843    0.6802 H   0  0  0  0  0  0  0  0  0  0  0  0
    1.7431   -3.7571    3.0999 H   0  0  0  0  0  0  0  0  0  0  0  0
    2.0815   -2.0575    3.3092 H   0  0  0  0  0  0  0  0  0  0  0  0
    3.0653   -3.2754    4.1131 H   0  0  0  0  0  0  0  0  0  0  0  0
    1.8380   -2.3811    0.8659 H   0  0  0  0  0  0  0  0  0  0  0  0
    1.9662   -2.9207   -2.0509 H   0  0  0  0  0  0  0  0  0  0  0  0
    0.7236   -3.6640   -1.1295 H   0  0  0  0  0  0  0  0  0  0  0  0
    1.6819   -4.6632   -2.0992 H   0  0  0  0  0  0  0  0  0  0  0  0
  1  2  1  0
  1 31  1  0
  1 32  1  0
  1 33  1  0
  2 11  1  0
  2  3  1  0
  2  4  1  0
  3 34  1  0
  3 35  1  0
  3 36  1  0
  4  5  1  0
  5 10  1  0
  5  6  1  0
  5 37  1  1
  6  7  1  0
  7 29  1  0
  7  8  1  0
  7 38  1  1
  8  9  1  6
  8 10  1  0
  8 12  1  0
  9 39  1  0
  9 40  1  0
  9 41  1  0
 10 11  1  0
 10 42  1  1
 12 26  1  0
 12 13  1  0
 12 43  1  1
 13 14  1  0
 14 29  1  0
 14 15  1  0
 14 44  1  6
 15 16  1  0
 15 17  1  0
 15 45  1  6
 16 46  1  0
 17 18  1  0
 17 19  1  0
 17 20  1  0
 18 47  1  0
 18 48  1  0
 18 49  1  0
 19 50  1  0
 19 51  1  0
 19 52  1  0
 20 28  1  0
 20 21  1  0
 20 53  1  6
 21 22  1  0
 21 23  1  0
 21 54  1  6
 22 55  1  0
 23 24  1  0
 24 25  2  0
 24 26  1  0
 26 27  1  1
 26 28  1  0
 27 56  1  0
 27 57  1  0
 27 58  1  0
 28 29  1  0
 28 59  1  1
 29 30  1  6
 30 60  1  0
 30 61  1  0
 30 62  1  0
M  END
>  <i_m_ct_stereo_status>  (341) 
1

>  <s_m_source_file>  (341) 
/var/tmp/pbs.5076255.sched01/tmpcwktr4ti/1290j0z1rin.sdf

>  <i_m_source_file_index>  (341) 
24

>  <i_lp_mmshare_version>  (341) 
48012

>  <i_f3d_flags>  (341) 
0

>  <s_epik_input>  (341) 
W0NIM11DKE8xKShbQ0gzXSlPW0NASF0yW0NASF0xT1tDQEBIXShbQ0BdMjNbQ0gzXSlbQ0BdNChbQ0gzXSlbQ0BASF01T1tDQEhdM1tDQF02KFtDSDNdKVtDQEhdNFtDQEhdKEMoW0NIM10pKFtDSDNdKVtDQEBIXTVbT0hdKVtDQEBIXShbT0hdKU9DNj1P

>  <s_epik_cmdline>  (341) 
J2VwaWtfcHl0aG9uJywgJy1waHQnLCAnMi4wJywgJy1waCcsICc3LjAnLCAnLXRuJywgJzgnLCAnLW1hJywgJzIwMCcsICctaW1hZScsICc8aW5maWxlLm1hZT4nLCAnLW9tYWUnLCAnPG91dGZpbGUubWFlPic=

>  <r_lp_tautomer_probability>  (341) 
1

>  <r_epik_Ionization_Penalty>  (341) 
5.01102e-07

>  <r_epik_Ionization_Penalty_Charging>  (341) 
0

>  <r_epik_Ionization_Penalty_Neutral>  (341) 
5.01102e-07

>  <r_epik_State_Penalty>  (341) 
-0

>  <r_epik_Charging_Adjusted_Penalty>  (341) 
0

>  <i_epik_Tot_Q>  (341) 
0

>  <i_epik_Tot_abs_Q>  (341) 
0

>  <s_epik_Chemistry_Notes>  (341) 
This compound has an ester and may undergo hydrolysis at high or low pH. This compound contains an acetal/aminal-like group ( X-CH(R)-Y where X, Y are N, S, or O) that may be acid/base labile, releasing an aldehyde.

>  <s_lp_Force_Field>  (341) 
OPLS3e

>  <r_lp_Energy>  (341) 
140.18

>  <b_lp_Chiralities_Consistent>  (341) 
1

>  <s_lp_Variant>  (341) 
102:0-1

>  <s_i_glide_gridfile>  (341) 
pfpi4k_grid

>  <i_i_glide_lignum>  (341) 
24

>  <i_i_glide_rotatable_bonds>  (341) 
2

>  <r_i_docking_score>  (341) 
-3.46585

>  <r_i_glide_ligand_efficiency>  (341) 
-0.115528

>  <r_i_glide_ligand_efficiency_sa>  (341) 
-0.358973

>  <r_i_glide_ligand_efficiency_ln>  (341) 
-0.787478

>  <r_i_glide_gscore>  (341) 
-3.46585

>  <r_i_glide_lipo>  (341) 
-0.16863

>  <r_i_glide_hbond>  (341) 
-0.336617

>  <r_i_glide_metal>  (341) 
-0

>  <r_i_glide_rewards>  (341) 
-0.567265

>  <r_i_glide_evdw>  (341) 
-23.144

>  <r_i_glide_ecoul>  (341) 
-7.68232

>  <r_i_glide_erotb>  (341) 
0

>  <r_i_glide_esite>  (341) 
-0.0837864

>  <r_i_glide_emodel>  (341) 
-34.3009

>  <r_i_glide_energy>  (341) 
-30.8264

>  <r_i_glide_einternal>  (341) 
3.21993

>  <r_i_glide_intrahb_reward>  (341) 
-0

>  <i_i_glide_confnum>  (341) 
2

>  <i_i_glide_posenum>  (341) 
18

>  <r_i_glide_eff_state_penalty>  (341) 
0

>  <ligand_id>  (341) 
102

>  <original_smiles>  (341) 
CC1(C)OC2OC3C(C)(C2O1)C1OC2C(O)C(C)(C)C4C(O)OC(=O)C1(C)C4C23C

>  <smiles>  (341) 
[H]OC1([H])OC(=O)C2(C([H])([H])[H])C3([H])OC4([H])C([H])(O[H])C(C([H])([H])[H])(C([H])([H])[H])C1([H])C2([H])C4(C([H])([H])[H])C1([H])OC2([H])OC(C([H])([H])[H])(C([H])([H])[H])OC2([H])C31C([H])([H])[H]

$$$$
102:0:1
     RDKit          3D

 62 67  0  0  1  0  0  0  0  0999 V2000
   -0.2121   -6.6040    4.6929 C   0  0  0  0  0  0  0  0  0  0  0  0
    0.9973   -7.2197    3.9485 C   0  0  0  0  0  0  0  0  0  0  0  0
    1.4396   -8.5160    4.6648 C   0  0  0  0  0  0  0  0  0  0  0  0
    0.5937   -7.5150    2.5941 O   0  0  0  0  0  0  0  0  0  0  0  0
    1.1662   -6.4649    1.9556 C   0  0  2  0  0  0  0  0  0  0  0  0
    1.3358   -6.2519    0.5575 O   0  0  0  0  0  0  0  0  0  0  0  0
    2.2930   -5.1583    0.6386 C   0  0  1  0  0  0  0  0  0  0  0  0
    3.3780   -5.6694    1.5682 C   0  0  2  0  0  0  0  0  0  0  0  0
    4.2711   -6.8111    0.9581 C   0  0  0  0  0  0  0  0  0  0  0  0
    2.5183   -6.4635    2.6000 C   0  0  1  0  0  0  0  0  0  0  0  0
    2.0943   -6.2752    3.9365 O   0  0  0  0  0  0  0  0  0  0  0  0
    4.3042   -4.4193    1.8038 C   0  0  1  0  0  0  0  0  0  0  0  0
    5.0254   -4.2474    0.5516 O   0  0  0  0  0  0  0  0  0  0  0  0
    4.2376   -4.2156   -0.6668 C   0  0  2  0  0  0  0  0  0  0  0  0
    4.8216   -3.1682   -1.6286 C   0  0  1  0  0  0  0  0  0  0  0  0
    4.3258   -3.3373   -2.9458 O   0  0  0  0  0  0  0  0  0  0  0  0
    4.7418   -1.7120   -1.0881 C   0  0  0  0  0  0  0  0  0  0  0  0
    6.1096   -1.4270   -0.4265 C   0  0  0  0  0  0  0  0  0  0  0  0
    4.5916   -0.7348   -2.2789 C   0  0  0  0  0  0  0  0  0  0  0  0
    3.5040   -1.5089   -0.1464 C   0  0  2  0  0  0  0  0  0  0  0  0
    3.6478   -0.3435    0.8766 C   0  0  1  0  0  0  0  0  0  0  0  0
    2.3902    0.0850    1.3305 O   0  0  0  0  0  0  0  0  0  0  0  0
    4.5138   -0.6722    1.9486 O   0  0  0  0  0  0  0  0  0  0  0  0
    4.6068   -1.9517    2.4176 C   0  0  0  0  0  0  0  0  0  0  0  0
    5.4086   -2.2734    3.2854 O   0  0  0  0  0  0  0  0  0  0  0  0
    3.5896   -3.0188    1.9788 C   0  0  2  0  0  0  0  0  0  0  0  0
    2.5909   -3.0405    3.1725 C   0  0  0  0  0  0  0  0  0  0  0  0
    2.8775   -2.7009    0.6185 C   0  0  2  0  0  0  0  0  0  0  0  0
    2.7603   -3.9864   -0.2887 C   0  0  2  0  0  0  0  0  0  0  0  0
    1.7650   -3.7942   -1.4545 C   0  0  0  0  0  0  0  0  0  0  0  0
   -0.5394   -5.6743    4.2278 H   0  0  0  0  0  0  0  0  0  0  0  0
    0.0411   -6.3977    5.7371 H   0  0  0  0  0  0  0  0  0  0  0  0
   -1.0511   -7.3063    4.6793 H   0  0  0  0  0  0  0  0  0  0  0  0
    2.2687   -8.9975    4.1474 H   0  0  0  0  0  0  0  0  0  0  0  0
    0.6065   -9.2214    4.7268 H   0  0  0  0  0  0  0  0  0  0  0  0
    1.7590   -8.2810    5.6849 H   0  0  0  0  0  0  0  0  0  0  0  0
    0.5398   -5.6458    2.2921 H   0  0  0  0  0  0  0  0  0  0  0  0
    1.6719   -4.4864    1.1985 H   0  0  0  0  0  0  0  0  0  0  0  0
    4.8976   -7.2722    1.7253 H   0  0  0  0  0  0  0  0  0  0  0  0
    4.9642   -6.5481    0.1688 H   0  0  0  0  0  0  0  0  0  0  0  0
    3.6444   -7.5974    0.5359 H   0  0  0  0  0  0  0  0  0  0  0  0
    2.9055   -7.4868    2.6130 H   0  0  0  0  0  0  0  0  0  0  0  0
    5.0134   -4.6231    2.5992 H   0  0  0  0  0  0  0  0  0  0  0  0
    4.3253   -5.1703   -1.1624 H   0  0  0  0  0  0  0  0  0  0  0  0
    5.8717   -3.4269   -1.7593 H   0  0  0  0  0  0  0  0  0  0  0  0
    3.3929   -3.5401   -2.9002 H   0  0  0  0  0  0  0  0  0  0  0  0
    6.1861   -0.4085   -0.0428 H   0  0  0  0  0  0  0  0  0  0  0  0
    6.9028   -1.5507   -1.1593 H   0  0  0  0  0  0  0  0  0  0  0  0
    6.3455   -2.1223    0.3752 H   0  0  0  0  0  0  0  0  0  0  0  0
    4.5927    0.2867   -1.9462 H   0  0  0  0  0  0  0  0  0  0  0  0
    3.6646   -0.8562   -2.8373 H   0  0  0  0  0  0  0  0  0  0  0  0
    5.4167   -0.8388   -2.9787 H   0  0  0  0  0  0  0  0  0  0  0  0
    2.7386   -1.1683   -0.8349 H   0  0  0  0  0  0  0  0  0  0  0  0
    4.0765    0.5395    0.3721 H   0  0  0  0  0  0  0  0  0  0  0  0
    1.7277   -0.1917    0.6769 H   0  0  0  0  0  0  0  0  0  0  0  0
    1.7864   -3.7663    3.0916 H   0  0  0  0  0  0  0  0  0  0  0  0
    2.1178   -2.0652    3.3071 H   0  0  0  0  0  0  0  0  0  0  0  0
    3.1090   -3.2799    4.1004 H   0  0  0  0  0  0  0  0  0  0  0  0
    1.8596   -2.3806    0.8633 H   0  0  0  0  0  0  0  0  0  0  0  0
    1.9680   -2.9094   -2.0554 H   0  0  0  0  0  0  0  0  0  0  0  0
    0.7410   -3.6722   -1.1279 H   0  0  0  0  0  0  0  0  0  0  0  0
    1.7004   -4.6332   -2.1052 H   0  0  0  0  0  0  0  0  0  0  0  0
  1  2  1  0
  1 31  1  0
  1 32  1  0
  1 33  1  0
  2 11  1  0
  2  3  1  0
  2  4  1  0
  3 34  1  0
  3 35  1  0
  3 36  1  0
  4  5  1  0
  5 10  1  0
  5  6  1  0
  5 37  1  1
  6  7  1  0
  7 29  1  0
  7  8  1  0
  7 38  1  1
  8  9  1  6
  8 10  1  0
  8 12  1  0
  9 39  1  0
  9 40  1  0
  9 41  1  0
 10 11  1  0
 10 42  1  1
 12 26  1  0
 12 13  1  0
 12 43  1  1
 13 14  1  0
 14 29  1  0
 14 15  1  0
 14 44  1  6
 15 16  1  0
 15 17  1  0
 15 45  1  6
 16 46  1  0
 17 18  1  0
 17 19  1  0
 17 20  1  0
 18 47  1  0
 18 48  1  0
 18 49  1  0
 19 50  1  0
 19 51  1  0
 19 52  1  0
 20 28  1  0
 20 21  1  0
 20 53  1  6
 21 22  1  0
 21 23  1  0
 21 54  1  6
 22 55  1  0
 23 24  1  0
 24 25  2  0
 24 26  1  0
 26 27  1  1
 26 28  1  0
 27 56  1  0
 27 57  1  0
 27 58  1  0
 28 29  1  0
 28 59  1  1
 29 30  1  6
 30 60  1  0
 30 61  1  0
 30 62  1  0
M  END
>  <i_m_ct_stereo_status>  (342) 
1

>  <s_m_source_file>  (342) 
/var/tmp/pbs.5076255.sched01/tmpcwktr4ti/1290j0z1rin.sdf

>  <i_m_source_file_index>  (342) 
24

>  <i_lp_mmshare_version>  (342) 
48012

>  <i_f3d_flags>  (342) 
0

>  <s_epik_input>  (342) 
W0NIM11DKE8xKShbQ0gzXSlPW0NASF0yW0NASF0xT1tDQEBIXShbQ0BdMjNbQ0gzXSlbQ0BdNChbQ0gzXSlbQ0BASF01T1tDQEhdM1tDQF02KFtDSDNdKVtDQEhdNFtDQEhdKEMoW0NIM10pKFtDSDNdKVtDQEBIXTVbT0hdKVtDQEBIXShbT0hdKU9DNj1P

>  <s_epik_cmdline>  (342) 
J2VwaWtfcHl0aG9uJywgJy1waHQnLCAnMi4wJywgJy1waCcsICc3LjAnLCAnLXRuJywgJzgnLCAnLW1hJywgJzIwMCcsICctaW1hZScsICc8aW5maWxlLm1hZT4nLCAnLW9tYWUnLCAnPG91dGZpbGUubWFlPic=

>  <r_lp_tautomer_probability>  (342) 
1

>  <r_epik_Ionization_Penalty>  (342) 
5.01102e-07

>  <r_epik_Ionization_Penalty_Charging>  (342) 
0

>  <r_epik_Ionization_Penalty_Neutral>  (342) 
5.01102e-07

>  <r_epik_State_Penalty>  (342) 
-0

>  <r_epik_Charging_Adjusted_Penalty>  (342) 
0

>  <i_epik_Tot_Q>  (342) 
0

>  <i_epik_Tot_abs_Q>  (342) 
0

>  <s_epik_Chemistry_Notes>  (342) 
This compound has an ester and may undergo hydrolysis at high or low pH. This compound contains an acetal/aminal-like group ( X-CH(R)-Y where X, Y are N, S, or O) that may be acid/base labile, releasing an aldehyde.

>  <s_lp_Force_Field>  (342) 
OPLS3e

>  <r_lp_Energy>  (342) 
140.18

>  <b_lp_Chiralities_Consistent>  (342) 
1

>  <s_lp_Variant>  (342) 
102:0-1

>  <s_i_glide_gridfile>  (342) 
pfpi4k_grid

>  <i_i_glide_lignum>  (342) 
24

>  <i_i_glide_rotatable_bonds>  (342) 
2

>  <r_i_docking_score>  (342) 
-3.14062

>  <r_i_glide_ligand_efficiency>  (342) 
-0.104687

>  <r_i_glide_ligand_efficiency_sa>  (342) 
-0.325288

>  <r_i_glide_ligand_efficiency_ln>  (342) 
-0.713583

>  <r_i_glide_gscore>  (342) 
-3.14062

>  <r_i_glide_lipo>  (342) 
-0.17004

>  <r_i_glide_hbond>  (342) 
-0.116975

>  <r_i_glide_metal>  (342) 
-0

>  <r_i_glide_rewards>  (342) 
-0.56923

>  <r_i_glide_evdw>  (342) 
-23.2232

>  <r_i_glide_ecoul>  (342) 
-6.94156

>  <r_i_glide_erotb>  (342) 
0

>  <r_i_glide_esite>  (342) 
-0.0819782

>  <r_i_glide_emodel>  (342) 
-33.2376

>  <r_i_glide_energy>  (342) 
-30.1648

>  <r_i_glide_einternal>  (342) 
2.7339

>  <r_i_glide_intrahb_reward>  (342) 
-0

>  <i_i_glide_confnum>  (342) 
1

>  <i_i_glide_posenum>  (342) 
35

>  <r_i_glide_eff_state_penalty>  (342) 
0

>  <ligand_id>  (342) 
102

>  <original_smiles>  (342) 
CC1(C)OC2OC3C(C)(C2O1)C1OC2C(O)C(C)(C)C4C(O)OC(=O)C1(C)C4C23C

>  <smiles>  (342) 
[H]OC1([H])OC(=O)C2(C([H])([H])[H])C3([H])OC4([H])C([H])(O[H])C(C([H])([H])[H])(C([H])([H])[H])C1([H])C2([H])C4(C([H])([H])[H])C1([H])OC2([H])OC(C([H])([H])[H])(C([H])([H])[H])OC2([H])C31C([H])([H])[H]

$$$$
102:0:2
     RDKit          3D

 62 67  0  0  1  0  0  0  0  0999 V2000
    2.9948   -5.1696    7.0767 C   0  0  0  0  0  0  0  0  0  0  0  0
    2.1156   -5.6829    5.9145 C   0  0  0  0  0  0  0  0  0  0  0  0
    1.2613   -6.8829    6.3819 C   0  0  0  0  0  0  0  0  0  0  0  0
    1.2478   -4.6315    5.4663 O   0  0  0  0  0  0  0  0  0  0  0  0
    1.9495   -4.2018    4.3797 C   0  0  2  0  0  0  0  0  0  0  0  0
    1.4815   -3.3945    3.3158 O   0  0  0  0  0  0  0  0  0  0  0  0
    2.5605   -3.6589    2.3969 C   0  0  1  0  0  0  0  0  0  0  0  0
    2.5228   -5.1957    2.2905 C   0  0  2  0  0  0  0  0  0  0  0  0
    1.2762   -5.8652    1.6108 C   0  0  0  0  0  0  0  0  0  0  0  0
    2.2511   -5.5480    3.7820 C   0  0  1  0  0  0  0  0  0  0  0  0
    2.9789   -6.0916    4.8444 O   0  0  0  0  0  0  0  0  0  0  0  0
    3.7200   -5.5455    1.3661 C   0  0  1  0  0  0  0  0  0  0  0  0
    3.2905   -5.1116    0.0386 O   0  0  0  0  0  0  0  0  0  0  0  0
    2.7828   -3.7471   -0.1289 C   0  0  2  0  0  0  0  0  0  0  0  0
    3.3071   -3.1861   -1.4695 C   0  0  1  0  0  0  0  0  0  0  0  0
    2.6058   -2.0755   -2.0077 O   0  0  0  0  0  0  0  0  0  0  0  0
    4.8359   -2.9953   -1.4913 C   0  0  0  0  0  0  0  0  0  0  0  0
    5.3740   -4.2059   -2.2430 C   0  0  0  0  0  0  0  0  0  0  0  0
    5.2684   -1.7985   -2.3174 C   0  0  0  0  0  0  0  0  0  0  0  0
    5.4292   -2.7573   -0.0784 C   0  0  2  0  0  0  0  0  0  0  0  0
    6.8926   -3.1716   -0.0040 C   0  0  1  0  0  0  0  0  0  0  0  0
    7.4089   -2.4397    1.0346 O   0  0  0  0  0  0  0  0  0  0  0  0
    7.0866   -4.5571    0.1820 O   0  0  0  0  0  0  0  0  0  0  0  0
    6.1753   -5.3844    0.8474 C   0  0  0  0  0  0  0  0  0  0  0  0
    6.3390   -6.6040    0.9581 O   0  0  0  0  0  0  0  0  0  0  0  0
    5.0163   -4.7332    1.6112 C   0  0  2  0  0  0  0  0  0  0  0  0
    5.5122   -4.8874    3.0579 C   0  0  0  0  0  0  0  0  0  0  0  0
    4.7239   -3.2387    1.2181 C   0  0  2  0  0  0  0  0  0  0  0  0
    3.1813   -2.9610    1.1407 C   0  0  2  0  0  0  0  0  0  0  0  0
    2.8823   -1.4487    1.1548 C   0  0  0  0  0  0  0  0  0  0  0  0
    3.6255   -4.3329    6.7680 H   0  0  0  0  0  0  0  0  0  0  0  0
    3.6337   -5.9707    7.4516 H   0  0  0  0  0  0  0  0  0  0  0  0
    2.3485   -4.8306    7.8889 H   0  0  0  0  0  0  0  0  0  0  0  0
    0.6031   -7.2410    5.5852 H   0  0  0  0  0  0  0  0  0  0  0  0
    0.6503   -6.5867    7.2380 H   0  0  0  0  0  0  0  0  0  0  0  0
    1.9165   -7.6981    6.6852 H   0  0  0  0  0  0  0  0  0  0  0  0
    2.8110   -3.6962    4.8270 H   0  0  0  0  0  0  0  0  0  0  0  0
    3.3846   -3.2970    3.0092 H   0  0  0  0  0  0  0  0  0  0  0  0
    1.2630   -6.9660    1.7002 H   0  0  0  0  0  0  0  0  0  0  0  0
    1.1278   -5.6337    0.5679 H   0  0  0  0  0  0  0  0  0  0  0  0
    0.3862   -5.4952    2.1057 H   0  0  0  0  0  0  0  0  0  0  0  0
    1.3420   -6.1492    3.8042 H   0  0  0  0  0  0  0  0  0  0  0  0
    3.8971   -6.6270    1.3632 H   0  0  0  0  0  0  0  0  0  0  0  0
    1.7083   -3.7703   -0.2293 H   0  0  0  0  0  0  0  0  0  0  0  0
    3.0324   -3.9130   -2.2118 H   0  0  0  0  0  0  0  0  0  0  0  0
    1.9681   -1.6963   -1.3940 H   0  0  0  0  0  0  0  0  0  0  0  0
    6.4512   -4.0881   -2.3865 H   0  0  0  0  0  0  0  0  0  0  0  0
    4.9364   -4.2817   -3.2433 H   0  0  0  0  0  0  0  0  0  0  0  0
    5.1190   -5.1163   -1.7045 H   0  0  0  0  0  0  0  0  0  0  0  0
    6.3578   -1.7829   -2.2996 H   0  0  0  0  0  0  0  0  0  0  0  0
    4.9117   -0.8299   -1.9483 H   0  0  0  0  0  0  0  0  0  0  0  0
    4.9725   -1.8998   -3.3601 H   0  0  0  0  0  0  0  0  0  0  0  0
    5.4479   -1.6694    0.0098 H   0  0  0  0  0  0  0  0  0  0  0  0
    7.4666   -2.8629   -0.8867 H   0  0  0  0  0  0  0  0  0  0  0  0
    6.9025   -2.6899    1.7933 H   0  0  0  0  0  0  0  0  0  0  0  0
    4.8388   -4.5138    3.8269 H   0  0  0  0  0  0  0  0  0  0  0  0
    6.4603   -4.3663    3.1676 H   0  0  0  0  0  0  0  0  0  0  0  0
    5.7023   -5.9417    3.2954 H   0  0  0  0  0  0  0  0  0  0  0  0
    5.1143   -2.6024    2.0198 H   0  0  0  0  0  0  0  0  0  0  0  0
    3.4151   -0.9194    0.3603 H   0  0  0  0  0  0  0  0  0  0  0  0
    3.1588   -0.9804    2.1054 H   0  0  0  0  0  0  0  0  0  0  0  0
    1.8114   -1.3046    1.0052 H   0  0  0  0  0  0  0  0  0  0  0  0
  1  2  1  0
  1 31  1  0
  1 32  1  0
  1 33  1  0
  2 11  1  0
  2  3  1  0
  2  4  1  0
  3 34  1  0
  3 35  1  0
  3 36  1  0
  4  5  1  0
  5 10  1  0
  5  6  1  0
  5 37  1  1
  6  7  1  0
  7 29  1  0
  7  8  1  0
  7 38  1  1
  8  9  1  6
  8 10  1  0
  8 12  1  0
  9 39  1  0
  9 40  1  0
  9 41  1  0
 10 11  1  0
 10 42  1  6
 12 26  1  0
 12 13  1  0
 12 43  1  6
 13 14  1  0
 14 29  1  0
 14 15  1  0
 14 44  1  6
 15 16  1  0
 15 17  1  0
 15 45  1  6
 16 46  1  0
 17 18  1  0
 17 19  1  0
 17 20  1  0
 18 47  1  0
 18 48  1  0
 18 49  1  0
 19 50  1  0
 19 51  1  0
 19 52  1  0
 20 28  1  0
 20 21  1  0
 20 53  1  1
 21 22  1  0
 21 23  1  0
 21 54  1  6
 22 55  1  0
 23 24  1  0
 24 25  2  0
 24 26  1  0
 26 27  1  1
 26 28  1  0
 27 56  1  0
 27 57  1  0
 27 58  1  0
 28 29  1  0
 28 59  1  1
 29 30  1  6
 30 60  1  0
 30 61  1  0
 30 62  1  0
M  END
>  <i_m_ct_stereo_status>  (343) 
1

>  <s_m_source_file>  (343) 
/var/tmp/pbs.5076255.sched01/tmpcwktr4ti/1290j0z1rin.sdf

>  <i_m_source_file_index>  (343) 
24

>  <i_lp_mmshare_version>  (343) 
48012

>  <i_f3d_flags>  (343) 
0

>  <s_epik_input>  (343) 
W0NIM11DKE8xKShbQ0gzXSlPW0NASF0yW0NASF0xT1tDQEBIXShbQ0BdMjNbQ0gzXSlbQ0BdNChbQ0gzXSlbQ0BASF01T1tDQEhdM1tDQF02KFtDSDNdKVtDQEhdNFtDQEhdKEMoW0NIM10pKFtDSDNdKVtDQEBIXTVbT0hdKVtDQEBIXShbT0hdKU9DNj1P

>  <s_epik_cmdline>  (343) 
J2VwaWtfcHl0aG9uJywgJy1waHQnLCAnMi4wJywgJy1waCcsICc3LjAnLCAnLXRuJywgJzgnLCAnLW1hJywgJzIwMCcsICctaW1hZScsICc8aW5maWxlLm1hZT4nLCAnLW9tYWUnLCAnPG91dGZpbGUubWFlPic=

>  <r_lp_tautomer_probability>  (343) 
1

>  <r_epik_Ionization_Penalty>  (343) 
5.01102e-07

>  <r_epik_Ionization_Penalty_Charging>  (343) 
0

>  <r_epik_Ionization_Penalty_Neutral>  (343) 
5.01102e-07

>  <r_epik_State_Penalty>  (343) 
-0

>  <r_epik_Charging_Adjusted_Penalty>  (343) 
0

>  <i_epik_Tot_Q>  (343) 
0

>  <i_epik_Tot_abs_Q>  (343) 
0

>  <s_epik_Chemistry_Notes>  (343) 
This compound has an ester and may undergo hydrolysis at high or low pH. This compound contains an acetal/aminal-like group ( X-CH(R)-Y where X, Y are N, S, or O) that may be acid/base labile, releasing an aldehyde.

>  <s_lp_Force_Field>  (343) 
OPLS3e

>  <r_lp_Energy>  (343) 
140.18

>  <b_lp_Chiralities_Consistent>  (343) 
1

>  <s_lp_Variant>  (343) 
102:0-1

>  <s_i_glide_gridfile>  (343) 
pfpi4k_grid

>  <i_i_glide_lignum>  (343) 
24

>  <i_i_glide_rotatable_bonds>  (343) 
2

>  <r_i_docking_score>  (343) 
-2.03333

>  <r_i_glide_ligand_efficiency>  (343) 
-0.0677778

>  <r_i_glide_ligand_efficiency_sa>  (343) 
-0.210601

>  <r_i_glide_ligand_efficiency_ln>  (343) 
-0.461995

>  <r_i_glide_gscore>  (343) 
-2.03333

>  <r_i_glide_lipo>  (343) 
-0.155781

>  <r_i_glide_hbond>  (343) 
-0.158162

>  <r_i_glide_metal>  (343) 
-0

>  <r_i_glide_rewards>  (343) 
-0.819537

>  <r_i_glide_evdw>  (343) 
-6.91944

>  <r_i_glide_ecoul>  (343) 
-3.69254

>  <r_i_glide_erotb>  (343) 
0

>  <r_i_glide_esite>  (343) 
0

>  <r_i_glide_emodel>  (343) 
-10.8808

>  <r_i_glide_energy>  (343) 
-10.612

>  <r_i_glide_einternal>  (343) 
1.53733

>  <r_i_glide_intrahb_reward>  (343) 
-0

>  <i_i_glide_confnum>  (343) 
2

>  <i_i_glide_posenum>  (343) 
5

>  <r_i_glide_eff_state_penalty>  (343) 
0

>  <ligand_id>  (343) 
102

>  <original_smiles>  (343) 
CC1(C)OC2OC3C(C)(C2O1)C1OC2C(O)C(C)(C)C4C(O)OC(=O)C1(C)C4C23C

>  <smiles>  (343) 
[H]OC1([H])OC(=O)C2(C([H])([H])[H])C3([H])OC4([H])C([H])(O[H])C(C([H])([H])[H])(C([H])([H])[H])C1([H])C2([H])C4(C([H])([H])[H])C1([H])OC2([H])OC(C([H])([H])[H])(C([H])([H])[H])OC2([H])C31C([H])([H])[H]

$$$$
103:0:0
     RDKit          3D

 51 54  0  0  1  0  0  0  0  0999 V2000
    2.6503   -7.7719    1.6498 C   0  0  0  0  0  0  0  0  0  0  0  0
    3.8412   -7.0287    2.1904 C   0  0  0  0  0  0  0  0  0  0  0  0
    3.9721   -5.6941    2.2211 C   0  0  0  0  0  0  0  0  0  0  0  0
    2.9564   -4.7600    1.7126 C   0  0  0  0  0  0  0  0  0  0  0  0
    1.8828   -5.0436    1.2015 O   0  0  0  0  0  0  0  0  0  0  0  0
    3.3697   -3.3067    1.8984 C   0  0  0  0  0  0  0  0  0  0  0  0
    4.7755   -3.3940    2.5115 C   0  0  2  0  0  0  0  0  0  0  0  0
    5.8387   -2.6393    1.7087 C   0  0  2  0  0  0  0  0  0  0  0  0
    5.6554   -1.1246    1.6412 C   0  0  0  0  0  0  0  0  0  0  0  0
    5.1673   -0.6545    0.3031 C   0  0  0  0  0  0  0  0  0  0  0  0
    5.2377   -1.3695   -0.8269 C   0  0  0  0  0  0  0  0  0  0  0  0
    4.6003   -0.8302   -2.0946 C   0  0  0  0  0  0  0  0  0  0  0  0
    3.4732   -1.7294   -2.6055 C   0  0  0  0  0  0  0  0  0  0  0  0
    4.0124   -3.1329   -2.7544 C   0  0  0  0  0  0  0  0  0  0  0  0
    4.0142   -3.6917   -3.8590 O   0  0  0  0  0  0  0  0  0  0  0  0
    4.6938   -3.7309   -1.5144 C   0  0  0  0  0  0  0  0  0  0  0  0
    5.8021   -2.8035   -0.9285 C   0  0  1  0  0  0  0  0  0  0  0  0
    6.9955   -2.8386   -1.9104 C   0  0  0  0  0  0  0  0  0  0  0  0
    6.3957   -3.3122    0.4359 C   0  0  2  0  0  0  0  0  0  0  0  0
    6.5053   -4.8535    0.6022 C   0  0  0  0  0  0  0  0  0  0  0  0
    6.4503   -5.3276    2.0589 C   0  0  0  0  0  0  0  0  0  0  0  0
    5.1369   -4.8985    2.7626 C   0  0  2  0  0  0  0  0  0  0  0  0
    5.2407   -5.2014    4.2715 C   0  0  0  0  0  0  0  0  0  0  0  0
    2.8162   -8.8406    1.5995 H   0  0  0  0  0  0  0  0  0  0  0  0
    2.4987   -7.3804    0.6570 H   0  0  0  0  0  0  0  0  0  0  0  0
    1.7323   -7.5710    2.1920 H   0  0  0  0  0  0  0  0  0  0  0  0
    4.6425   -7.6507    2.5575 H   0  0  0  0  0  0  0  0  0  0  0  0
    3.3800   -2.7665    0.9524 H   0  0  0  0  0  0  0  0  0  0  0  0
    2.6813   -2.7771    2.5623 H   0  0  0  0  0  0  0  0  0  0  0  0
    4.7312   -2.8957    3.4824 H   0  0  0  0  0  0  0  0  0  0  0  0
    6.6606   -2.7073    2.3947 H   0  0  0  0  0  0  0  0  0  0  0  0
    4.9673   -0.7709    2.4127 H   0  0  0  0  0  0  0  0  0  0  0  0
    6.6232   -0.6580    1.8208 H   0  0  0  0  0  0  0  0  0  0  0  0
    4.7463    0.3368    0.3066 H   0  0  0  0  0  0  0  0  0  0  0  0
    4.2200    0.1659   -1.9082 H   0  0  0  0  0  0  0  0  0  0  0  0
    5.3925   -0.7469   -2.8246 H   0  0  0  0  0  0  0  0  0  0  0  0
    2.6243   -1.7187   -1.9150 H   0  0  0  0  0  0  0  0  0  0  0  0
    3.1196   -1.3675   -3.5630 H   0  0  0  0  0  0  0  0  0  0  0  0
    3.9432   -3.9271   -0.7549 H   0  0  0  0  0  0  0  0  0  0  0  0
    5.1014   -4.6983   -1.7948 H   0  0  0  0  0  0  0  0  0  0  0  0
    7.5157   -3.7993   -1.9142 H   0  0  0  0  0  0  0  0  0  0  0  0
    7.7484   -2.0896   -1.6544 H   0  0  0  0  0  0  0  0  0  0  0  0
    6.6586   -2.6832   -2.9384 H   0  0  0  0  0  0  0  0  0  0  0  0
    7.4314   -2.9620    0.4476 H   0  0  0  0  0  0  0  0  0  0  0  0
    5.7428   -5.3893    0.0445 H   0  0  0  0  0  0  0  0  0  0  0  0
    7.4624   -5.1830    0.1962 H   0  0  0  0  0  0  0  0  0  0  0  0
    6.5551   -6.4116    2.0905 H   0  0  0  0  0  0  0  0  0  0  0  0
    7.3180   -4.9629    2.5952 H   0  0  0  0  0  0  0  0  0  0  0  0
    6.0345   -4.6237    4.7419 H   0  0  0  0  0  0  0  0  0  0  0  0
    5.4495   -6.2602    4.4495 H   0  0  0  0  0  0  0  0  0  0  0  0
    4.3039   -4.9702    4.7845 H   0  0  0  0  0  0  0  0  0  0  0  0
  1  2  1  0
  1 24  1  0
  1 25  1  0
  1 26  1  0
  2  3  2  3
  2 27  1  0
  3 22  1  0
  3  4  1  0
  4  5  2  0
  4  6  1  0
  6  7  1  0
  6 28  1  0
  6 29  1  0
  7 22  1  0
  7  8  1  0
  7 30  1  1
  8 19  1  0
  8  9  1  0
  8 31  1  1
  9 10  1  0
  9 32  1  0
  9 33  1  0
 10 11  2  0
 10 34  1  0
 11 17  1  0
 11 12  1  0
 12 13  1  0
 12 35  1  0
 12 36  1  0
 13 14  1  0
 13 37  1  0
 13 38  1  0
 14 15  2  0
 14 16  1  0
 16 17  1  0
 16 39  1  0
 16 40  1  0
 17 18  1  6
 17 19  1  0
 18 41  1  0
 18 42  1  0
 18 43  1  0
 19 20  1  0
 19 44  1  6
 20 21  1  0
 20 45  1  0
 20 46  1  0
 21 22  1  0
 21 47  1  0
 21 48  1  0
 22 23  1  1
 23 49  1  0
 23 50  1  0
 23 51  1  0
M  END
>  <i_m_ct_stereo_status>  (344) 
1

>  <s_m_source_file>  (344) 
/var/tmp/pbs.5076255.sched01/tmpcwktr4ti/1290j0z1rin.sdf

>  <i_m_source_file_index>  (344) 
25

>  <i_lp_mmshare_version>  (344) 
48012

>  <i_f3d_flags>  (344) 
0

>  <s_epik_input>  (344) 
W0NIM10vW0NIXT1DKFxDKD1PKVtDSDJdMSlbQ0BAXShbQ0gzXSkoW0NIMl1bQ0gyXVtDQEhdMjMpW0NASF0xW0NAQEhdMltDSDJdW0NIXT1DKFtDQEBdMzRbQ0gzXSlbQ0gyXVtDSDJdQyg9TylbQ0gyXTQ=

>  <s_epik_cmdline>  (344) 
J2VwaWtfcHl0aG9uJywgJy1waHQnLCAnMi4wJywgJy1waCcsICc3LjAnLCAnLXRuJywgJzgnLCAnLW1hJywgJzIwMCcsICctaW1hZScsICc8aW5maWxlLm1hZT4nLCAnLW9tYWUnLCAnPG91dGZpbGUubWFlPic=

>  <r_lp_tautomer_probability>  (344) 
1

>  <r_epik_Ionization_Penalty>  (344) 
2.25491e-13

>  <r_epik_Ionization_Penalty_Charging>  (344) 
0

>  <r_epik_Ionization_Penalty_Neutral>  (344) 
2.25491e-13

>  <r_epik_State_Penalty>  (344) 
-0

>  <r_epik_Charging_Adjusted_Penalty>  (344) 
0

>  <i_epik_Tot_Q>  (344) 
0

>  <i_epik_Tot_abs_Q>  (344) 
0

>  <s_lp_Force_Field>  (344) 
OPLS3e

>  <r_lp_Energy>  (344) 
26.7226

>  <b_lp_Chiralities_Consistent>  (344) 
1

>  <s_lp_Variant>  (344) 
103:0-1

>  <s_i_glide_gridfile>  (344) 
pfpi4k_grid

>  <i_i_glide_lignum>  (344) 
25

>  <i_i_glide_rotatable_bonds>  (344) 
0

>  <r_i_docking_score>  (344) 
-3.47471

>  <r_i_glide_ligand_efficiency>  (344) 
-0.151074

>  <r_i_glide_ligand_efficiency_sa>  (344) 
-0.429635

>  <r_i_glide_ligand_efficiency_ln>  (344) 
-0.840217

>  <r_i_glide_gscore>  (344) 
-3.47471

>  <r_i_glide_lipo>  (344) 
-0.6419

>  <r_i_glide_hbond>  (344) 
-0.0653572

>  <r_i_glide_metal>  (344) 
-0

>  <r_i_glide_rewards>  (344) 
-1.27878

>  <r_i_glide_evdw>  (344) 
-21.6347

>  <r_i_glide_ecoul>  (344) 
-2.59403

>  <r_i_glide_erotb>  (344) 
0

>  <r_i_glide_esite>  (344) 
-0.0178358

>  <r_i_glide_emodel>  (344) 
-28.7944

>  <r_i_glide_energy>  (344) 
-24.2287

>  <r_i_glide_einternal>  (344) 
0

>  <r_i_glide_intrahb_reward>  (344) 
-0

>  <i_i_glide_confnum>  (344) 
1

>  <i_i_glide_posenum>  (344) 
5

>  <r_i_glide_eff_state_penalty>  (344) 
0

>  <ligand_id>  (344) 
103

>  <original_smiles>  (344) 
CC=C1C(=O)CC2C3CC=C4CCC(=O)CC4(C)C3CCC12C

>  <smiles>  (344) 
[H]C(=C1C(=O)C([H])([H])C2([H])C3([H])C([H])([H])C([H])=C4C([H])([H])C([H])([H])C(=O)C([H])([H])C4(C([H])([H])[H])C3([H])C([H])([H])C([H])([H])C12C([H])([H])[H])C([H])([H])[H]

$$$$
103:0:1
     RDKit          3D

 51 54  0  0  1  0  0  0  0  0999 V2000
   -1.3715    1.6055    3.0789 C   0  0  0  0  0  0  0  0  0  0  0  0
   -0.3131    2.5899    3.5337 C   0  0  0  0  0  0  0  0  0  0  0  0
    0.3486    2.6025    4.7099 C   0  0  0  0  0  0  0  0  0  0  0  0
    0.1435    1.6351    5.7966 C   0  0  0  0  0  0  0  0  0  0  0  0
   -0.6291    0.6776    5.8201 O   0  0  0  0  0  0  0  0  0  0  0  0
    1.0258    1.9528    6.9820 C   0  0  0  0  0  0  0  0  0  0  0  0
    1.7958    3.2274    6.5954 C   0  0  2  0  0  0  0  0  0  0  0  0
    1.6546    4.3935    7.6096 C   0  0  2  0  0  0  0  0  0  0  0  0
    2.1695    4.0810    9.0238 C   0  0  0  0  0  0  0  0  0  0  0  0
    1.0764    3.7790   10.0174 C   0  0  0  0  0  0  0  0  0  0  0  0
   -0.2252    4.0712    9.8591 C   0  0  0  0  0  0  0  0  0  0  0  0
   -1.2423    3.6303   10.9081 C   0  0  0  0  0  0  0  0  0  0  0  0
   -2.3013    2.6980   10.3037 C   0  0  0  0  0  0  0  0  0  0  0  0
   -2.9139    3.3056    9.0539 C   0  0  0  0  0  0  0  0  0  0  0  0
   -4.1296    3.3418    8.8757 O   0  0  0  0  0  0  0  0  0  0  0  0
   -1.9209    3.8422    8.0220 C   0  0  0  0  0  0  0  0  0  0  0  0
   -0.8135    4.7711    8.6185 C   0  0  1  0  0  0  0  0  0  0  0  0
   -1.4912    6.0970    9.0638 C   0  0  0  0  0  0  0  0  0  0  0  0
    0.3063    5.1664    7.5691 C   0  0  2  0  0  0  0  0  0  0  0  0
   -0.1872    5.3644    6.1084 C   0  0  0  0  0  0  0  0  0  0  0  0
    0.8777    5.0744    5.0415 C   0  0  0  0  0  0  0  0  0  0  0  0
    1.4091    3.6171    5.1280 C   0  0  2  0  0  0  0  0  0  0  0  0
    2.6279    3.4834    4.1897 C   0  0  0  0  0  0  0  0  0  0  0  0
   -1.7163    1.8548    2.0762 H   0  0  0  0  0  0  0  0  0  0  0  0
   -2.2333    1.6281    3.7443 H   0  0  0  0  0  0  0  0  0  0  0  0
   -0.9786    0.5893    3.0528 H   0  0  0  0  0  0  0  0  0  0  0  0
   -0.0816    3.3508    2.8049 H   0  0  0  0  0  0  0  0  0  0  0  0
    0.4185    2.0868    7.8743 H   0  0  0  0  0  0  0  0  0  0  0  0
    1.7054    1.1196    7.1660 H   0  0  0  0  0  0  0  0  0  0  0  0
    2.8495    2.9456    6.5977 H   0  0  0  0  0  0  0  0  0  0  0  0
    2.3971    5.1037    7.2411 H   0  0  0  0  0  0  0  0  0  0  0  0
    2.8645    3.2404    9.0015 H   0  0  0  0  0  0  0  0  0  0  0  0
    2.7277    4.9344    9.4131 H   0  0  0  0  0  0  0  0  0  0  0  0
    1.4003    3.2892   10.9233 H   0  0  0  0  0  0  0  0  0  0  0  0
   -0.7456    3.1142   11.7308 H   0  0  0  0  0  0  0  0  0  0  0  0
   -1.7242    4.5029   11.3504 H   0  0  0  0  0  0  0  0  0  0  0  0
   -1.8416    1.7492   10.0279 H   0  0  0  0  0  0  0  0  0  0  0  0
   -3.0892    2.4807   11.0222 H   0  0  0  0  0  0  0  0  0  0  0  0
   -1.4752    2.9795    7.5380 H   0  0  0  0  0  0  0  0  0  0  0  0
   -2.5061    4.3621    7.2686 H   0  0  0  0  0  0  0  0  0  0  0  0
   -1.8626    6.6626    8.2066 H   0  0  0  0  0  0  0  0  0  0  0  0
   -0.7883    6.7388    9.6011 H   0  0  0  0  0  0  0  0  0  0  0  0
   -2.3443    5.9412    9.7272 H   0  0  0  0  0  0  0  0  0  0  0  0
    0.6373    6.1594    7.8808 H   0  0  0  0  0  0  0  0  0  0  0  0
   -1.0269    4.7234    5.8652 H   0  0  0  0  0  0  0  0  0  0  0  0
   -0.5542    6.3822    5.9919 H   0  0  0  0  0  0  0  0  0  0  0  0
    0.4698    5.2769    4.0505 H   0  0  0  0  0  0  0  0  0  0  0  0
    1.6985    5.7833    5.1547 H   0  0  0  0  0  0  0  0  0  0  0  0
    3.4402    4.1423    4.5021 H   0  0  0  0  0  0  0  0  0  0  0  0
    2.3751    3.7455    3.1593 H   0  0  0  0  0  0  0  0  0  0  0  0
    3.0160    2.4633    4.1811 H   0  0  0  0  0  0  0  0  0  0  0  0
  1  2  1  0
  1 24  1  0
  1 25  1  0
  1 26  1  0
  2  3  2  3
  2 27  1  0
  3 22  1  0
  3  4  1  0
  4  5  2  0
  4  6  1  0
  6  7  1  0
  6 28  1  0
  6 29  1  0
  7 22  1  0
  7  8  1  0
  7 30  1  6
  8 19  1  0
  8  9  1  0
  8 31  1  6
  9 10  1  0
  9 32  1  0
  9 33  1  0
 10 11  2  0
 10 34  1  0
 11 17  1  0
 11 12  1  0
 12 13  1  0
 12 35  1  0
 12 36  1  0
 13 14  1  0
 13 37  1  0
 13 38  1  0
 14 15  2  0
 14 16  1  0
 16 17  1  0
 16 39  1  0
 16 40  1  0
 17 18  1  1
 17 19  1  0
 18 41  1  0
 18 42  1  0
 18 43  1  0
 19 20  1  0
 19 44  1  1
 20 21  1  0
 20 45  1  0
 20 46  1  0
 21 22  1  0
 21 47  1  0
 21 48  1  0
 22 23  1  6
 23 49  1  0
 23 50  1  0
 23 51  1  0
M  END
>  <i_m_ct_stereo_status>  (345) 
1

>  <s_m_source_file>  (345) 
/var/tmp/pbs.5076255.sched01/tmpcwktr4ti/1290j0z1rin.sdf

>  <i_m_source_file_index>  (345) 
25

>  <i_lp_mmshare_version>  (345) 
48012

>  <i_f3d_flags>  (345) 
0

>  <s_epik_input>  (345) 
W0NIM10vW0NIXT1DKFxDKD1PKVtDSDJdMSlbQ0BAXShbQ0gzXSkoW0NIMl1bQ0gyXVtDQEhdMjMpW0NASF0xW0NAQEhdMltDSDJdW0NIXT1DKFtDQEBdMzRbQ0gzXSlbQ0gyXVtDSDJdQyg9TylbQ0gyXTQ=

>  <s_epik_cmdline>  (345) 
J2VwaWtfcHl0aG9uJywgJy1waHQnLCAnMi4wJywgJy1waCcsICc3LjAnLCAnLXRuJywgJzgnLCAnLW1hJywgJzIwMCcsICctaW1hZScsICc8aW5maWxlLm1hZT4nLCAnLW9tYWUnLCAnPG91dGZpbGUubWFlPic=

>  <r_lp_tautomer_probability>  (345) 
1

>  <r_epik_Ionization_Penalty>  (345) 
2.25491e-13

>  <r_epik_Ionization_Penalty_Charging>  (345) 
0

>  <r_epik_Ionization_Penalty_Neutral>  (345) 
2.25491e-13

>  <r_epik_State_Penalty>  (345) 
-0

>  <r_epik_Charging_Adjusted_Penalty>  (345) 
0

>  <i_epik_Tot_Q>  (345) 
0

>  <i_epik_Tot_abs_Q>  (345) 
0

>  <s_lp_Force_Field>  (345) 
OPLS3e

>  <r_lp_Energy>  (345) 
26.7226

>  <b_lp_Chiralities_Consistent>  (345) 
1

>  <s_lp_Variant>  (345) 
103:0-1

>  <s_i_glide_gridfile>  (345) 
pfpi4k_grid

>  <i_i_glide_lignum>  (345) 
25

>  <i_i_glide_rotatable_bonds>  (345) 
0

>  <r_i_docking_score>  (345) 
-2.45268

>  <r_i_glide_ligand_efficiency>  (345) 
-0.106638

>  <r_i_glide_ligand_efficiency_sa>  (345) 
-0.303266

>  <r_i_glide_ligand_efficiency_ln>  (345) 
-0.593081

>  <r_i_glide_gscore>  (345) 
-2.45268

>  <r_i_glide_lipo>  (345) 
-0.00651984

>  <r_i_glide_hbond>  (345) 
0

>  <r_i_glide_metal>  (345) 
-0

>  <r_i_glide_rewards>  (345) 
-1.27878

>  <r_i_glide_evdw>  (345) 
-19.121

>  <r_i_glide_ecoul>  (345) 
-1.32065

>  <r_i_glide_erotb>  (345) 
0

>  <r_i_glide_esite>  (345) 
-0.0132406

>  <r_i_glide_emodel>  (345) 
-23.9867

>  <r_i_glide_energy>  (345) 
-20.4416

>  <r_i_glide_einternal>  (345) 
0

>  <r_i_glide_intrahb_reward>  (345) 
-0

>  <i_i_glide_confnum>  (345) 
2

>  <i_i_glide_posenum>  (345) 
9

>  <r_i_glide_eff_state_penalty>  (345) 
0

>  <ligand_id>  (345) 
103

>  <original_smiles>  (345) 
CC=C1C(=O)CC2C3CC=C4CCC(=O)CC4(C)C3CCC12C

>  <smiles>  (345) 
[H]C(=C1C(=O)C([H])([H])C2([H])C3([H])C([H])([H])C([H])=C4C([H])([H])C([H])([H])C(=O)C([H])([H])C4(C([H])([H])[H])C3([H])C([H])([H])C([H])([H])C12C([H])([H])[H])C([H])([H])[H]

$$$$
103:0:2
     RDKit          3D

 51 54  0  0  1  0  0  0  0  0999 V2000
   -2.9093    2.8718    8.1795 C   0  0  0  0  0  0  0  0  0  0  0  0
   -1.6504    3.7016    8.0059 C   0  0  0  0  0  0  0  0  0  0  0  0
   -1.0481    4.0566    6.8493 C   0  0  0  0  0  0  0  0  0  0  0  0
   -1.5215    3.6871    5.5090 C   0  0  0  0  0  0  0  0  0  0  0  0
   -2.5357    3.0548    5.2264 O   0  0  0  0  0  0  0  0  0  0  0  0
   -0.6117    4.2269    4.4298 C   0  0  0  0  0  0  0  0  0  0  0  0
    0.5153    4.9586    5.1760 C   0  0  2  0  0  0  0  0  0  0  0  0
    1.9441    4.4807    4.8027 C   0  0  2  0  0  0  0  0  0  0  0  0
    2.3155    4.6699    3.3226 C   0  0  0  0  0  0  0  0  0  0  0  0
    2.2393    3.4035    2.5138 C   0  0  0  0  0  0  0  0  0  0  0  0
    2.2064    2.1537    3.0089 C   0  0  0  0  0  0  0  0  0  0  0  0
    2.0455    0.9569    2.0768 C   0  0  0  0  0  0  0  0  0  0  0  0
    0.7760    0.1560    2.3965 C   0  0  0  0  0  0  0  0  0  0  0  0
    0.7148   -0.1849    3.8788 C   0  0  0  0  0  0  0  0  0  0  0  0
    0.4523   -1.3199    4.2772 O   0  0  0  0  0  0  0  0  0  0  0  0
    0.9729    0.9721    4.8460 C   0  0  0  0  0  0  0  0  0  0  0  0
    2.2433    1.8198    4.5128 C   0  0  1  0  0  0  0  0  0  0  0  0
    3.4935    0.9448    4.8014 C   0  0  0  0  0  0  0  0  0  0  0  0
    2.3841    3.1171    5.4103 C   0  0  2  0  0  0  0  0  0  0  0  0
    1.8924    2.9623    6.8790 C   0  0  0  0  0  0  0  0  0  0  0  0
    1.4020    4.2766    7.5061 C   0  0  0  0  0  0  0  0  0  0  0  0
    0.2186    4.8975    6.7147 C   0  0  2  0  0  0  0  0  0  0  0  0
   -0.0574    6.3125    7.2692 C   0  0  0  0  0  0  0  0  0  0  0  0
   -3.1442    2.7591    9.2380 H   0  0  0  0  0  0  0  0  0  0  0  0
   -2.7803    1.8776    7.7538 H   0  0  0  0  0  0  0  0  0  0  0  0
   -3.7642    3.3420    7.6969 H   0  0  0  0  0  0  0  0  0  0  0  0
   -1.2123    4.0356    8.9351 H   0  0  0  0  0  0  0  0  0  0  0  0
   -0.2427    3.4185    3.8001 H   0  0  0  0  0  0  0  0  0  0  0  0
   -1.1648    4.9119    3.7849 H   0  0  0  0  0  0  0  0  0  0  0  0
    0.4546    6.0016    4.8620 H   0  0  0  0  0  0  0  0  0  0  0  0
    2.5717    5.2257    5.2977 H   0  0  0  0  0  0  0  0  0  0  0  0
    1.6741    5.4184    2.8558 H   0  0  0  0  0  0  0  0  0  0  0  0
    3.3368    5.0440    3.2343 H   0  0  0  0  0  0  0  0  0  0  0  0
    2.2085    3.5601    1.4487 H   0  0  0  0  0  0  0  0  0  0  0  0
    1.9981    1.2883    1.0422 H   0  0  0  0  0  0  0  0  0  0  0  0
    2.9228    0.3148    2.1413 H   0  0  0  0  0  0  0  0  0  0  0  0
   -0.1046    0.7522    2.1544 H   0  0  0  0  0  0  0  0  0  0  0  0
    0.7234   -0.7493    1.7930 H   0  0  0  0  0  0  0  0  0  0  0  0
    0.0850    1.5949    4.8250 H   0  0  0  0  0  0  0  0  0  0  0  0
    1.0388    0.5439    5.8449 H   0  0  0  0  0  0  0  0  0  0  0  0
    3.5955    0.7381    5.8685 H   0  0  0  0  0  0  0  0  0  0  0  0
    4.4105    1.4402    4.4737 H   0  0  0  0  0  0  0  0  0  0  0  0
    3.4658   -0.0240    4.3010 H   0  0  0  0  0  0  0  0  0  0  0  0
    3.4625    3.2772    5.4953 H   0  0  0  0  0  0  0  0  0  0  0  0
    1.0679    2.2633    6.9740 H   0  0  0  0  0  0  0  0  0  0  0  0
    2.6950    2.5430    7.4825 H   0  0  0  0  0  0  0  0  0  0  0  0
    1.1183    4.0986    8.5438 H   0  0  0  0  0  0  0  0  0  0  0  0
    2.2318    4.9822    7.5602 H   0  0  0  0  0  0  0  0  0  0  0  0
    0.8045    6.9664    7.1268 H   0  0  0  0  0  0  0  0  0  0  0  0
   -0.2738    6.2905    8.3391 H   0  0  0  0  0  0  0  0  0  0  0  0
   -0.9088    6.7811    6.7755 H   0  0  0  0  0  0  0  0  0  0  0  0
  1  2  1  0
  1 24  1  0
  1 25  1  0
  1 26  1  0
  2  3  2  3
  2 27  1  0
  3 22  1  0
  3  4  1  0
  4  5  2  0
  4  6  1  0
  6  7  1  0
  6 28  1  0
  6 29  1  0
  7 22  1  0
  7  8  1  0
  7 30  1  6
  8 19  1  0
  8  9  1  0
  8 31  1  1
  9 10  1  0
  9 32  1  0
  9 33  1  0
 10 11  2  0
 10 34  1  0
 11 17  1  0
 11 12  1  0
 12 13  1  0
 12 35  1  0
 12 36  1  0
 13 14  1  0
 13 37  1  0
 13 38  1  0
 14 15  2  0
 14 16  1  0
 16 17  1  0
 16 39  1  0
 16 40  1  0
 17 18  1  6
 17 19  1  0
 18 41  1  0
 18 42  1  0
 18 43  1  0
 19 20  1  0
 19 44  1  1
 20 21  1  0
 20 45  1  0
 20 46  1  0
 21 22  1  0
 21 47  1  0
 21 48  1  0
 22 23  1  1
 23 49  1  0
 23 50  1  0
 23 51  1  0
M  END
>  <i_m_ct_stereo_status>  (346) 
1

>  <s_m_source_file>  (346) 
/var/tmp/pbs.5076255.sched01/tmpcwktr4ti/1290j0z1rin.sdf

>  <i_m_source_file_index>  (346) 
25

>  <i_lp_mmshare_version>  (346) 
48012

>  <i_f3d_flags>  (346) 
0

>  <s_epik_input>  (346) 
W0NIM10vW0NIXT1DKFxDKD1PKVtDSDJdMSlbQ0BAXShbQ0gzXSkoW0NIMl1bQ0gyXVtDQEhdMjMpW0NASF0xW0NAQEhdMltDSDJdW0NIXT1DKFtDQEBdMzRbQ0gzXSlbQ0gyXVtDSDJdQyg9TylbQ0gyXTQ=

>  <s_epik_cmdline>  (346) 
J2VwaWtfcHl0aG9uJywgJy1waHQnLCAnMi4wJywgJy1waCcsICc3LjAnLCAnLXRuJywgJzgnLCAnLW1hJywgJzIwMCcsICctaW1hZScsICc8aW5maWxlLm1hZT4nLCAnLW9tYWUnLCAnPG91dGZpbGUubWFlPic=

>  <r_lp_tautomer_probability>  (346) 
1

>  <r_epik_Ionization_Penalty>  (346) 
2.25491e-13

>  <r_epik_Ionization_Penalty_Charging>  (346) 
0

>  <r_epik_Ionization_Penalty_Neutral>  (346) 
2.25491e-13

>  <r_epik_State_Penalty>  (346) 
-0

>  <r_epik_Charging_Adjusted_Penalty>  (346) 
0

>  <i_epik_Tot_Q>  (346) 
0

>  <i_epik_Tot_abs_Q>  (346) 
0

>  <s_lp_Force_Field>  (346) 
OPLS3e

>  <r_lp_Energy>  (346) 
26.7226

>  <b_lp_Chiralities_Consistent>  (346) 
1

>  <s_lp_Variant>  (346) 
103:0-1

>  <s_i_glide_gridfile>  (346) 
pfpi4k_grid

>  <i_i_glide_lignum>  (346) 
25

>  <i_i_glide_rotatable_bonds>  (346) 
0

>  <r_i_docking_score>  (346) 
-2.42439

>  <r_i_glide_ligand_efficiency>  (346) 
-0.105408

>  <r_i_glide_ligand_efficiency_sa>  (346) 
-0.299768

>  <r_i_glide_ligand_efficiency_ln>  (346) 
-0.58624

>  <r_i_glide_gscore>  (346) 
-2.42439

>  <r_i_glide_lipo>  (346) 
-0.128112

>  <r_i_glide_hbond>  (346) 
0

>  <r_i_glide_metal>  (346) 
-0

>  <r_i_glide_rewards>  (346) 
-1.27878

>  <r_i_glide_evdw>  (346) 
-21.7472

>  <r_i_glide_ecoul>  (346) 
0.633708

>  <r_i_glide_erotb>  (346) 
0

>  <r_i_glide_esite>  (346) 
-0.0252017

>  <r_i_glide_emodel>  (346) 
-24.6205

>  <r_i_glide_energy>  (346) 
-21.1135

>  <r_i_glide_einternal>  (346) 
0

>  <r_i_glide_intrahb_reward>  (346) 
-0

>  <i_i_glide_confnum>  (346) 
2

>  <i_i_glide_posenum>  (346) 
37

>  <r_i_glide_eff_state_penalty>  (346) 
0

>  <ligand_id>  (346) 
103

>  <original_smiles>  (346) 
CC=C1C(=O)CC2C3CC=C4CCC(=O)CC4(C)C3CCC12C

>  <smiles>  (346) 
[H]C(=C1C(=O)C([H])([H])C2([H])C3([H])C([H])([H])C([H])=C4C([H])([H])C([H])([H])C(=O)C([H])([H])C4(C([H])([H])[H])C3([H])C([H])([H])C([H])([H])C12C([H])([H])[H])C([H])([H])[H]

$$$$
103:1:0
     RDKit          3D

 51 54  0  0  1  0  0  0  0  0999 V2000
    3.5175   -0.9724   -3.7511 C   0  0  0  0  0  0  0  0  0  0  0  0
    2.9019   -1.9858   -2.8086 C   0  0  0  0  0  0  0  0  0  0  0  0
    3.5051   -2.7499   -1.8722 C   0  0  0  0  0  0  0  0  0  0  0  0
    2.7182   -3.6746   -1.0618 C   0  0  0  0  0  0  0  0  0  0  0  0
    1.5108   -3.8799   -1.1443 O   0  0  0  0  0  0  0  0  0  0  0  0
    3.5761   -4.4528   -0.0967 C   0  0  0  0  0  0  0  0  0  0  0  0
    5.0039   -3.9450   -0.3328 C   0  0  2  0  0  0  0  0  0  0  0  0
    5.7199   -3.4787    0.9584 C   0  0  2  0  0  0  0  0  0  0  0  0
    5.9028   -4.5827    2.0136 C   0  0  0  0  0  0  0  0  0  0  0  0
    4.8883   -4.5278    3.1266 C   0  0  0  0  0  0  0  0  0  0  0  0
    4.1226   -3.4688    3.4360 C   0  0  0  0  0  0  0  0  0  0  0  0
    3.0745   -3.5783    4.5419 C   0  0  0  0  0  0  0  0  0  0  0  0
    1.6614   -3.2864    4.0134 C   0  0  0  0  0  0  0  0  0  0  0  0
    1.6357   -1.9643    3.2580 C   0  0  0  0  0  0  0  0  0  0  0  0
    0.7871   -1.1039    3.4870 O   0  0  0  0  0  0  0  0  0  0  0  0
    2.7225   -1.7799    2.1964 C   0  0  0  0  0  0  0  0  0  0  0  0
    4.1677   -2.1166    2.6909 C   0  0  1  0  0  0  0  0  0  0  0  0
    4.5981   -1.0127    3.6934 C   0  0  0  0  0  0  0  0  0  0  0  0
    5.2424   -2.1090    1.5254 C   0  0  2  0  0  0  0  0  0  0  0  0
    4.9715   -1.0877    0.3814 C   0  0  0  0  0  0  0  0  0  0  0  0
    5.5560   -1.5133   -0.9722 C   0  0  0  0  0  0  0  0  0  0  0  0
    4.9778   -2.8645   -1.4736 C   0  0  2  0  0  0  0  0  0  0  0  0
    5.8074   -3.3707   -2.6740 C   0  0  0  0  0  0  0  0  0  0  0  0
    3.2426   -1.2060   -4.7775 H   0  0  0  0  0  0  0  0  0  0  0  0
    4.5981   -0.9289   -3.7000 H   0  0  0  0  0  0  0  0  0  0  0  0
    3.1320    0.0190   -3.5193 H   0  0  0  0  0  0  0  0  0  0  0  0
    1.8299   -2.0795   -2.9220 H   0  0  0  0  0  0  0  0  0  0  0  0
    3.2305   -4.3046    0.9228 H   0  0  0  0  0  0  0  0  0  0  0  0
    3.4963   -5.5169   -0.3198 H   0  0  0  0  0  0  0  0  0  0  0  0
    5.5603   -4.8085   -0.7001 H   0  0  0  0  0  0  0  0  0  0  0  0
    6.7419   -3.3100    0.6105 H   0  0  0  0  0  0  0  0  0  0  0  0
    5.8703   -5.5690    1.5512 H   0  0  0  0  0  0  0  0  0  0  0  0
    6.8857   -4.4993    2.4732 H   0  0  0  0  0  0  0  0  0  0  0  0
    4.7997   -5.4339    3.7084 H   0  0  0  0  0  0  0  0  0  0  0  0
    3.0938   -4.5764    4.9807 H   0  0  0  0  0  0  0  0  0  0  0  0
    3.3212   -2.8897    5.3496 H   0  0  0  0  0  0  0  0  0  0  0  0
    1.3522   -4.0713    3.3221 H   0  0  0  0  0  0  0  0  0  0  0  0
    0.9352   -3.2681    4.8247 H   0  0  0  0  0  0  0  0  0  0  0  0
    2.4479   -2.4086    1.3555 H   0  0  0  0  0  0  0  0  0  0  0  0
    2.6602   -0.7509    1.8474 H   0  0  0  0  0  0  0  0  0  0  0  0
    4.7099   -0.0469    3.1970 H   0  0  0  0  0  0  0  0  0  0  0  0
    5.5531   -1.2541    4.1644 H   0  0  0  0  0  0  0  0  0  0  0  0
    3.8793   -0.8665    4.5001 H   0  0  0  0  0  0  0  0  0  0  0  0
    6.1643   -1.7567    1.9940 H   0  0  0  0  0  0  0  0  0  0  0  0
    3.9135   -0.9224    0.2028 H   0  0  0  0  0  0  0  0  0  0  0  0
    5.3729   -0.1150    0.6627 H   0  0  0  0  0  0  0  0  0  0  0  0
    5.3853   -0.7146   -1.6921 H   0  0  0  0  0  0  0  0  0  0  0  0
    6.6374   -1.5928   -0.8816 H   0  0  0  0  0  0  0  0  0  0  0  0
    6.8332   -3.5877   -2.3750 H   0  0  0  0  0  0  0  0  0  0  0  0
    5.8641   -2.6566   -3.4883 H   0  0  0  0  0  0  0  0  0  0  0  0
    5.3827   -4.2866   -3.0872 H   0  0  0  0  0  0  0  0  0  0  0  0
  1  2  1  0
  1 24  1  0
  1 25  1  0
  1 26  1  0
  2  3  2  3
  2 27  1  0
  3 22  1  0
  3  4  1  0
  4  5  2  0
  4  6  1  0
  6  7  1  0
  6 28  1  0
  6 29  1  0
  7 22  1  0
  7  8  1  0
  7 30  1  6
  8 19  1  0
  8  9  1  0
  8 31  1  6
  9 10  1  0
  9 32  1  0
  9 33  1  0
 10 11  2  0
 10 34  1  0
 11 17  1  0
 11 12  1  0
 12 13  1  0
 12 35  1  0
 12 36  1  0
 13 14  1  0
 13 37  1  0
 13 38  1  0
 14 15  2  0
 14 16  1  0
 16 17  1  0
 16 39  1  0
 16 40  1  0
 17 18  1  1
 17 19  1  0
 18 41  1  0
 18 42  1  0
 18 43  1  0
 19 20  1  0
 19 44  1  1
 20 21  1  0
 20 45  1  0
 20 46  1  0
 21 22  1  0
 21 47  1  0
 21 48  1  0
 22 23  1  6
 23 49  1  0
 23 50  1  0
 23 51  1  0
M  END
>  <i_m_ct_stereo_status>  (347) 
1

>  <s_m_source_file>  (347) 
/var/tmp/pbs.5076255.sched01/tmpcwktr4ti/1290j0z1rin.sdf

>  <i_m_source_file_index>  (347) 
26

>  <i_lp_mmshare_version>  (347) 
48012

>  <i_f3d_flags>  (347) 
0

>  <s_epik_input>  (347) 
W0NIM10vW0NIXT1DKFxDKD1PKVtDSDJdMSlbQ0BAXShbQ0gzXSkoW0NIMl1bQ0gyXVtDQEhdMjMpW0NASF0xW0NAQEhdMltDSDJdW0NIXT1DKFtDQEBdMzRbQ0gzXSlbQ0gyXVtDSDJdQyg9TylbQ0gyXTQ=

>  <s_epik_cmdline>  (347) 
J2VwaWtfcHl0aG9uJywgJy1waHQnLCAnMi4wJywgJy1waCcsICc3LjAnLCAnLXRuJywgJzgnLCAnLW1hJywgJzIwMCcsICctaW1hZScsICc8aW5maWxlLm1hZT4nLCAnLW9tYWUnLCAnPG91dGZpbGUubWFlPic=

>  <r_lp_tautomer_probability>  (347) 
1

>  <r_epik_Ionization_Penalty>  (347) 
2.25491e-13

>  <r_epik_Ionization_Penalty_Charging>  (347) 
0

>  <r_epik_Ionization_Penalty_Neutral>  (347) 
2.25491e-13

>  <r_epik_State_Penalty>  (347) 
-0

>  <r_epik_Charging_Adjusted_Penalty>  (347) 
0

>  <i_epik_Tot_Q>  (347) 
0

>  <i_epik_Tot_abs_Q>  (347) 
0

>  <s_lp_Force_Field>  (347) 
OPLS3e

>  <r_lp_Energy>  (347) 
25.3618

>  <b_lp_Chiralities_Consistent>  (347) 
1

>  <s_lp_Variant>  (347) 
103:0-2

>  <s_i_glide_gridfile>  (347) 
pfpi4k_grid

>  <i_i_glide_lignum>  (347) 
26

>  <i_i_glide_rotatable_bonds>  (347) 
0

>  <r_i_docking_score>  (347) 
-3.48828

>  <r_i_glide_ligand_efficiency>  (347) 
-0.151664

>  <r_i_glide_ligand_efficiency_sa>  (347) 
-0.431313

>  <r_i_glide_ligand_efficiency_ln>  (347) 
-0.843497

>  <r_i_glide_gscore>  (347) 
-3.48828

>  <r_i_glide_lipo>  (347) 
-0.89073

>  <r_i_glide_hbond>  (347) 
-0.0243855

>  <r_i_glide_metal>  (347) 
-0

>  <r_i_glide_rewards>  (347) 
-1.28781

>  <r_i_glide_evdw>  (347) 
-24.1679

>  <r_i_glide_ecoul>  (347) 
-0.464659

>  <r_i_glide_erotb>  (347) 
0

>  <r_i_glide_esite>  (347) 
-0.00726045

>  <r_i_glide_emodel>  (347) 
-30.0247

>  <r_i_glide_energy>  (347) 
-24.6325

>  <r_i_glide_einternal>  (347) 
0

>  <r_i_glide_intrahb_reward>  (347) 
-0

>  <i_i_glide_confnum>  (347) 
1

>  <i_i_glide_posenum>  (347) 
1

>  <r_i_glide_eff_state_penalty>  (347) 
0

>  <ligand_id>  (347) 
103

>  <original_smiles>  (347) 
CC=C1C(=O)CC2C3CC=C4CCC(=O)CC4(C)C3CCC12C

>  <smiles>  (347) 
[H]C(=C1C(=O)C([H])([H])C2([H])C3([H])C([H])([H])C([H])=C4C([H])([H])C([H])([H])C(=O)C([H])([H])C4(C([H])([H])[H])C3([H])C([H])([H])C([H])([H])C12C([H])([H])[H])C([H])([H])[H]

$$$$
104:0:0
     RDKit          3D

 20 22  0  0  1  0  0  0  0  0999 V2000
    7.3960   -2.2875   -0.3590 O   0  0  0  0  0  0  0  0  0  0  0  0
    6.2601   -2.5300   -0.7606 C   0  0  0  0  0  0  0  0  0  0  0  0
    5.7884   -1.9572   -1.9135 O   0  0  0  0  0  0  0  0  0  0  0  0
    4.5398   -2.1873   -2.3912 C   0  0  0  0  0  0  0  0  0  0  0  0
    3.9382   -1.6970   -3.5139 C   0  0  0  0  0  0  0  0  0  0  0  0
    2.6296   -2.2571   -3.5457 C   0  0  0  0  0  0  0  0  0  0  0  0
    2.4790   -3.0566   -2.4434 C   0  0  0  0  0  0  0  0  0  0  0  0
    3.6614   -3.0175   -1.7280 N   0  0  0  0  0  0  0  0  0  0  0  0
    4.0038   -3.6719   -0.5313 C   0  0  0  0  0  0  0  0  0  0  0  0
    3.1150   -4.4753    0.1007 N   0  0  0  0  0  0  0  0  0  0  0  0
    3.5052   -5.0849    1.2394 C   0  0  0  0  0  0  0  0  0  0  0  0
    4.7784   -4.9117    1.8131 C   0  0  0  0  0  0  0  0  0  0  0  0
    5.6980   -4.0688    1.1623 C   0  0  0  0  0  0  0  0  0  0  0  0
    5.3100   -3.4347   -0.0385 C   0  0  0  0  0  0  0  0  0  0  0  0
    4.3849   -1.0144   -4.2220 H   0  0  0  0  0  0  0  0  0  0  0  0
    1.8686   -2.0919   -4.2954 H   0  0  0  0  0  0  0  0  0  0  0  0
    1.6416   -3.6539   -2.1111 H   0  0  0  0  0  0  0  0  0  0  0  0
    2.7772   -5.7253    1.7145 H   0  0  0  0  0  0  0  0  0  0  0  0
    5.0396   -5.4151    2.7329 H   0  0  0  0  0  0  0  0  0  0  0  0
    6.6824   -3.9182    1.5878 H   0  0  0  0  0  0  0  0  0  0  0  0
  1  2  2  0
  2 14  1  0
  2  3  1  0
  3  4  1  0
  4  8  1  0
  4  5  2  0
  5  6  1  0
  5 15  1  0
  6  7  2  0
  6 16  1  0
  7  8  1  0
  7 17  1  0
  8  9  1  0
  9 14  2  0
  9 10  1  0
 10 11  2  0
 11 12  1  0
 11 18  1  0
 12 13  2  0
 12 19  1  0
 13 14  1  0
 13 20  1  0
M  END
>  <i_m_ct_stereo_status>  (348) 
1

>  <s_m_source_file>  (348) 
/var/tmp/pbs.5076255.sched01/tmpcwktr4ti/1290j0z1rin.sdf

>  <i_m_source_file_index>  (348) 
27

>  <i_lp_mmshare_version>  (348) 
48012

>  <i_f3d_flags>  (348) 
0

>  <s_epik_input>  (348) 
bjFbY0hdW2NIXVtjSF1jKGMoPU8pbzIpYzFuKGMyMylbY0hdW2NIXVtjSF0z

>  <s_epik_cmdline>  (348) 
J2VwaWtfcHl0aG9uJywgJy1waHQnLCAnMi4wJywgJy1waCcsICc3LjAnLCAnLXRuJywgJzgnLCAnLW1hJywgJzIwMCcsICctaW1hZScsICc8aW5maWxlLm1hZT4nLCAnLW9tYWUnLCAnPG91dGZpbGUubWFlPic=

>  <r_lp_tautomer_probability>  (348) 
1

>  <r_epik_Ionization_Penalty>  (348) 
2.31557e-07

>  <r_epik_Ionization_Penalty_Charging>  (348) 
0

>  <r_epik_Ionization_Penalty_Neutral>  (348) 
2.31557e-07

>  <r_epik_State_Penalty>  (348) 
-0

>  <r_epik_Charging_Adjusted_Penalty>  (348) 
0

>  <i_epik_Tot_Q>  (348) 
0

>  <i_epik_Tot_abs_Q>  (348) 
0

>  <s_lp_Force_Field>  (348) 
OPLS3e

>  <r_lp_Energy>  (348) 
18.8087

>  <b_lp_Chiralities_Consistent>  (348) 
1

>  <s_lp_Variant>  (348) 
104:0-1

>  <s_i_glide_gridfile>  (348) 
pfpi4k_grid

>  <i_i_glide_lignum>  (348) 
27

>  <i_i_glide_rotatable_bonds>  (348) 
0

>  <r_i_docking_score>  (348) 
-4.13683

>  <r_i_glide_ligand_efficiency>  (348) 
-0.295488

>  <r_i_glide_ligand_efficiency_sa>  (348) 
-0.712168

>  <r_i_glide_ligand_efficiency_ln>  (348) 
-1.13679

>  <r_i_glide_gscore>  (348) 
-4.13683

>  <r_i_glide_lipo>  (348) 
-0.668866

>  <r_i_glide_hbond>  (348) 
-0.121852

>  <r_i_glide_metal>  (348) 
-0

>  <r_i_glide_rewards>  (348) 
-2.1432

>  <r_i_glide_evdw>  (348) 
-21.3354

>  <r_i_glide_ecoul>  (348) 
-0.824303

>  <r_i_glide_erotb>  (348) 
0

>  <r_i_glide_esite>  (348) 
-0.0125018

>  <r_i_glide_emodel>  (348) 
-28.0004

>  <r_i_glide_energy>  (348) 
-22.1597

>  <r_i_glide_einternal>  (348) 
0

>  <r_i_glide_intrahb_reward>  (348) 
-0

>  <i_i_glide_confnum>  (348) 
1

>  <i_i_glide_posenum>  (348) 
1

>  <r_i_glide_eff_state_penalty>  (348) 
0

>  <ligand_id>  (348) 
104

>  <original_smiles>  (348) 
O=c1oc2cccn2c2ncccc12

>  <smiles>  (348) 
[H]c1nc2c(c([H])c1[H])c(=O)oc1c([H])c([H])c([H])n12

$$$$
104:0:1
     RDKit          3D

 20 22  0  0  1  0  0  0  0  0999 V2000
    6.7032   -1.3687    0.3216 O   0  0  0  0  0  0  0  0  0  0  0  0
    5.7133   -1.7989   -0.2637 C   0  0  0  0  0  0  0  0  0  0  0  0
    5.4158   -1.3908   -1.5379 O   0  0  0  0  0  0  0  0  0  0  0  0
    4.3436   -1.8560   -2.2239 C   0  0  0  0  0  0  0  0  0  0  0  0
    3.9260   -1.5514   -3.4865 C   0  0  0  0  0  0  0  0  0  0  0  0
    2.7498   -2.3220   -3.7098 C   0  0  0  0  0  0  0  0  0  0  0  0
    2.4913   -3.0565   -2.5845 C   0  0  0  0  0  0  0  0  0  0  0  0
    3.4780   -2.7716   -1.6629 N   0  0  0  0  0  0  0  0  0  0  0  0
    3.6531   -3.2757   -0.3624 C   0  0  0  0  0  0  0  0  0  0  0  0
    2.7860   -4.1762    0.1592 N   0  0  0  0  0  0  0  0  0  0  0  0
    3.0155   -4.6268    1.4099 C   0  0  0  0  0  0  0  0  0  0  0  0
    4.1009   -4.2067    2.1993 C   0  0  0  0  0  0  0  0  0  0  0  0
    4.9999   -3.2705    1.6578 C   0  0  0  0  0  0  0  0  0  0  0  0
    4.7781   -2.7913    0.3482 C   0  0  0  0  0  0  0  0  0  0  0  0
    4.4036   -0.8565   -4.1624 H   0  0  0  0  0  0  0  0  0  0  0  0
    2.1375   -2.3408   -4.5957 H   0  0  0  0  0  0  0  0  0  0  0  0
    1.6968   -3.7577   -2.3621 H   0  0  0  0  0  0  0  0  0  0  0  0
    2.3079   -5.3418    1.7972 H   0  0  0  0  0  0  0  0  0  0  0  0
    4.2377   -4.5930    3.1975 H   0  0  0  0  0  0  0  0  0  0  0  0
    5.8434   -2.9309    2.2450 H   0  0  0  0  0  0  0  0  0  0  0  0
  1  2  2  0
  2 14  1  0
  2  3  1  0
  3  4  1  0
  4  8  1  0
  4  5  2  0
  5  6  1  0
  5 15  1  0
  6  7  2  0
  6 16  1  0
  7  8  1  0
  7 17  1  0
  8  9  1  0
  9 14  2  0
  9 10  1  0
 10 11  2  0
 11 12  1  0
 11 18  1  0
 12 13  2  0
 12 19  1  0
 13 14  1  0
 13 20  1  0
M  END
>  <i_m_ct_stereo_status>  (349) 
1

>  <s_m_source_file>  (349) 
/var/tmp/pbs.5076255.sched01/tmpcwktr4ti/1290j0z1rin.sdf

>  <i_m_source_file_index>  (349) 
27

>  <i_lp_mmshare_version>  (349) 
48012

>  <i_f3d_flags>  (349) 
0

>  <s_epik_input>  (349) 
bjFbY0hdW2NIXVtjSF1jKGMoPU8pbzIpYzFuKGMyMylbY0hdW2NIXVtjSF0z

>  <s_epik_cmdline>  (349) 
J2VwaWtfcHl0aG9uJywgJy1waHQnLCAnMi4wJywgJy1waCcsICc3LjAnLCAnLXRuJywgJzgnLCAnLW1hJywgJzIwMCcsICctaW1hZScsICc8aW5maWxlLm1hZT4nLCAnLW9tYWUnLCAnPG91dGZpbGUubWFlPic=

>  <r_lp_tautomer_probability>  (349) 
1

>  <r_epik_Ionization_Penalty>  (349) 
2.31557e-07

>  <r_epik_Ionization_Penalty_Charging>  (349) 
0

>  <r_epik_Ionization_Penalty_Neutral>  (349) 
2.31557e-07

>  <r_epik_State_Penalty>  (349) 
-0

>  <r_epik_Charging_Adjusted_Penalty>  (349) 
0

>  <i_epik_Tot_Q>  (349) 
0

>  <i_epik_Tot_abs_Q>  (349) 
0

>  <s_lp_Force_Field>  (349) 
OPLS3e

>  <r_lp_Energy>  (349) 
18.8087

>  <b_lp_Chiralities_Consistent>  (349) 
1

>  <s_lp_Variant>  (349) 
104:0-1

>  <s_i_glide_gridfile>  (349) 
pfpi4k_grid

>  <i_i_glide_lignum>  (349) 
27

>  <i_i_glide_rotatable_bonds>  (349) 
0

>  <r_i_docking_score>  (349) 
-3.87608

>  <r_i_glide_ligand_efficiency>  (349) 
-0.276863

>  <r_i_glide_ligand_efficiency_sa>  (349) 
-0.667278

>  <r_i_glide_ligand_efficiency_ln>  (349) 
-1.06513

>  <r_i_glide_gscore>  (349) 
-3.87608

>  <r_i_glide_lipo>  (349) 
-0.515309

>  <r_i_glide_hbond>  (349) 
-0.0121346

>  <r_i_glide_metal>  (349) 
-0

>  <r_i_glide_rewards>  (349) 
-2.18266

>  <r_i_glide_evdw>  (349) 
-19.9549

>  <r_i_glide_ecoul>  (349) 
-0.967463

>  <r_i_glide_erotb>  (349) 
0

>  <r_i_glide_esite>  (349) 
-0.0231119

>  <r_i_glide_emodel>  (349) 
-26.3949

>  <r_i_glide_energy>  (349) 
-20.9224

>  <r_i_glide_einternal>  (349) 
0

>  <r_i_glide_intrahb_reward>  (349) 
-0

>  <i_i_glide_confnum>  (349) 
1

>  <i_i_glide_posenum>  (349) 
17

>  <r_i_glide_eff_state_penalty>  (349) 
0

>  <ligand_id>  (349) 
104

>  <original_smiles>  (349) 
O=c1oc2cccn2c2ncccc12

>  <smiles>  (349) 
[H]c1nc2c(c([H])c1[H])c(=O)oc1c([H])c([H])c([H])n12

$$$$
104:0:2
     RDKit          3D

 20 22  0  0  1  0  0  0  0  0999 V2000
    5.3985   -0.3857    1.1997 O   0  0  0  0  0  0  0  0  0  0  0  0
    4.7589   -1.0534    0.3883 C   0  0  0  0  0  0  0  0  0  0  0  0
    4.6914   -0.6944   -0.9340 O   0  0  0  0  0  0  0  0  0  0  0  0
    3.9978   -1.4081   -1.8559 C   0  0  0  0  0  0  0  0  0  0  0  0
    3.8251   -1.1660   -3.1873 C   0  0  0  0  0  0  0  0  0  0  0  0
    3.0108   -2.2236   -3.6868 C   0  0  0  0  0  0  0  0  0  0  0  0
    2.7028   -3.0546   -2.6433 C   0  0  0  0  0  0  0  0  0  0  0  0
    3.3193   -2.5573   -1.5094 N   0  0  0  0  0  0  0  0  0  0  0  0
    3.3014   -3.0495   -0.1902 C   0  0  0  0  0  0  0  0  0  0  0  0
    2.6247   -4.1819    0.1209 N   0  0  0  0  0  0  0  0  0  0  0  0
    2.6619   -4.6148    1.3980 C   0  0  0  0  0  0  0  0  0  0  0  0
    3.3508   -3.9447    2.4238 C   0  0  0  0  0  0  0  0  0  0  0  0
    4.0482   -2.7663    2.1027 C   0  0  0  0  0  0  0  0  0  0  0  0
    4.0282   -2.3036    0.7691 C   0  0  0  0  0  0  0  0  0  0  0  0
    4.2285   -0.3261   -3.7341 H   0  0  0  0  0  0  0  0  0  0  0  0
    2.6621   -2.3564   -4.7010 H   0  0  0  0  0  0  0  0  0  0  0  0
    2.0974   -3.9505   -2.6033 H   0  0  0  0  0  0  0  0  0  0  0  0
    2.1131   -5.5182    1.6122 H   0  0  0  0  0  0  0  0  0  0  0  0
    3.3432   -4.3270    3.4332 H   0  0  0  0  0  0  0  0  0  0  0  0
    4.5889   -2.2337    2.8740 H   0  0  0  0  0  0  0  0  0  0  0  0
  1  2  2  0
  2 14  1  0
  2  3  1  0
  3  4  1  0
  4  8  1  0
  4  5  2  0
  5  6  1  0
  5 15  1  0
  6  7  2  0
  6 16  1  0
  7  8  1  0
  7 17  1  0
  8  9  1  0
  9 14  2  0
  9 10  1  0
 10 11  2  0
 11 12  1  0
 11 18  1  0
 12 13  2  0
 12 19  1  0
 13 14  1  0
 13 20  1  0
M  END
>  <i_m_ct_stereo_status>  (350) 
1

>  <s_m_source_file>  (350) 
/var/tmp/pbs.5076255.sched01/tmpcwktr4ti/1290j0z1rin.sdf

>  <i_m_source_file_index>  (350) 
27

>  <i_lp_mmshare_version>  (350) 
48012

>  <i_f3d_flags>  (350) 
0

>  <s_epik_input>  (350) 
bjFbY0hdW2NIXVtjSF1jKGMoPU8pbzIpYzFuKGMyMylbY0hdW2NIXVtjSF0z

>  <s_epik_cmdline>  (350) 
J2VwaWtfcHl0aG9uJywgJy1waHQnLCAnMi4wJywgJy1waCcsICc3LjAnLCAnLXRuJywgJzgnLCAnLW1hJywgJzIwMCcsICctaW1hZScsICc8aW5maWxlLm1hZT4nLCAnLW9tYWUnLCAnPG91dGZpbGUubWFlPic=

>  <r_lp_tautomer_probability>  (350) 
1

>  <r_epik_Ionization_Penalty>  (350) 
2.31557e-07

>  <r_epik_Ionization_Penalty_Charging>  (350) 
0

>  <r_epik_Ionization_Penalty_Neutral>  (350) 
2.31557e-07

>  <r_epik_State_Penalty>  (350) 
-0

>  <r_epik_Charging_Adjusted_Penalty>  (350) 
0

>  <i_epik_Tot_Q>  (350) 
0

>  <i_epik_Tot_abs_Q>  (350) 
0

>  <s_lp_Force_Field>  (350) 
OPLS3e

>  <r_lp_Energy>  (350) 
18.8087

>  <b_lp_Chiralities_Consistent>  (350) 
1

>  <s_lp_Variant>  (350) 
104:0-1

>  <s_i_glide_gridfile>  (350) 
pfpi4k_grid

>  <i_i_glide_lignum>  (350) 
27

>  <i_i_glide_rotatable_bonds>  (350) 
0

>  <r_i_docking_score>  (350) 
-3.7826

>  <r_i_glide_ligand_efficiency>  (350) 
-0.270186

>  <r_i_glide_ligand_efficiency_sa>  (350) 
-0.651186

>  <r_i_glide_ligand_efficiency_ln>  (350) 
-1.03944

>  <r_i_glide_gscore>  (350) 
-3.7826

>  <r_i_glide_lipo>  (350) 
-0.372868

>  <r_i_glide_hbond>  (350) 
-0.0685867

>  <r_i_glide_metal>  (350) 
-0

>  <r_i_glide_rewards>  (350) 
-2.13977

>  <r_i_glide_evdw>  (350) 
-20.0884

>  <r_i_glide_ecoul>  (350) 
-0.954533

>  <r_i_glide_erotb>  (350) 
0

>  <r_i_glide_esite>  (350) 
-0.0537732

>  <r_i_glide_emodel>  (350) 
-26.3818

>  <r_i_glide_energy>  (350) 
-21.0429

>  <r_i_glide_einternal>  (350) 
0

>  <r_i_glide_intrahb_reward>  (350) 
-0

>  <i_i_glide_confnum>  (350) 
1

>  <i_i_glide_posenum>  (350) 
33

>  <r_i_glide_eff_state_penalty>  (350) 
0

>  <ligand_id>  (350) 
104

>  <original_smiles>  (350) 
O=c1oc2cccn2c2ncccc12

>  <smiles>  (350) 
[H]c1nc2c(c([H])c1[H])c(=O)oc1c([H])c([H])c([H])n12

$$$$
107:0:0
     RDKit          3D

 31 35  0  0  1  0  0  0  0  0999 V2000
    3.0276   -1.0718   -3.5840 C   0  0  0  0  0  0  0  0  0  0  0  0
    4.4138   -1.3877   -3.4737 O   0  0  0  0  0  0  0  0  0  0  0  0
    4.7212   -2.0044   -2.2311 C   0  0  2  0  0  0  0  0  0  0  0  0
    5.5131   -3.1937   -2.3087 O   0  0  0  0  0  0  0  0  0  0  0  0
    4.1161   -3.4142   -2.1630 C   0  0  1  0  0  0  0  0  0  0  0  0
    3.6091   -4.0162   -0.8468 C   0  0  0  0  0  0  0  0  0  0  0  0
    3.7908   -3.1265    0.3905 C   0  0  1  0  0  0  0  0  0  0  0  0
    5.1221   -3.0477    1.1935 C   0  0  1  0  0  0  0  0  0  0  0  0
    6.4585   -3.4636    0.5649 C   0  0  0  0  0  0  0  0  0  0  0  0
    7.1104   -2.1482    0.0677 C   0  0  1  0  0  0  0  0  0  0  0  0
    7.8493   -2.2581   -1.1265 O   0  0  0  0  0  0  0  0  0  0  0  0
    6.0101   -1.0863    0.0020 C   0  0  2  0  0  0  0  0  0  0  0  0
    5.0518   -1.5318    1.0884 C   0  0  1  0  0  0  0  0  0  0  0  0
    3.9009   -1.6245    0.1369 C   0  0  1  0  0  0  0  0  0  0  0  0
    4.7972   -1.1301   -0.9888 C   0  0  2  0  0  0  0  0  0  0  0  0
    2.8487   -0.4556   -4.4687 H   0  0  0  0  0  0  0  0  0  0  0  0
    2.6629   -0.5180   -2.7129 H   0  0  0  0  0  0  0  0  0  0  0  0
    2.4227   -1.9782   -3.6768 H   0  0  0  0  0  0  0  0  0  0  0  0
    3.6959   -3.8536   -3.0558 H   0  0  0  0  0  0  0  0  0  0  0  0
    2.5408   -4.1824   -1.0021 H   0  0  0  0  0  0  0  0  0  0  0  0
    4.0422   -5.0050   -0.7082 H   0  0  0  0  0  0  0  0  0  0  0  0
    2.9965   -3.2836    1.1213 H   0  0  0  0  0  0  0  0  0  0  0  0
    4.9691   -3.3883    2.2179 H   0  0  0  0  0  0  0  0  0  0  0  0
    7.1053   -3.9504    1.2931 H   0  0  0  0  0  0  0  0  0  0  0  0
    6.3063   -4.1883   -0.2375 H   0  0  0  0  0  0  0  0  0  0  0  0
    7.8201   -1.8271    0.8310 H   0  0  0  0  0  0  0  0  0  0  0  0
    8.6777   -2.6993   -0.9522 H   0  0  0  0  0  0  0  0  0  0  0  0
    6.3323   -0.0577    0.1308 H   0  0  0  0  0  0  0  0  0  0  0  0
    4.9194   -0.9307    1.9874 H   0  0  0  0  0  0  0  0  0  0  0  0
    3.0419   -1.0064    0.3941 H   0  0  0  0  0  0  0  0  0  0  0  0
    4.4578   -0.1167   -1.1917 H   0  0  0  0  0  0  0  0  0  0  0  0
  1  2  1  0
  1 16  1  0
  1 17  1  0
  1 18  1  0
  3  2  1  6
  3  5  1  0
  3 15  1  0
  3  4  1  0
  4  5  1  0
  5  6  1  0
  5 19  1  6
  6  7  1  0
  6 20  1  0
  6 21  1  0
  7 14  1  0
  7  8  1  0
  7 22  1  1
  8 13  1  0
  8  9  1  0
  8 23  1  1
  9 10  1  0
  9 24  1  0
  9 25  1  0
 10 11  1  0
 10 12  1  0
 10 26  1  1
 11 27  1  0
 12 15  1  0
 12 13  1  0
 12 28  1  1
 13 14  1  0
 13 29  1  1
 14 15  1  0
 14 30  1  1
 15 31  1  6
M  END
>  <i_m_ct_stereo_status>  (351) 
1

>  <s_m_source_file>  (351) 
/var/tmp/pbs.5076255.sched01/tmpcwktr4ti/1290j0z1rin.sdf

>  <i_m_source_file_index>  (351) 
30

>  <i_lp_mmshare_version>  (351) 
48012

>  <i_f3d_flags>  (351) 
0

>  <s_epik_input>  (351) 
W0NIM11PW0NAQF0xMltDQEBIXShPMSlbQ0gyXVtDQEhdM1tDQEBIXTRbQ0BIXTVbQ0BASF0oW0NAQEhdKFtDSDJdNClbT0hdKVtDSF0yW0NAQEhdMzU=

>  <s_epik_cmdline>  (351) 
J2VwaWtfcHl0aG9uJywgJy1waHQnLCAnMi4wJywgJy1waCcsICc3LjAnLCAnLXRuJywgJzgnLCAnLW1hJywgJzIwMCcsICctaW1hZScsICc8aW5maWxlLm1hZT4nLCAnLW9tYWUnLCAnPG91dGZpbGUubWFlPic=

>  <r_lp_tautomer_probability>  (351) 
1

>  <r_epik_Ionization_Penalty>  (351) 
9.51437e-07

>  <r_epik_Ionization_Penalty_Charging>  (351) 
0

>  <r_epik_Ionization_Penalty_Neutral>  (351) 
9.51437e-07

>  <r_epik_State_Penalty>  (351) 
-0

>  <r_epik_Charging_Adjusted_Penalty>  (351) 
0

>  <i_epik_Tot_Q>  (351) 
0

>  <i_epik_Tot_abs_Q>  (351) 
0

>  <s_lp_Force_Field>  (351) 
OPLS3e

>  <r_lp_Energy>  (351) 
53.9691

>  <b_lp_Chiralities_Consistent>  (351) 
1

>  <s_lp_Variant>  (351) 
107:0-1

>  <s_i_glide_gridfile>  (351) 
pfpi4k_grid

>  <i_i_glide_lignum>  (351) 
30

>  <i_i_glide_rotatable_bonds>  (351) 
2

>  <r_i_docking_score>  (351) 
-4.15724

>  <r_i_glide_ligand_efficiency>  (351) 
-0.277149

>  <r_i_glide_ligand_efficiency_sa>  (351) 
-0.683508

>  <r_i_glide_ligand_efficiency_ln>  (351) 
-1.12114

>  <r_i_glide_gscore>  (351) 
-4.15724

>  <r_i_glide_lipo>  (351) 
-0.401155

>  <r_i_glide_hbond>  (351) 
0

>  <r_i_glide_metal>  (351) 
-0

>  <r_i_glide_rewards>  (351) 
-1.98918

>  <r_i_glide_evdw>  (351) 
-16.4359

>  <r_i_glide_ecoul>  (351) 
-6.28365

>  <r_i_glide_erotb>  (351) 
0

>  <r_i_glide_esite>  (351) 
-0.00255739

>  <r_i_glide_emodel>  (351) 
-27.4663

>  <r_i_glide_energy>  (351) 
-22.7196

>  <r_i_glide_einternal>  (351) 
2.76016

>  <r_i_glide_intrahb_reward>  (351) 
-0

>  <i_i_glide_confnum>  (351) 
2

>  <i_i_glide_posenum>  (351) 
8

>  <r_i_glide_eff_state_penalty>  (351) 
0

>  <ligand_id>  (351) 
107

>  <original_smiles>  (351) 
COC12OC1CC1C3CC(O)C4C3C1C42

>  <smiles>  (351) 
[H]OC1([H])C([H])([H])C2([H])C3([H])C([H])([H])C4([H])OC4(OC([H])([H])[H])C4([H])C1([H])C2([H])C34[H]

$$$$
107:0:1
     RDKit          3D

 31 35  0  0  1  0  0  0  0  0999 V2000
    3.5150   -5.4977    1.5566 C   0  0  0  0  0  0  0  0  0  0  0  0
    2.8982   -5.4525    0.2820 O   0  0  0  0  0  0  0  0  0  0  0  0
    3.2906   -4.3352   -0.4761 C   0  0  2  0  0  0  0  0  0  0  0  0
    2.6043   -3.1101   -0.1782 O   0  0  0  0  0  0  0  0  0  0  0  0
    2.1188   -3.8244   -1.3212 C   0  0  1  0  0  0  0  0  0  0  0  0
    2.3120   -3.1629   -2.6881 C   0  0  0  0  0  0  0  0  0  0  0  0
    3.7638   -3.0071   -3.1480 C   0  0  1  0  0  0  0  0  0  0  0  0
    4.6708   -1.8375   -2.7020 C   0  0  1  0  0  0  0  0  0  0  0  0
    4.3513   -1.0309   -1.4421 C   0  0  0  0  0  0  0  0  0  0  0  0
    5.2088   -1.6542   -0.3084 C   0  0  1  0  0  0  0  0  0  0  0  0
    4.5945   -1.6579    0.9599 O   0  0  0  0  0  0  0  0  0  0  0  0
    5.6694   -3.0432   -0.7937 C   0  0  2  0  0  0  0  0  0  0  0  0
    5.7215   -2.8654   -2.3051 C   0  0  1  0  0  0  0  0  0  0  0  0
    4.7536   -3.9778   -2.5258 C   0  0  1  0  0  0  0  0  0  0  0  0
    4.7073   -4.2513   -1.0349 C   0  0  2  0  0  0  0  0  0  0  0  0
    3.2662   -6.4406    2.0442 H   0  0  0  0  0  0  0  0  0  0  0  0
    3.1725   -4.6749    2.1858 H   0  0  0  0  0  0  0  0  0  0  0  0
    4.5985   -5.4427    1.4628 H   0  0  0  0  0  0  0  0  0  0  0  0
    1.1460   -4.2639   -1.1623 H   0  0  0  0  0  0  0  0  0  0  0  0
    1.8194   -3.8145   -3.4193 H   0  0  0  0  0  0  0  0  0  0  0  0
    1.7629   -2.2193   -2.7201 H   0  0  0  0  0  0  0  0  0  0  0  0
    3.8500   -3.0864   -4.2328 H   0  0  0  0  0  0  0  0  0  0  0  0
    4.9732   -1.2565   -3.5710 H   0  0  0  0  0  0  0  0  0  0  0  0
    4.6032    0.0145   -1.5856 H   0  0  0  0  0  0  0  0  0  0  0  0
    3.2821   -1.0552   -1.2227 H   0  0  0  0  0  0  0  0  0  0  0  0
    6.0988   -1.0303   -0.2025 H   0  0  0  0  0  0  0  0  0  0  0  0
    3.7425   -2.0667    0.8614 H   0  0  0  0  0  0  0  0  0  0  0  0
    6.6180   -3.3957   -0.3832 H   0  0  0  0  0  0  0  0  0  0  0  0
    6.6702   -2.9261   -2.8361 H   0  0  0  0  0  0  0  0  0  0  0  0
    5.0832   -4.7804   -3.1657 H   0  0  0  0  0  0  0  0  0  0  0  0
    5.2544   -5.1945   -0.9193 H   0  0  0  0  0  0  0  0  0  0  0  0
  1  2  1  0
  1 16  1  0
  1 17  1  0
  1 18  1  0
  3  2  1  1
  3  5  1  0
  3 15  1  0
  3  4  1  0
  4  5  1  0
  5  6  1  0
  5 19  1  1
  6  7  1  0
  6 20  1  0
  6 21  1  0
  7 14  1  0
  7  8  1  0
  7 22  1  6
  8 13  1  0
  8  9  1  0
  8 23  1  6
  9 10  1  0
  9 24  1  0
  9 25  1  0
 10 11  1  0
 10 12  1  0
 10 26  1  1
 11 27  1  0
 12 15  1  0
 12 13  1  0
 12 28  1  1
 13 14  1  0
 13 29  1  6
 14 15  1  0
 14 30  1  6
 15 31  1  6
M  END
>  <i_m_ct_stereo_status>  (352) 
1

>  <s_m_source_file>  (352) 
/var/tmp/pbs.5076255.sched01/tmpcwktr4ti/1290j0z1rin.sdf

>  <i_m_source_file_index>  (352) 
30

>  <i_lp_mmshare_version>  (352) 
48012

>  <i_f3d_flags>  (352) 
0

>  <s_epik_input>  (352) 
W0NIM11PW0NAQF0xMltDQEBIXShPMSlbQ0gyXVtDQEhdM1tDQEBIXTRbQ0BIXTVbQ0BASF0oW0NAQEhdKFtDSDJdNClbT0hdKVtDSF0yW0NAQEhdMzU=

>  <s_epik_cmdline>  (352) 
J2VwaWtfcHl0aG9uJywgJy1waHQnLCAnMi4wJywgJy1waCcsICc3LjAnLCAnLXRuJywgJzgnLCAnLW1hJywgJzIwMCcsICctaW1hZScsICc8aW5maWxlLm1hZT4nLCAnLW9tYWUnLCAnPG91dGZpbGUubWFlPic=

>  <r_lp_tautomer_probability>  (352) 
1

>  <r_epik_Ionization_Penalty>  (352) 
9.51437e-07

>  <r_epik_Ionization_Penalty_Charging>  (352) 
0

>  <r_epik_Ionization_Penalty_Neutral>  (352) 
9.51437e-07

>  <r_epik_State_Penalty>  (352) 
-0

>  <r_epik_Charging_Adjusted_Penalty>  (352) 
0

>  <i_epik_Tot_Q>  (352) 
0

>  <i_epik_Tot_abs_Q>  (352) 
0

>  <s_lp_Force_Field>  (352) 
OPLS3e

>  <r_lp_Energy>  (352) 
53.9691

>  <b_lp_Chiralities_Consistent>  (352) 
1

>  <s_lp_Variant>  (352) 
107:0-1

>  <s_i_glide_gridfile>  (352) 
pfpi4k_grid

>  <i_i_glide_lignum>  (352) 
30

>  <i_i_glide_rotatable_bonds>  (352) 
2

>  <r_i_docking_score>  (352) 
-3.91723

>  <r_i_glide_ligand_efficiency>  (352) 
-0.261148

>  <r_i_glide_ligand_efficiency_sa>  (352) 
-0.644047

>  <r_i_glide_ligand_efficiency_ln>  (352) 
-1.05641

>  <r_i_glide_gscore>  (352) 
-3.91723

>  <r_i_glide_lipo>  (352) 
-0.39811

>  <r_i_glide_hbond>  (352) 
0

>  <r_i_glide_metal>  (352) 
-0

>  <r_i_glide_rewards>  (352) 
-2.48918

>  <r_i_glide_evdw>  (352) 
-16.3045

>  <r_i_glide_ecoul>  (352) 
-1.16318

>  <r_i_glide_erotb>  (352) 
0

>  <r_i_glide_esite>  (352) 
-0.0402324

>  <r_i_glide_emodel>  (352) 
-28.2902

>  <r_i_glide_energy>  (352) 
-17.4677

>  <r_i_glide_einternal>  (352) 
0.0945646

>  <r_i_glide_intrahb_reward>  (352) 
-0.5

>  <i_i_glide_confnum>  (352) 
2

>  <i_i_glide_posenum>  (352) 
1

>  <r_i_glide_eff_state_penalty>  (352) 
0

>  <ligand_id>  (352) 
107

>  <original_smiles>  (352) 
COC12OC1CC1C3CC(O)C4C3C1C42

>  <smiles>  (352) 
[H]OC1([H])C([H])([H])C2([H])C3([H])C([H])([H])C4([H])OC4(OC([H])([H])[H])C4([H])C1([H])C2([H])C34[H]

$$$$
107:0:2
     RDKit          3D

 31 35  0  0  1  0  0  0  0  0999 V2000
    3.2353   -0.6583   -3.1735 C   0  0  0  0  0  0  0  0  0  0  0  0
    4.5790   -0.6649   -2.6976 O   0  0  0  0  0  0  0  0  0  0  0  0
    4.7563   -1.5473   -1.6029 C   0  0  2  0  0  0  0  0  0  0  0  0
    5.8132   -2.5108   -1.7427 O   0  0  0  0  0  0  0  0  0  0  0  0
    4.5061   -3.0098   -2.0161 C   0  0  1  0  0  0  0  0  0  0  0  0
    3.8986   -4.0222   -1.0475 C   0  0  0  0  0  0  0  0  0  0  0  0
    3.6168   -3.5092    0.3698 C   0  0  1  0  0  0  0  0  0  0  0  0
    4.7065   -3.4362    1.4734 C   0  0  1  0  0  0  0  0  0  0  0  0
    6.1980   -3.4135    1.1170 C   0  0  0  0  0  0  0  0  0  0  0  0
    6.5946   -1.9126    1.0986 C   0  0  1  0  0  0  0  0  0  0  0  0
    7.5902   -1.5540    0.1662 O   0  0  0  0  0  0  0  0  0  0  0  0
    5.3164   -1.0893    1.0269 C   0  0  2  0  0  0  0  0  0  0  0  0
    4.3056   -1.9888    1.7128 C   0  0  1  0  0  0  0  0  0  0  0  0
    3.4184   -2.0057    0.5114 C   0  0  1  0  0  0  0  0  0  0  0  0
    4.3657   -1.0639   -0.2074 C   0  0  2  0  0  0  0  0  0  0  0  0
    3.0846    0.1601   -3.8797 H   0  0  0  0  0  0  0  0  0  0  0  0
    2.5348   -0.5357   -2.3453 H   0  0  0  0  0  0  0  0  0  0  0  0
    2.9814   -1.5874   -3.6884 H   0  0  0  0  0  0  0  0  0  0  0  0
    4.3970   -3.2668   -3.0607 H   0  0  0  0  0  0  0  0  0  0  0  0
    2.9387   -4.2611   -1.4967 H   0  0  0  0  0  0  0  0  0  0  0  0
    4.4945   -4.9325   -1.0515 H   0  0  0  0  0  0  0  0  0  0  0  0
    2.7522   -4.0050    0.8118 H   0  0  0  0  0  0  0  0  0  0  0  0
    4.4376   -4.0758    2.3154 H   0  0  0  0  0  0  0  0  0  0  0  0
    6.7846   -3.9666    1.8484 H   0  0  0  0  0  0  0  0  0  0  0  0
    6.3792   -3.9024    0.1553 H   0  0  0  0  0  0  0  0  0  0  0  0
    7.0029   -1.6800    2.0744 H   0  0  0  0  0  0  0  0  0  0  0  0
    8.4074   -1.9447    0.4348 H   0  0  0  0  0  0  0  0  0  0  0  0
    5.3718   -0.1031    1.4773 H   0  0  0  0  0  0  0  0  0  0  0  0
    3.8539   -1.6973    2.6596 H   0  0  0  0  0  0  0  0  0  0  0  0
    2.4112   -1.6478    0.7010 H   0  0  0  0  0  0  0  0  0  0  0  0
    3.8487   -0.1100   -0.2169 H   0  0  0  0  0  0  0  0  0  0  0  0
  1  2  1  0
  1 16  1  0
  1 17  1  0
  1 18  1  0
  3  2  1  6
  3  5  1  0
  3 15  1  0
  3  4  1  0
  4  5  1  0
  5  6  1  0
  5 19  1  6
  6  7  1  0
  6 20  1  0
  6 21  1  0
  7 14  1  0
  7  8  1  0
  7 22  1  1
  8 13  1  0
  8  9  1  0
  8 23  1  1
  9 10  1  0
  9 24  1  0
  9 25  1  0
 10 11  1  0
 10 12  1  0
 10 26  1  1
 11 27  1  0
 12 15  1  0
 12 13  1  0
 12 28  1  1
 13 14  1  0
 13 29  1  1
 14 15  1  0
 14 30  1  1
 15 31  1  6
M  END
>  <i_m_ct_stereo_status>  (353) 
1

>  <s_m_source_file>  (353) 
/var/tmp/pbs.5076255.sched01/tmpcwktr4ti/1290j0z1rin.sdf

>  <i_m_source_file_index>  (353) 
30

>  <i_lp_mmshare_version>  (353) 
48012

>  <i_f3d_flags>  (353) 
0

>  <s_epik_input>  (353) 
W0NIM11PW0NAQF0xMltDQEBIXShPMSlbQ0gyXVtDQEhdM1tDQEBIXTRbQ0BIXTVbQ0BASF0oW0NAQEhdKFtDSDJdNClbT0hdKVtDSF0yW0NAQEhdMzU=

>  <s_epik_cmdline>  (353) 
J2VwaWtfcHl0aG9uJywgJy1waHQnLCAnMi4wJywgJy1waCcsICc3LjAnLCAnLXRuJywgJzgnLCAnLW1hJywgJzIwMCcsICctaW1hZScsICc8aW5maWxlLm1hZT4nLCAnLW9tYWUnLCAnPG91dGZpbGUubWFlPic=

>  <r_lp_tautomer_probability>  (353) 
1

>  <r_epik_Ionization_Penalty>  (353) 
9.51437e-07

>  <r_epik_Ionization_Penalty_Charging>  (353) 
0

>  <r_epik_Ionization_Penalty_Neutral>  (353) 
9.51437e-07

>  <r_epik_State_Penalty>  (353) 
-0

>  <r_epik_Charging_Adjusted_Penalty>  (353) 
0

>  <i_epik_Tot_Q>  (353) 
0

>  <i_epik_Tot_abs_Q>  (353) 
0

>  <s_lp_Force_Field>  (353) 
OPLS3e

>  <r_lp_Energy>  (353) 
53.9691

>  <b_lp_Chiralities_Consistent>  (353) 
1

>  <s_lp_Variant>  (353) 
107:0-1

>  <s_i_glide_gridfile>  (353) 
pfpi4k_grid

>  <i_i_glide_lignum>  (353) 
30

>  <i_i_glide_rotatable_bonds>  (353) 
2

>  <r_i_docking_score>  (353) 
-3.59499

>  <r_i_glide_ligand_efficiency>  (353) 
-0.239666

>  <r_i_glide_ligand_efficiency_sa>  (353) 
-0.591068

>  <r_i_glide_ligand_efficiency_ln>  (353) 
-0.969511

>  <r_i_glide_gscore>  (353) 
-3.59499

>  <r_i_glide_lipo>  (353) 
-0.366927

>  <r_i_glide_hbond>  (353) 
0

>  <r_i_glide_metal>  (353) 
-0

>  <r_i_glide_rewards>  (353) 
-1.98918

>  <r_i_glide_evdw>  (353) 
-13.3009

>  <r_i_glide_ecoul>  (353) 
-3.53806

>  <r_i_glide_erotb>  (353) 
0

>  <r_i_glide_esite>  (353) 
-0.0431351

>  <r_i_glide_emodel>  (353) 
-20.6065

>  <r_i_glide_energy>  (353) 
-16.8389

>  <r_i_glide_einternal>  (353) 
2.80087

>  <r_i_glide_intrahb_reward>  (353) 
-0

>  <i_i_glide_confnum>  (353) 
1

>  <i_i_glide_posenum>  (353) 
18

>  <r_i_glide_eff_state_penalty>  (353) 
0

>  <ligand_id>  (353) 
107

>  <original_smiles>  (353) 
COC12OC1CC1C3CC(O)C4C3C1C42

>  <smiles>  (353) 
[H]OC1([H])C([H])([H])C2([H])C3([H])C([H])([H])C4([H])OC4(OC([H])([H])[H])C4([H])C1([H])C2([H])C34[H]

$$$$
108:0:0
     RDKit          3D

 67 72  0  0  1  0  0  0  0  0999 V2000
    4.8323   -3.0711    6.7732 C   0  0  0  0  0  0  0  0  0  0  0  0
    4.4873   -3.2320    5.4877 C   0  0  0  0  0  0  0  0  0  0  0  0
    4.4792   -4.4166    4.5930 C   0  0  1  0  0  0  0  0  0  0  0  0
    5.1142   -5.6978    5.1462 C   0  0  0  0  0  0  0  0  0  0  0  0
    2.9550   -4.4719    4.4284 C   0  0  0  0  0  0  0  0  0  0  0  0
    2.7268   -3.0558    3.8373 C   0  0  2  0  0  0  0  0  0  0  0  0
    1.3305   -2.4934    4.2089 C   0  0  0  0  0  0  0  0  0  0  0  0
    2.9369   -3.1664    2.3364 C   0  0  2  0  0  0  0  0  0  0  0  0
    2.4800   -4.2816    1.4167 C   0  0  2  0  0  0  0  0  0  0  0  0
    3.6562   -5.0180    1.7251 O   0  0  0  0  0  0  0  0  0  0  0  0
    4.3009   -3.7732    1.9765 C   0  0  2  0  0  0  0  0  0  0  0  0
    5.1638   -3.8298    3.2649 C   0  0  1  0  0  0  0  0  0  0  0  0
    5.0589   -2.4288    3.5627 O   0  0  0  0  0  0  0  0  0  0  0  0
    3.9806   -2.2955    4.4667 C   0  0  2  0  0  0  0  0  0  0  0  0
    3.8269   -0.8427    4.8692 C   0  0  0  0  0  0  0  0  0  0  0  0
    3.2898   -0.0802    3.7904 O   0  0  0  0  0  0  0  0  0  0  0  0
    3.0283    1.2352    3.9249 C   0  0  0  0  0  0  0  0  0  0  0  0
    3.4277    1.8936    5.2497 C   0  0  0  0  0  0  0  0  0  0  0  0
    2.5090    1.8965    3.0243 O   0  0  0  0  0  0  0  0  0  0  0  0
    4.9649   -3.3420    0.6106 C   0  0  2  0  0  0  0  0  0  0  0  0
    6.2249   -4.2136    0.3633 C   0  0  0  0  0  0  0  0  0  0  0  0
    5.3059   -1.8161    0.7111 C   0  0  1  0  0  0  0  0  0  0  0  0
    6.6131   -1.5891    1.1937 O   0  0  0  0  0  0  0  0  0  0  0  0
    5.2349   -0.9805   -0.5577 C   0  0  0  0  0  0  0  0  0  0  0  0
    4.0132   -1.2749   -1.4078 C   0  0  0  0  0  0  0  0  0  0  0  0
    3.9780   -2.7415   -1.8407 C   0  0  0  0  0  0  0  0  0  0  0  0
    2.7587   -2.8948   -2.7932 C   0  0  0  0  0  0  0  0  0  0  0  0
    5.2024   -3.0716   -2.7325 C   0  0  0  0  0  0  0  0  0  0  0  0
    3.9396   -3.6745   -0.5774 C   0  0  2  0  0  0  0  0  0  0  0  0
    2.5012   -3.9390   -0.0529 C   0  0  1  0  0  0  0  0  0  0  0  0
    1.7809   -4.9640   -0.7231 O   0  0  0  0  0  0  0  0  0  0  0  0
    4.7570   -2.1066    7.2654 H   0  0  0  0  0  0  0  0  0  0  0  0
    5.1766   -3.8952    7.3735 H   0  0  0  0  0  0  0  0  0  0  0  0
    5.0254   -6.5025    4.4184 H   0  0  0  0  0  0  0  0  0  0  0  0
    4.6187   -6.0277    6.0670 H   0  0  0  0  0  0  0  0  0  0  0  0
    6.1710   -5.5567    5.3619 H   0  0  0  0  0  0  0  0  0  0  0  0
    2.5878   -5.3000    3.8293 H   0  0  0  0  0  0  0  0  0  0  0  0
    2.4635   -4.5715    5.4102 H   0  0  0  0  0  0  0  0  0  0  0  0
    1.1672   -1.5116    3.7664 H   0  0  0  0  0  0  0  0  0  0  0  0
    1.2076   -2.3947    5.2901 H   0  0  0  0  0  0  0  0  0  0  0  0
    0.5421   -3.1378    3.8310 H   0  0  0  0  0  0  0  0  0  0  0  0
    2.7659   -2.2100    1.8340 H   0  0  0  0  0  0  0  0  0  0  0  0
    1.5589   -4.7156    1.8150 H   0  0  0  0  0  0  0  0  0  0  0  0
    6.1841   -4.1635    3.1210 H   0  0  0  0  0  0  0  0  0  0  0  0
    3.1663   -0.7807    5.7328 H   0  0  0  0  0  0  0  0  0  0  0  0
    4.8039   -0.4353    5.1430 H   0  0  0  0  0  0  0  0  0  0  0  0
    2.9684    1.3675    6.0832 H   0  0  0  0  0  0  0  0  0  0  0  0
    3.1099    2.9301    5.2959 H   0  0  0  0  0  0  0  0  0  0  0  0
    4.5099    1.8472    5.3513 H   0  0  0  0  0  0  0  0  0  0  0  0
    6.7357   -3.9377   -0.5579 H   0  0  0  0  0  0  0  0  0  0  0  0
    5.9758   -5.2735    0.2752 H   0  0  0  0  0  0  0  0  0  0  0  0
    6.9732   -4.1299    1.1465 H   0  0  0  0  0  0  0  0  0  0  0  0
    4.6270   -1.3227    1.4042 H   0  0  0  0  0  0  0  0  0  0  0  0
    6.7090   -0.6898    1.4563 H   0  0  0  0  0  0  0  0  0  0  0  0
    5.1808    0.0630   -0.2430 H   0  0  0  0  0  0  0  0  0  0  0  0
    6.1428   -1.0717   -1.1490 H   0  0  0  0  0  0  0  0  0  0  0  0
    3.1257   -1.0586   -0.8114 H   0  0  0  0  0  0  0  0  0  0  0  0
    3.9735   -0.6042   -2.2704 H   0  0  0  0  0  0  0  0  0  0  0  0
    2.6040   -3.9148   -3.1164 H   0  0  0  0  0  0  0  0  0  0  0  0
    2.8744   -2.3005   -3.6980 H   0  0  0  0  0  0  0  0  0  0  0  0
    1.8294   -2.5599   -2.3324 H   0  0  0  0  0  0  0  0  0  0  0  0
    5.2244   -4.1260   -3.0167 H   0  0  0  0  0  0  0  0  0  0  0  0
    6.1590   -2.8663   -2.2547 H   0  0  0  0  0  0  0  0  0  0  0  0
    5.1913   -2.4739   -3.6440 H   0  0  0  0  0  0  0  0  0  0  0  0
    4.2256   -4.6596   -0.9327 H   0  0  0  0  0  0  0  0  0  0  0  0
    1.9115   -3.0354   -0.1905 H   0  0  0  0  0  0  0  0  0  0  0  0
    2.3149   -5.3420   -1.4004 H   0  0  0  0  0  0  0  0  0  0  0  0
  1  2  2  0
  1 32  1  0
  1 33  1  0
  2 14  1  0
  2  3  1  0
  3 12  1  0
  3  4  1  1
  3  5  1  0
  4 34  1  0
  4 35  1  0
  4 36  1  0
  5  6  1  0
  5 37  1  0
  5 38  1  0
  6 14  1  0
  6  7  1  6
  6  8  1  0
  7 39  1  0
  7 40  1  0
  7 41  1  0
  8 11  1  0
  8  9  1  0
  8 42  1  6
  9 30  1  0
  9 10  1  0
  9 43  1  1
 11 10  1  6
 11 12  1  0
 11 20  1  0
 12 13  1  0
 12 44  1  6
 13 14  1  0
 14 15  1  1
 15 16  1  0
 15 45  1  0
 15 46  1  0
 16 17  1  0
 17 18  1  0
 17 19  2  0
 18 47  1  0
 18 48  1  0
 18 49  1  0
 20 29  1  0
 20 21  1  6
 20 22  1  0
 21 50  1  0
 21 51  1  0
 21 52  1  0
 22 23  1  0
 22 24  1  0
 22 53  1  1
 23 54  1  0
 24 25  1  0
 24 55  1  0
 24 56  1  0
 25 26  1  0
 25 57  1  0
 25 58  1  0
 26 27  1  0
 26 28  1  0
 26 29  1  0
 27 59  1  0
 27 60  1  0
 27 61  1  0
 28 62  1  0
 28 63  1  0
 28 64  1  0
 29 30  1  0
 29 65  1  6
 30 31  1  0
 30 66  1  1
 31 67  1  0
M  END
>  <i_m_ct_stereo_status>  (354) 
1

>  <s_m_source_file>  (354) 
/var/tmp/pbs.5076255.sched01/tmpcwktr4ti/1290j0z1rin.sdf

>  <i_m_source_file_index>  (354) 
31

>  <i_lp_mmshare_version>  (354) 
48012

>  <i_f3d_flags>  (354) 
0

>  <s_epik_input>  (354) 
TzFbQ0BIXTJbQ0BdKFtDSDNdKShbQ0gyXTMpQyg9W0NIMl0pW0NAXTEoW0NIMl1PQyg9TylbQ0gzXSlbQ0BAXTMoW0NIM10pW0NAQEhdKFtDQEBdMjQ1KVtDQEhdKE80KVtDQEhdKFtPSF0pW0NAQEhdNltDQEBdNShbQ0gzXSlbQ0BASF0oW09IXSlbQ0gyXVtDSDJdQzYoW0NIM10pW0NIM10=

>  <s_epik_cmdline>  (354) 
J2VwaWtfcHl0aG9uJywgJy1waHQnLCAnMi4wJywgJy1waCcsICc3LjAnLCAnLXRuJywgJzgnLCAnLW1hJywgJzIwMCcsICctaW1hZScsICc8aW5maWxlLm1hZT4nLCAnLW9tYWUnLCAnPG91dGZpbGUubWFlPic=

>  <r_lp_tautomer_probability>  (354) 
1

>  <r_epik_Ionization_Penalty>  (354) 
3.66053e-07

>  <r_epik_Ionization_Penalty_Charging>  (354) 
0

>  <r_epik_Ionization_Penalty_Neutral>  (354) 
3.66053e-07

>  <r_epik_State_Penalty>  (354) 
-0

>  <r_epik_Charging_Adjusted_Penalty>  (354) 
0

>  <i_epik_Tot_Q>  (354) 
0

>  <i_epik_Tot_abs_Q>  (354) 
0

>  <s_epik_Chemistry_Notes>  (354) 
This compound has an ester and may undergo hydrolysis at high or low pH.

>  <s_lp_Force_Field>  (354) 
OPLS3e

>  <r_lp_Energy>  (354) 
90.0951

>  <b_lp_Chiralities_Consistent>  (354) 
1

>  <s_lp_Variant>  (354) 
108:0-1

>  <s_i_glide_gridfile>  (354) 
pfpi4k_grid

>  <i_i_glide_lignum>  (354) 
31

>  <i_i_glide_rotatable_bonds>  (354) 
5

>  <r_i_docking_score>  (354) 
-3.06093

>  <r_i_glide_ligand_efficiency>  (354) 
-0.0987398

>  <r_i_glide_ligand_efficiency_sa>  (354) 
-0.310179

>  <r_i_glide_ligand_efficiency_ln>  (354) 
-0.690334

>  <r_i_glide_gscore>  (354) 
-3.06093

>  <r_i_glide_lipo>  (354) 
-0.460534

>  <r_i_glide_hbond>  (354) 
0

>  <r_i_glide_metal>  (354) 
-0

>  <r_i_glide_rewards>  (354) 
-0.459888

>  <r_i_glide_evdw>  (354) 
-22.6282

>  <r_i_glide_ecoul>  (354) 
-8.10774

>  <r_i_glide_erotb>  (354) 
0.212716

>  <r_i_glide_esite>  (354) 
-0.00565839

>  <r_i_glide_emodel>  (354) 
-31.488

>  <r_i_glide_energy>  (354) 
-30.7359

>  <r_i_glide_einternal>  (354) 
7.8499

>  <r_i_glide_intrahb_reward>  (354) 
-0

>  <i_i_glide_confnum>  (354) 
2

>  <i_i_glide_posenum>  (354) 
13

>  <r_i_glide_eff_state_penalty>  (354) 
0

>  <ligand_id>  (354) 
108

>  <original_smiles>  (354) 
C=C1C2(C)CC3(C)C4C5OC4(C2OC13COC(C)=O)C1(C)C(O)CCC(C)(C)C1C5O

>  <smiles>  (354) 
[H]OC1([H])C2([H])OC3(C4([H])OC5(C([H])([H])OC(=O)C([H])([H])[H])C(=C([H])[H])C4(C([H])([H])[H])C([H])([H])C5(C([H])([H])[H])C23[H])C2(C([H])([H])[H])C([H])(O[H])C([H])([H])C([H])([H])C(C([H])([H])[H])(C([H])([H])[H])C12[H]

$$$$
108:0:1
     RDKit          3D

 67 72  0  0  1  0  0  0  0  0999 V2000
    4.7189   -4.0793    6.9276 C   0  0  0  0  0  0  0  0  0  0  0  0
    4.3493   -4.0789    5.6196 C   0  0  0  0  0  0  0  0  0  0  0  0
    4.2826   -5.1582    4.5965 C   0  0  1  0  0  0  0  0  0  0  0  0
    4.8398   -6.5238    5.0170 C   0  0  0  0  0  0  0  0  0  0  0  0
    2.7568   -5.1017    4.4423 C   0  0  0  0  0  0  0  0  0  0  0  0
    2.6132   -3.6228    4.0064 C   0  0  2  0  0  0  0  0  0  0  0  0
    1.2630   -3.0151    4.4306 C   0  0  0  0  0  0  0  0  0  0  0  0
    2.8296   -3.5659    2.4817 C   0  0  2  0  0  0  0  0  0  0  0  0
    2.2904   -4.5649    1.4815 C   0  0  2  0  0  0  0  0  0  0  0  0
    3.4409   -5.4145    1.6949 O   0  0  0  0  0  0  0  0  0  0  0  0
    4.1579   -4.2207    2.0726 C   0  0  2  0  0  0  0  0  0  0  0  0
    5.0102   -4.4677    3.3473 C   0  0  1  0  0  0  0  0  0  0  0  0
    4.9853   -3.1131    3.8092 O   0  0  0  0  0  0  0  0  0  0  0  0
    3.8894   -3.0010    4.7156 C   0  0  2  0  0  0  0  0  0  0  0  0
    3.7530   -1.5790    5.2945 C   0  0  0  0  0  0  0  0  0  0  0  0
    4.3135   -0.6503    4.3799 O   0  0  0  0  0  0  0  0  0  0  0  0
    5.4902   -0.0392    4.6018 C   0  0  0  0  0  0  0  0  0  0  0  0
    5.9332    0.1418    6.0484 C   0  0  0  0  0  0  0  0  0  0  0  0
    6.1881    0.3966    3.6934 O   0  0  0  0  0  0  0  0  0  0  0  0
    4.8424   -3.6963    0.7509 C   0  0  2  0  0  0  0  0  0  0  0  0
    6.0507   -4.6042    0.4072 C   0  0  0  0  0  0  0  0  0  0  0  0
    5.2784   -2.2007    0.9976 C   0  0  1  0  0  0  0  0  0  0  0  0
    6.5791   -2.1024    1.5266 O   0  0  0  0  0  0  0  0  0  0  0  0
    5.2549   -1.2160   -0.1713 C   0  0  0  0  0  0  0  0  0  0  0  0
    4.0103   -1.3720   -1.0344 C   0  0  0  0  0  0  0  0  0  0  0  0
    3.9014   -2.7908   -1.6256 C   0  0  0  0  0  0  0  0  0  0  0  0
    2.6906   -2.8098   -2.5908 C   0  0  0  0  0  0  0  0  0  0  0  0
    5.1011   -3.0859   -2.5511 C   0  0  0  0  0  0  0  0  0  0  0  0
    3.8005   -3.8471   -0.4551 C   0  0  2  0  0  0  0  0  0  0  0  0
    2.3443   -4.0923    0.0328 C   0  0  1  0  0  0  0  0  0  0  0  0
    1.5781   -5.0370   -0.6896 O   0  0  0  0  0  0  0  0  0  0  0  0
    4.7043   -3.1888    7.5182 H   0  0  0  0  0  0  0  0  0  0  0  0
    5.0186   -4.9833    7.4093 H   0  0  0  0  0  0  0  0  0  0  0  0
    4.7059   -7.2372    4.2060 H   0  0  0  0  0  0  0  0  0  0  0  0
    4.3287   -6.9164    5.8988 H   0  0  0  0  0  0  0  0  0  0  0  0
    5.9076   -6.4633    5.2391 H   0  0  0  0  0  0  0  0  0  0  0  0
    2.3454   -5.8431    3.7600 H   0  0  0  0  0  0  0  0  0  0  0  0
    2.2623   -5.2727    5.4054 H   0  0  0  0  0  0  0  0  0  0  0  0
    1.1764   -1.9769    4.1038 H   0  0  0  0  0  0  0  0  0  0  0  0
    1.1431   -3.0297    5.5179 H   0  0  0  0  0  0  0  0  0  0  0  0
    0.4257   -3.5614    3.9935 H   0  0  0  0  0  0  0  0  0  0  0  0
    2.7118   -2.5619    2.1040 H   0  0  0  0  0  0  0  0  0  0  0  0
    1.3665   -5.0030    1.8393 H   0  0  0  0  0  0  0  0  0  0  0  0
    6.0226   -4.8394    3.1714 H   0  0  0  0  0  0  0  0  0  0  0  0
    2.7215   -1.2798    5.4747 H   0  0  0  0  0  0  0  0  0  0  0  0
    4.2016   -1.5992    6.2788 H   0  0  0  0  0  0  0  0  0  0  0  0
    5.0997    0.5174    6.6386 H   0  0  0  0  0  0  0  0  0  0  0  0
    6.7633    0.8496    6.1554 H   0  0  0  0  0  0  0  0  0  0  0  0
    6.2720   -0.8090    6.4529 H   0  0  0  0  0  0  0  0  0  0  0  0
    6.5671   -4.2556   -0.4786 H   0  0  0  0  0  0  0  0  0  0  0  0
    5.7292   -5.6293    0.2105 H   0  0  0  0  0  0  0  0  0  0  0  0
    6.7947   -4.6548    1.1955 H   0  0  0  0  0  0  0  0  0  0  0  0
    4.6252   -1.7524    1.7415 H   0  0  0  0  0  0  0  0  0  0  0  0
    7.1958   -2.4696    0.9114 H   0  0  0  0  0  0  0  0  0  0  0  0
    5.2754   -0.2047    0.2410 H   0  0  0  0  0  0  0  0  0  0  0  0
    6.1539   -1.2953   -0.7763 H   0  0  0  0  0  0  0  0  0  0  0  0
    3.1382   -1.1653   -0.4161 H   0  0  0  0  0  0  0  0  0  0  0  0
    4.0029   -0.6194   -1.8275 H   0  0  0  0  0  0  0  0  0  0  0  0
    2.4825   -3.8000   -2.9999 H   0  0  0  0  0  0  0  0  0  0  0  0
    2.8276   -2.1196   -3.4263 H   0  0  0  0  0  0  0  0  0  0  0  0
    1.7946   -2.4734   -2.0928 H   0  0  0  0  0  0  0  0  0  0  0  0
    5.0499   -4.1048   -2.9453 H   0  0  0  0  0  0  0  0  0  0  0  0
    6.0627   -2.9834   -2.0589 H   0  0  0  0  0  0  0  0  0  0  0  0
    5.1219   -2.3985   -3.4016 H   0  0  0  0  0  0  0  0  0  0  0  0
    4.0346   -4.8036   -0.9198 H   0  0  0  0  0  0  0  0  0  0  0  0
    1.8415   -3.1297   -0.0107 H   0  0  0  0  0  0  0  0  0  0  0  0
    2.1198   -5.3649   -1.4172 H   0  0  0  0  0  0  0  0  0  0  0  0
  1  2  2  0
  1 32  1  0
  1 33  1  0
  2 14  1  0
  2  3  1  0
  3 12  1  0
  3  4  1  1
  3  5  1  0
  4 34  1  0
  4 35  1  0
  4 36  1  0
  5  6  1  0
  5 37  1  0
  5 38  1  0
  6 14  1  0
  6  7  1  6
  6  8  1  0
  7 39  1  0
  7 40  1  0
  7 41  1  0
  8 11  1  0
  8  9  1  0
  8 42  1  6
  9 30  1  0
  9 10  1  0
  9 43  1  1
 11 10  1  6
 11 12  1  0
 11 20  1  0
 12 13  1  0
 12 44  1  6
 13 14  1  0
 14 15  1  1
 15 16  1  0
 15 45  1  0
 15 46  1  0
 16 17  1  0
 17 18  1  0
 17 19  2  0
 18 47  1  0
 18 48  1  0
 18 49  1  0
 20 29  1  0
 20 21  1  6
 20 22  1  0
 21 50  1  0
 21 51  1  0
 21 52  1  0
 22 23  1  0
 22 24  1  0
 22 53  1  1
 23 54  1  0
 24 25  1  0
 24 55  1  0
 24 56  1  0
 25 26  1  0
 25 57  1  0
 25 58  1  0
 26 27  1  0
 26 28  1  0
 26 29  1  0
 27 59  1  0
 27 60  1  0
 27 61  1  0
 28 62  1  0
 28 63  1  0
 28 64  1  0
 29 30  1  0
 29 65  1  6
 30 31  1  0
 30 66  1  1
 31 67  1  0
M  END
>  <i_m_ct_stereo_status>  (355) 
1

>  <s_m_source_file>  (355) 
/var/tmp/pbs.5076255.sched01/tmpcwktr4ti/1290j0z1rin.sdf

>  <i_m_source_file_index>  (355) 
31

>  <i_lp_mmshare_version>  (355) 
48012

>  <i_f3d_flags>  (355) 
0

>  <s_epik_input>  (355) 
TzFbQ0BIXTJbQ0BdKFtDSDNdKShbQ0gyXTMpQyg9W0NIMl0pW0NAXTEoW0NIMl1PQyg9TylbQ0gzXSlbQ0BAXTMoW0NIM10pW0NAQEhdKFtDQEBdMjQ1KVtDQEhdKE80KVtDQEhdKFtPSF0pW0NAQEhdNltDQEBdNShbQ0gzXSlbQ0BASF0oW09IXSlbQ0gyXVtDSDJdQzYoW0NIM10pW0NIM10=

>  <s_epik_cmdline>  (355) 
J2VwaWtfcHl0aG9uJywgJy1waHQnLCAnMi4wJywgJy1waCcsICc3LjAnLCAnLXRuJywgJzgnLCAnLW1hJywgJzIwMCcsICctaW1hZScsICc8aW5maWxlLm1hZT4nLCAnLW9tYWUnLCAnPG91dGZpbGUubWFlPic=

>  <r_lp_tautomer_probability>  (355) 
1

>  <r_epik_Ionization_Penalty>  (355) 
3.66053e-07

>  <r_epik_Ionization_Penalty_Charging>  (355) 
0

>  <r_epik_Ionization_Penalty_Neutral>  (355) 
3.66053e-07

>  <r_epik_State_Penalty>  (355) 
-0

>  <r_epik_Charging_Adjusted_Penalty>  (355) 
0

>  <i_epik_Tot_Q>  (355) 
0

>  <i_epik_Tot_abs_Q>  (355) 
0

>  <s_epik_Chemistry_Notes>  (355) 
This compound has an ester and may undergo hydrolysis at high or low pH.

>  <s_lp_Force_Field>  (355) 
OPLS3e

>  <r_lp_Energy>  (355) 
90.0951

>  <b_lp_Chiralities_Consistent>  (355) 
1

>  <s_lp_Variant>  (355) 
108:0-1

>  <s_i_glide_gridfile>  (355) 
pfpi4k_grid

>  <i_i_glide_lignum>  (355) 
31

>  <i_i_glide_rotatable_bonds>  (355) 
5

>  <r_i_docking_score>  (355) 
-3.02496

>  <r_i_glide_ligand_efficiency>  (355) 
-0.0975792

>  <r_i_glide_ligand_efficiency_sa>  (355) 
-0.306533

>  <r_i_glide_ligand_efficiency_ln>  (355) 
-0.68222

>  <r_i_glide_gscore>  (355) 
-3.02496

>  <r_i_glide_lipo>  (355) 
-0.4745

>  <r_i_glide_hbond>  (355) 
-0.0593046

>  <r_i_glide_metal>  (355) 
-0

>  <r_i_glide_rewards>  (355) 
-0.56377

>  <r_i_glide_evdw>  (355) 
-19.6664

>  <r_i_glide_ecoul>  (355) 
-7.71187

>  <r_i_glide_erotb>  (355) 
0.212716

>  <r_i_glide_esite>  (355) 
0

>  <r_i_glide_emodel>  (355) 
-25.674

>  <r_i_glide_energy>  (355) 
-27.3782

>  <r_i_glide_einternal>  (355) 
12.1062

>  <r_i_glide_intrahb_reward>  (355) 
-0

>  <i_i_glide_confnum>  (355) 
1

>  <i_i_glide_posenum>  (355) 
20

>  <r_i_glide_eff_state_penalty>  (355) 
0

>  <ligand_id>  (355) 
108

>  <original_smiles>  (355) 
C=C1C2(C)CC3(C)C4C5OC4(C2OC13COC(C)=O)C1(C)C(O)CCC(C)(C)C1C5O

>  <smiles>  (355) 
[H]OC1([H])C2([H])OC3(C4([H])OC5(C([H])([H])OC(=O)C([H])([H])[H])C(=C([H])[H])C4(C([H])([H])[H])C([H])([H])C5(C([H])([H])[H])C23[H])C2(C([H])([H])[H])C([H])(O[H])C([H])([H])C([H])([H])C(C([H])([H])[H])(C([H])([H])[H])C12[H]

$$$$
108:0:2
     RDKit          3D

 67 72  0  0  1  0  0  0  0  0999 V2000
    2.2682   -9.7750    3.1666 C   0  0  0  0  0  0  0  0  0  0  0  0
    2.4860   -8.4458    3.0690 C   0  0  0  0  0  0  0  0  0  0  0  0
    1.5941   -7.3001    2.7781 C   0  0  1  0  0  0  0  0  0  0  0  0
    0.1577   -7.6398    2.3600 C   0  0  0  0  0  0  0  0  0  0  0  0
    1.7236   -6.6550    4.1672 C   0  0  0  0  0  0  0  0  0  0  0  0
    3.2642   -6.4475    4.1910 C   0  0  2  0  0  0  0  0  0  0  0  0
    3.8292   -6.5088    5.6276 C   0  0  0  0  0  0  0  0  0  0  0  0
    3.5450   -5.1214    3.5064 C   0  0  2  0  0  0  0  0  0  0  0  0
    2.7653   -3.8224    3.6588 C   0  0  2  0  0  0  0  0  0  0  0  0
    1.8620   -4.2582    2.6413 O   0  0  0  0  0  0  0  0  0  0  0  0
    2.9241   -5.0471    2.0968 C   0  0  2  0  0  0  0  0  0  0  0  0
    2.4549   -6.4810    1.6967 C   0  0  1  0  0  0  0  0  0  0  0  0
    3.7221   -7.1293    1.8837 O   0  0  0  0  0  0  0  0  0  0  0  0
    3.7092   -7.6333    3.2154 C   0  0  2  0  0  0  0  0  0  0  0  0
    5.0097   -8.3658    3.5094 C   0  0  0  0  0  0  0  0  0  0  0  0
    6.0885   -7.4377    3.5701 O   0  0  0  0  0  0  0  0  0  0  0  0
    7.3676   -7.8521    3.6823 C   0  0  0  0  0  0  0  0  0  0  0  0
    7.5990   -9.3656    3.6851 C   0  0  0  0  0  0  0  0  0  0  0  0
    8.3099   -7.0713    3.7771 O   0  0  0  0  0  0  0  0  0  0  0  0
    3.6477   -4.1467    1.0266 C   0  0  2  0  0  0  0  0  0  0  0  0
    2.7740   -4.0693   -0.2570 C   0  0  0  0  0  0  0  0  0  0  0  0
    5.0638   -4.7845    0.7349 C   0  0  1  0  0  0  0  0  0  0  0  0
    4.9722   -5.7238   -0.3187 O   0  0  0  0  0  0  0  0  0  0  0  0
    6.2295   -3.8650    0.3782 C   0  0  0  0  0  0  0  0  0  0  0  0
    6.2654   -2.6174    1.2542 C   0  0  0  0  0  0  0  0  0  0  0  0
    4.9766   -1.7993    1.1448 C   0  0  0  0  0  0  0  0  0  0  0  0
    5.1652   -0.5119    1.9811 C   0  0  0  0  0  0  0  0  0  0  0  0
    4.7935   -1.2815   -0.3102 C   0  0  0  0  0  0  0  0  0  0  0  0
    3.7568   -2.6651    1.6181 C   0  0  2  0  0  0  0  0  0  0  0  0
    3.4806   -2.5903    3.1580 C   0  0  1  0  0  0  0  0  0  0  0  0
    2.6955   -1.4666    3.5089 O   0  0  0  0  0  0  0  0  0  0  0  0
    3.0632  -10.4628    3.4040 H   0  0  0  0  0  0  0  0  0  0  0  0
    1.2841  -10.1908    3.0378 H   0  0  0  0  0  0  0  0  0  0  0  0
   -0.4101   -6.7271    2.1969 H   0  0  0  0  0  0  0  0  0  0  0  0
   -0.3550   -8.2251    3.1256 H   0  0  0  0  0  0  0  0  0  0  0  0
    0.1453   -8.2166    1.4328 H   0  0  0  0  0  0  0  0  0  0  0  0
    1.1257   -5.7654    4.3131 H   0  0  0  0  0  0  0  0  0  0  0  0
    1.4063   -7.3598    4.9505 H   0  0  0  0  0  0  0  0  0  0  0  0
    4.9068   -6.3491    5.6361 H   0  0  0  0  0  0  0  0  0  0  0  0
    3.6364   -7.4754    6.1055 H   0  0  0  0  0  0  0  0  0  0  0  0
    3.3870   -5.7328    6.2519 H   0  0  0  0  0  0  0  0  0  0  0  0
    4.6297   -4.8984    3.5078 H   0  0  0  0  0  0  0  0  0  0  0  0
    2.3245   -3.7613    4.6660 H   0  0  0  0  0  0  0  0  0  0  0  0
    2.0911   -6.5978    0.6784 H   0  0  0  0  0  0  0  0  0  0  0  0
    4.9328   -8.8934    4.4598 H   0  0  0  0  0  0  0  0  0  0  0  0
    5.1773   -9.0896    2.7142 H   0  0  0  0  0  0  0  0  0  0  0  0
    6.9831   -9.8452    4.4500 H   0  0  0  0  0  0  0  0  0  0  0  0
    8.6344   -9.6166    3.8825 H   0  0  0  0  0  0  0  0  0  0  0  0
    7.3233   -9.7768    2.7101 H   0  0  0  0  0  0  0  0  0  0  0  0
    3.2538   -3.4966   -1.0452 H   0  0  0  0  0  0  0  0  0  0  0  0
    1.8134   -3.6007   -0.0650 H   0  0  0  0  0  0  0  0  0  0  0  0
    2.5623   -5.0368   -0.6994 H   0  0  0  0  0  0  0  0  0  0  0  0
    5.4079   -5.3421    1.6006 H   0  0  0  0  0  0  0  0  0  0  0  0
    4.2636   -6.3016   -0.1436 H   0  0  0  0  0  0  0  0  0  0  0  0
    7.1622   -4.4181    0.5188 H   0  0  0  0  0  0  0  0  0  0  0  0
    6.2245   -3.5957   -0.6781 H   0  0  0  0  0  0  0  0  0  0  0  0
    6.3794   -2.9414    2.2934 H   0  0  0  0  0  0  0  0  0  0  0  0
    7.1387   -2.0119    1.0217 H   0  0  0  0  0  0  0  0  0  0  0  0
    4.2618    0.0976    2.0093 H   0  0  0  0  0  0  0  0  0  0  0  0
    5.9549    0.1064    1.5587 H   0  0  0  0  0  0  0  0  0  0  0  0
    5.4673   -0.7228    3.0103 H   0  0  0  0  0  0  0  0  0  0  0  0
    3.8578   -0.7323   -0.4262 H   0  0  0  0  0  0  0  0  0  0  0  0
    4.7847   -2.0811   -1.0502 H   0  0  0  0  0  0  0  0  0  0  0  0
    5.6082   -0.6181   -0.6012 H   0  0  0  0  0  0  0  0  0  0  0  0
    2.8857   -2.1479    1.2114 H   0  0  0  0  0  0  0  0  0  0  0  0
    4.4232   -2.5152    3.7066 H   0  0  0  0  0  0  0  0  0  0  0  0
    1.8891   -1.5086    3.0363 H   0  0  0  0  0  0  0  0  0  0  0  0
  1  2  2  0
  1 32  1  0
  1 33  1  0
  2 14  1  0
  2  3  1  0
  3 12  1  0
  3  4  1  6
  3  5  1  0
  4 34  1  0
  4 35  1  0
  4 36  1  0
  5  6  1  0
  5 37  1  0
  5 38  1  0
  6 14  1  0
  6  7  1  1
  6  8  1  0
  7 39  1  0
  7 40  1  0
  7 41  1  0
  8 11  1  0
  8  9  1  0
  8 42  1  6
  9 30  1  0
  9 10  1  0
  9 43  1  1
 11 10  1  1
 11 12  1  0
 11 20  1  0
 12 13  1  0
 12 44  1  6
 13 14  1  0
 14 15  1  1
 15 16  1  0
 15 45  1  0
 15 46  1  0
 16 17  1  0
 17 18  1  0
 17 19  2  0
 18 47  1  0
 18 48  1  0
 18 49  1  0
 20 29  1  0
 20 21  1  6
 20 22  1  0
 21 50  1  0
 21 51  1  0
 21 52  1  0
 22 23  1  0
 22 24  1  0
 22 53  1  1
 23 54  1  0
 24 25  1  0
 24 55  1  0
 24 56  1  0
 25 26  1  0
 25 57  1  0
 25 58  1  0
 26 27  1  0
 26 28  1  0
 26 29  1  0
 27 59  1  0
 27 60  1  0
 27 61  1  0
 28 62  1  0
 28 63  1  0
 28 64  1  0
 29 30  1  0
 29 65  1  6
 30 31  1  0
 30 66  1  1
 31 67  1  0
M  END
>  <i_m_ct_stereo_status>  (356) 
1

>  <s_m_source_file>  (356) 
/var/tmp/pbs.5076255.sched01/tmpcwktr4ti/1290j0z1rin.sdf

>  <i_m_source_file_index>  (356) 
31

>  <i_lp_mmshare_version>  (356) 
48012

>  <i_f3d_flags>  (356) 
0

>  <s_epik_input>  (356) 
TzFbQ0BIXTJbQ0BdKFtDSDNdKShbQ0gyXTMpQyg9W0NIMl0pW0NAXTEoW0NIMl1PQyg9TylbQ0gzXSlbQ0BAXTMoW0NIM10pW0NAQEhdKFtDQEBdMjQ1KVtDQEhdKE80KVtDQEhdKFtPSF0pW0NAQEhdNltDQEBdNShbQ0gzXSlbQ0BASF0oW09IXSlbQ0gyXVtDSDJdQzYoW0NIM10pW0NIM10=

>  <s_epik_cmdline>  (356) 
J2VwaWtfcHl0aG9uJywgJy1waHQnLCAnMi4wJywgJy1waCcsICc3LjAnLCAnLXRuJywgJzgnLCAnLW1hJywgJzIwMCcsICctaW1hZScsICc8aW5maWxlLm1hZT4nLCAnLW9tYWUnLCAnPG91dGZpbGUubWFlPic=

>  <r_lp_tautomer_probability>  (356) 
1

>  <r_epik_Ionization_Penalty>  (356) 
3.66053e-07

>  <r_epik_Ionization_Penalty_Charging>  (356) 
0

>  <r_epik_Ionization_Penalty_Neutral>  (356) 
3.66053e-07

>  <r_epik_State_Penalty>  (356) 
-0

>  <r_epik_Charging_Adjusted_Penalty>  (356) 
0

>  <i_epik_Tot_Q>  (356) 
0

>  <i_epik_Tot_abs_Q>  (356) 
0

>  <s_epik_Chemistry_Notes>  (356) 
This compound has an ester and may undergo hydrolysis at high or low pH.

>  <s_lp_Force_Field>  (356) 
OPLS3e

>  <r_lp_Energy>  (356) 
90.0951

>  <b_lp_Chiralities_Consistent>  (356) 
1

>  <s_lp_Variant>  (356) 
108:0-1

>  <s_i_glide_gridfile>  (356) 
pfpi4k_grid

>  <i_i_glide_lignum>  (356) 
31

>  <i_i_glide_rotatable_bonds>  (356) 
5

>  <r_i_docking_score>  (356) 
-1.92019

>  <r_i_glide_ligand_efficiency>  (356) 
-0.0619418

>  <r_i_glide_ligand_efficiency_sa>  (356) 
-0.194583

>  <r_i_glide_ligand_efficiency_ln>  (356) 
-0.433063

>  <r_i_glide_gscore>  (356) 
-1.92019

>  <r_i_glide_lipo>  (356) 
-0.480471

>  <r_i_glide_hbond>  (356) 
0

>  <r_i_glide_metal>  (356) 
-0

>  <r_i_glide_rewards>  (356) 
-0.459929

>  <r_i_glide_evdw>  (356) 
-26.215

>  <r_i_glide_ecoul>  (356) 
0.788269

>  <r_i_glide_erotb>  (356) 
0.212716

>  <r_i_glide_esite>  (356) 
0

>  <r_i_glide_emodel>  (356) 
-24.942

>  <r_i_glide_energy>  (356) 
-25.4268

>  <r_i_glide_einternal>  (356) 
6.7327

>  <r_i_glide_intrahb_reward>  (356) 
-0

>  <i_i_glide_confnum>  (356) 
1

>  <i_i_glide_posenum>  (356) 
5

>  <r_i_glide_eff_state_penalty>  (356) 
0

>  <ligand_id>  (356) 
108

>  <original_smiles>  (356) 
C=C1C2(C)CC3(C)C4C5OC4(C2OC13COC(C)=O)C1(C)C(O)CCC(C)(C)C1C5O

>  <smiles>  (356) 
[H]OC1([H])C2([H])OC3(C4([H])OC5(C([H])([H])OC(=O)C([H])([H])[H])C(=C([H])[H])C4(C([H])([H])[H])C([H])([H])C5(C([H])([H])[H])C23[H])C2(C([H])([H])[H])C([H])(O[H])C([H])([H])C([H])([H])C(C([H])([H])[H])(C([H])([H])[H])C12[H]

$$$$
109:1:0
     RDKit          3D

 76 82  0  0  1  0  0  0  0  0999 V2000
    4.2572   -2.4611   -3.1367 C   0  0  0  0  0  0  0  0  0  0  0  0
    4.6581   -2.7560   -1.6955 C   0  0  0  0  0  0  0  0  0  0  0  0
    5.9228   -3.2495   -1.4081 C   0  0  0  0  0  0  0  0  0  0  0  0
    6.6736   -3.5581    0.0010 C   0  0  2  0  0  0  0  0  0  0  0  0
    8.1194   -4.0107   -0.2982 C   0  0  1  0  0  0  0  0  0  0  0  0
    9.1911   -3.1993    0.1383 O   0  0  0  0  0  0  0  0  0  0  0  0
    7.8781   -5.3162    0.4768 C   0  0  1  0  0  0  0  0  0  0  0  0
    8.6979   -5.5596    1.7457 C   0  0  0  0  0  0  0  0  0  0  0  0
    6.3482   -5.0282    0.5635 C   0  0  1  0  0  0  0  0  0  0  0  0
    5.7102   -5.4128    2.0283 C   0  0  0  0  0  0  0  0  0  0  0  0
    4.1673   -5.5126    2.6781 C   0  0  1  0  0  0  0  0  0  0  0  0
    4.5533   -6.1554    4.0782 C   0  0  0  0  0  0  0  0  0  0  0  0
    2.9790   -4.3244    2.9150 C   0  0  1  0  0  0  0  0  0  0  0  0
    2.1941   -4.4621    4.2919 C   0  0  0  0  0  0  0  0  0  0  0  0
    1.3162   -5.7488    4.3643 C   0  0  0  0  0  0  0  0  0  0  0  0
    1.2225   -3.3250    4.6857 C   0  0  0  0  0  0  0  0  0  0  0  0
    3.2475   -2.8736    2.3142 C   0  0  1  0  0  0  0  0  0  0  0  0
    2.3152   -1.6534    2.1244 C   0  0  0  0  0  0  0  0  0  0  0  0
    3.3318   -0.4434    2.0935 C   0  0  0  0  0  0  0  0  0  0  0  0
    4.6493   -0.9547    2.7130 C   0  0  0  0  0  0  0  0  0  0  0  0
    4.2371   -2.0857    3.2840 C   0  0  0  0  0  0  0  0  0  0  0  0
    5.0165   -2.6936    4.4308 C   0  0  0  0  0  0  0  0  0  0  0  0
    5.8761   -1.1029    1.6954 C   0  0  2  0  0  0  0  0  0  0  0  0
    5.2391   -1.1270    0.5141 O   0  0  0  0  0  0  0  0  0  0  0  0
    5.0645   -2.5722    0.7878 C   0  0  2  0  0  0  0  0  0  0  0  0
    6.4627   -2.5749    1.2194 C   0  0  1  0  0  0  0  0  0  0  0  0
    3.7214   -3.1947    0.7507 C   0  0  1  0  0  0  0  0  0  0  0  0
    3.2136   -4.5971    0.1108 C   0  0  0  0  0  0  0  0  0  0  0  0
    3.3837   -6.1023    0.4730 C   0  0  0  0  0  0  0  0  0  0  0  0
    3.4248   -6.5078    1.8769 N   0  0  1  0  0  0  0  0  0  0  0  0
    3.7612   -7.9503    2.0225 C   0  0  0  0  0  0  0  0  0  0  0  0
    3.4752   -2.4436   -0.6483 C   0  0  0  0  0  0  0  0  0  0  0  0
    3.9951   -1.4115   -3.2637 H   0  0  0  0  0  0  0  0  0  0  0  0
    3.3925   -3.0554   -3.4271 H   0  0  0  0  0  0  0  0  0  0  0  0
    5.0533   -2.6915   -3.8429 H   0  0  0  0  0  0  0  0  0  0  0  0
    6.5671   -3.3981   -2.2529 H   0  0  0  0  0  0  0  0  0  0  0  0
    8.2821   -4.1983   -1.3585 H   0  0  0  0  0  0  0  0  0  0  0  0
    9.5191   -2.7296   -0.6197 H   0  0  0  0  0  0  0  0  0  0  0  0
    8.0173   -6.1635   -0.1963 H   0  0  0  0  0  0  0  0  0  0  0  0
    8.6202   -4.7218    2.4406 H   0  0  0  0  0  0  0  0  0  0  0  0
    9.7575   -5.6812    1.5221 H   0  0  0  0  0  0  0  0  0  0  0  0
    8.3897   -6.4664    2.2719 H   0  0  0  0  0  0  0  0  0  0  0  0
    5.9229   -5.5861   -0.2658 H   0  0  0  0  0  0  0  0  0  0  0  0
    6.0875   -6.4254    2.1496 H   0  0  0  0  0  0  0  0  0  0  0  0
    6.2887   -4.8969    2.7771 H   0  0  0  0  0  0  0  0  0  0  0  0
    4.9921   -5.4265    4.7541 H   0  0  0  0  0  0  0  0  0  0  0  0
    5.3222   -6.9344    3.9797 H   0  0  0  0  0  0  0  0  0  0  0  0
    3.7835   -6.6426    4.6369 H   0  0  0  0  0  0  0  0  0  0  0  0
    2.1221   -4.6008    2.3006 H   0  0  0  0  0  0  0  0  0  0  0  0
    2.9161   -4.4994    5.1051 H   0  0  0  0  0  0  0  0  0  0  0  0
    1.7818   -6.6718    4.0650 H   0  0  0  0  0  0  0  0  0  0  0  0
    0.4264   -5.6444    3.7344 H   0  0  0  0  0  0  0  0  0  0  0  0
    0.9704   -5.8901    5.3942 H   0  0  0  0  0  0  0  0  0  0  0  0
    0.4096   -3.2055    3.9655 H   0  0  0  0  0  0  0  0  0  0  0  0
    1.7147   -2.3703    4.8548 H   0  0  0  0  0  0  0  0  0  0  0  0
    0.7511   -3.5471    5.6432 H   0  0  0  0  0  0  0  0  0  0  0  0
    1.6753   -1.6953    1.2467 H   0  0  0  0  0  0  0  0  0  0  0  0
    1.6460   -1.4723    2.9538 H   0  0  0  0  0  0  0  0  0  0  0  0
    3.4122    0.0441    1.1253 H   0  0  0  0  0  0  0  0  0  0  0  0
    2.9652    0.3426    2.7509 H   0  0  0  0  0  0  0  0  0  0  0  0
    5.5790   -3.5689    4.1576 H   0  0  0  0  0  0  0  0  0  0  0  0
    4.3529   -2.9044    5.2663 H   0  0  0  0  0  0  0  0  0  0  0  0
    5.7402   -1.9749    4.8116 H   0  0  0  0  0  0  0  0  0  0  0  0
    6.6144   -0.3087    1.7517 H   0  0  0  0  0  0  0  0  0  0  0  0
    5.2340   -3.1677    1.6560 H   0  0  0  0  0  0  0  0  0  0  0  0
    6.9436   -3.0014    2.1078 H   0  0  0  0  0  0  0  0  0  0  0  0
    2.1373   -4.4773    0.0787 H   0  0  0  0  0  0  0  0  0  0  0  0
    3.4779   -4.6802   -0.9326 H   0  0  0  0  0  0  0  0  0  0  0  0
    2.4718   -6.5706    0.1017 H   0  0  0  0  0  0  0  0  0  0  0  0
    4.1554   -6.6009   -0.1099 H   0  0  0  0  0  0  0  0  0  0  0  0
    4.7840   -8.1752    1.7381 H   0  0  0  0  0  0  0  0  0  0  0  0
    3.1180   -8.5429    1.3722 H   0  0  0  0  0  0  0  0  0  0  0  0
    3.5817   -8.3244    3.0284 H   0  0  0  0  0  0  0  0  0  0  0  0
    3.3227   -1.3636   -0.5970 H   0  0  0  0  0  0  0  0  0  0  0  0
    2.5296   -2.7228   -1.1132 H   0  0  0  0  0  0  0  0  0  0  0  0
    2.4720   -6.4331    2.2212 H   0  0  0  0  0  0  0  0  0  0  0  0
  1  2  1  0
  1 33  1  0
  1 34  1  0
  1 35  1  0
  2 32  1  0
  2  3  2  0
  4  3  1  6
  3 36  1  0
  4  9  1  0
  4 26  1  0
  4  5  1  0
  5  6  1  0
  5  7  1  0
  5 37  1  6
  6 38  1  0
  7  8  1  0
  7  9  1  0
  7 39  1  6
  8 40  1  0
  8 41  1  0
  8 42  1  0
  9 10  1  0
  9 43  1  6
 10 11  1  0
 10 44  1  0
 10 45  1  0
 11 30  1  0
 11 12  1  1
 11 13  1  0
 12 46  1  0
 12 47  1  0
 12 48  1  0
 13 14  1  0
 13 17  1  0
 13 49  1  6
 14 15  1  0
 14 16  1  0
 14 50  1  0
 15 51  1  0
 15 52  1  0
 15 53  1  0
 16 54  1  0
 16 55  1  0
 16 56  1  0
 17 21  1  0
 17 27  1  0
 17 18  1  6
 18 19  1  0
 18 57  1  0
 18 58  1  0
 19 20  1  0
 19 59  1  0
 19 60  1  0
 20 21  2  0
 20 23  1  0
 21 22  1  0
 22 61  1  0
 22 62  1  0
 22 63  1  0
 23 26  1  0
 23 24  1  0
 23 64  1  6
 24 25  1  0
 25 26  1  0
 25 27  1  0
 25 65  1  6
 26 66  1  1
 27 28  1  6
 27 32  1  0
 28 29  1  0
 28 67  1  0
 28 68  1  0
 29 30  1  0
 29 69  1  0
 29 70  1  0
 30 31  1  0
 30 76  1  1
 31 71  1  0
 31 72  1  0
 31 73  1  0
 32 74  1  0
 32 75  1  0
M  CHG  1  30   1
M  END
>  <i_m_ct_stereo_status>  (357) 
1

>  <s_m_source_file>  (357) 
/var/tmp/pbs.5076255.sched01/tmpcwktr4ti/1290j0z1rin.sdf

>  <i_m_source_file_index>  (357) 
33

>  <i_lp_mmshare_version>  (357) 
48012

>  <i_f3d_flags>  (357) 
1

>  <s_epik_input>  (357) 
W0NIMl0xW0NIMl1DKD1DMltDSDNdKVtDQEhdKE8zKVtDQEhdNFtDQEBIXTNbQ0BAXShbQ0gyXUMoW0NIM10pPVtDSF01KShbQ0gyXVtDSDJdTjZbQ0gzXSlDMTJbQ0BIXShbQ0hdKFtDSDNdKVtDSDNdKVtDQF02KFtDSDNdKVtDSDJdW0NAQEhdKFtDQF00NTcpW0NASF0oW0NIM10pW0NAQEhdN1tPSF0=

>  <s_epik_cmdline>  (357) 
J2VwaWtfcHl0aG9uJywgJy1waHQnLCAnMi4wJywgJy1waCcsICc3LjAnLCAnLXRuJywgJzgnLCAnLW1hJywgJzIwMCcsICctaW1hZScsICc8aW5maWxlLm1hZT4nLCAnLW9tYWUnLCAnPG91dGZpbGUubWFlPic=

>  <r_epik_Ionization_Penalty>  (357) 
0.000992713

>  <r_epik_Ionization_Penalty_Charging>  (357) 
0.000992561

>  <r_epik_Ionization_Penalty_Neutral>  (357) 
1.52206e-07

>  <r_epik_State_Penalty>  (357) 
0.000646694

>  <r_epik_Charging_Adjusted_Penalty>  (357) 
0.00163925

>  <i_epik_Tot_Q>  (357) 
1

>  <i_epik_Tot_abs_Q>  (357) 
1

>  <s_lp_Force_Field>  (357) 
OPLS3e

>  <r_lp_Energy>  (357) 
506.067

>  <b_lp_Chiralities_Consistent>  (357) 
1

>  <s_lp_Variant>  (357) 
109:0-2

>  <s_i_glide_gridfile>  (357) 
pfpi4k_grid

>  <i_i_glide_lignum>  (357) 
33

>  <i_i_glide_rotatable_bonds>  (357) 
2

>  <r_i_docking_score>  (357) 
-3.58252

>  <r_i_glide_ligand_efficiency>  (357) 
-0.111954

>  <r_i_glide_ligand_efficiency_sa>  (357) 
-0.355431

>  <r_i_glide_ligand_efficiency_ln>  (357) 
-0.802225

>  <r_i_glide_gscore>  (357) 
-3.58252

>  <r_i_glide_lipo>  (357) 
-1.15178

>  <r_i_glide_hbond>  (357) 
-0.186856

>  <r_i_glide_metal>  (357) 
-0

>  <r_i_glide_rewards>  (357) 
-0.418192

>  <r_i_glide_evdw>  (357) 
-22.9696

>  <r_i_glide_ecoul>  (357) 
-4.51478

>  <r_i_glide_erotb>  (357) 
0

>  <r_i_glide_esite>  (357) 
0

>  <r_i_glide_emodel>  (357) 
-32.8065

>  <r_i_glide_energy>  (357) 
-27.4844

>  <r_i_glide_einternal>  (357) 
1.38788

>  <r_i_glide_intrahb_reward>  (357) 
-0

>  <i_i_glide_confnum>  (357) 
1

>  <i_i_glide_posenum>  (357) 
3

>  <r_i_glide_eff_state_penalty>  (357) 
0

>  <ligand_id>  (357) 
109

>  <original_smiles>  (357) 
CC1=CC23C(O)C(C)C2CC2(C)C(C(C)C)C45CCC(=C4C)C4OC(C43)C5(CCN2C)C1

>  <smiles>  (357) 
[H]OC1([H])C([H])(C([H])([H])[H])C2([H])C([H])([H])C3(C([H])([H])[H])C([H])(C([H])(C([H])([H])[H])C([H])([H])[H])C45C(C([H])([H])[H])=C(C([H])([H])C4([H])[H])C4([H])OC6([H])C4([H])C12C([H])=C(C([H])([H])[H])C([H])([H])C65C([H])([H])C([H])([H])[N+]3([H])C([H])([H])[H]

$$$$
109:1:1
     RDKit          3D

 76 82  0  0  1  0  0  0  0  0999 V2000
    3.4593   -2.9381   -3.1713 C   0  0  0  0  0  0  0  0  0  0  0  0
    4.0381   -3.0139   -1.7612 C   0  0  0  0  0  0  0  0  0  0  0  0
    5.3849   -3.2702   -1.5713 C   0  0  0  0  0  0  0  0  0  0  0  0
    6.3099   -3.3014   -0.2288 C   0  0  2  0  0  0  0  0  0  0  0  0
    7.7608   -3.5629   -0.6515 C   0  0  1  0  0  0  0  0  0  0  0  0
    8.6835   -2.5282   -0.4017 O   0  0  0  0  0  0  0  0  0  0  0  0
    7.8204   -4.7855    0.2760 C   0  0  1  0  0  0  0  0  0  0  0  0
    8.7724   -4.7606    1.4617 C   0  0  0  0  0  0  0  0  0  0  0  0
    6.2761   -4.7330    0.4986 C   0  0  1  0  0  0  0  0  0  0  0  0
    5.8450   -5.0348    2.0600 C   0  0  0  0  0  0  0  0  0  0  0  0
    4.4150   -5.2939    2.8775 C   0  0  1  0  0  0  0  0  0  0  0  0
    5.0398   -5.7001    4.2804 C   0  0  0  0  0  0  0  0  0  0  0  0
    3.0857   -4.2834    3.1432 C   0  0  1  0  0  0  0  0  0  0  0  0
    2.4630   -4.3734    4.6053 C   0  0  0  0  0  0  0  0  0  0  0  0
    1.8245   -5.7626    4.8977 C   0  0  0  0  0  0  0  0  0  0  0  0
    1.3609   -3.3632    4.9894 C   0  0  0  0  0  0  0  0  0  0  0  0
    3.0570   -2.8810    2.3741 C   0  0  1  0  0  0  0  0  0  0  0  0
    1.9257   -1.8356    2.1779 C   0  0  0  0  0  0  0  0  0  0  0  0
    2.7202   -0.4992    1.9186 C   0  0  0  0  0  0  0  0  0  0  0  0
    4.1617   -0.7316    2.4280 C   0  0  0  0  0  0  0  0  0  0  0  0
    3.9893   -1.8374    3.1430 C   0  0  0  0  0  0  0  0  0  0  0  0
    4.9635   -2.1914    4.2531 C   0  0  0  0  0  0  0  0  0  0  0  0
    5.3091   -0.8032    1.2924 C   0  0  2  0  0  0  0  0  0  0  0  0
    4.5634   -1.0781    0.1993 O   0  0  0  0  0  0  0  0  0  0  0  0
    4.6606   -2.4804    0.6373 C   0  0  2  0  0  0  0  0  0  0  0  0
    6.0789   -2.2184    0.9118 C   0  0  1  0  0  0  0  0  0  0  0  0
    3.4351   -3.2990    0.8088 C   0  0  1  0  0  0  0  0  0  0  0  0
    3.0959   -4.8413    0.3628 C   0  0  0  0  0  0  0  0  0  0  0  0
    3.5340   -6.2579    0.8507 C   0  0  0  0  0  0  0  0  0  0  0  0
    3.7723   -6.4727    2.2748 N   0  0  1  0  0  0  0  0  0  0  0  0
    4.3540   -7.8194    2.5167 C   0  0  0  0  0  0  0  0  0  0  0  0
    2.9337   -2.7763   -0.6189 C   0  0  0  0  0  0  0  0  0  0  0  0
    3.0131   -1.9621   -3.3604 H   0  0  0  0  0  0  0  0  0  0  0  0
    2.6824   -3.6877   -3.3089 H   0  0  0  0  0  0  0  0  0  0  0  0
    4.2169   -3.1136   -3.9360 H   0  0  0  0  0  0  0  0  0  0  0  0
    5.9689   -3.4040   -2.4739 H   0  0  0  0  0  0  0  0  0  0  0  0
    7.8553   -3.8516   -1.6948 H   0  0  0  0  0  0  0  0  0  0  0  0
    9.4356   -2.6411   -0.9801 H   0  0  0  0  0  0  0  0  0  0  0  0
    8.0479   -5.6888   -0.3005 H   0  0  0  0  0  0  0  0  0  0  0  0
    8.6334   -3.8675    2.0548 H   0  0  0  0  0  0  0  0  0  0  0  0
    9.7988   -4.7316    1.1407 H   0  0  0  0  0  0  0  0  0  0  0  0
    8.6762   -5.6365    2.1057 H   0  0  0  0  0  0  0  0  0  0  0  0
    5.8706   -5.4381   -0.2240 H   0  0  0  0  0  0  0  0  0  0  0  0
    6.4054   -5.9556    2.2333 H   0  0  0  0  0  0  0  0  0  0  0  0
    6.4047   -4.3439    2.6736 H   0  0  0  0  0  0  0  0  0  0  0  0
    5.4166   -4.8418    4.8377 H   0  0  0  0  0  0  0  0  0  0  0  0
    5.9131   -6.3568    4.1789 H   0  0  0  0  0  0  0  0  0  0  0  0
    4.4025   -6.2411    4.9754 H   0  0  0  0  0  0  0  0  0  0  0  0
    2.2297   -4.7438    2.6565 H   0  0  0  0  0  0  0  0  0  0  0  0
    3.2574   -4.2077    5.3266 H   0  0  0  0  0  0  0  0  0  0  0  0
    2.4219   -6.6351    4.6404 H   0  0  0  0  0  0  0  0  0  0  0  0
    0.8754   -5.8733    4.3685 H   0  0  0  0  0  0  0  0  0  0  0  0
    1.6031   -5.8404    5.9645 H   0  0  0  0  0  0  0  0  0  0  0  0
    0.4765   -3.4566    4.3583 H   0  0  0  0  0  0  0  0  0  0  0  0
    1.6997   -2.3328    5.0050 H   0  0  0  0  0  0  0  0  0  0  0  0
    1.0281   -3.5489    6.0095 H   0  0  0  0  0  0  0  0  0  0  0  0
    1.2356   -2.0529    1.3698 H   0  0  0  0  0  0  0  0  0  0  0  0
    1.3199   -1.6737    3.0560 H   0  0  0  0  0  0  0  0  0  0  0  0
    2.6246   -0.1304    0.8997 H   0  0  0  0  0  0  0  0  0  0  0  0
    2.2919    0.2914    2.5288 H   0  0  0  0  0  0  0  0  0  0  0  0
    5.6330   -2.9956    4.0019 H   0  0  0  0  0  0  0  0  0  0  0  0
    4.4230   -2.4069    5.1731 H   0  0  0  0  0  0  0  0  0  0  0  0
    5.5910   -1.3261    4.4743 H   0  0  0  0  0  0  0  0  0  0  0  0
    5.9036    0.1020    1.1693 H   0  0  0  0  0  0  0  0  0  0  0  0
    5.0020   -2.9312    1.5377 H   0  0  0  0  0  0  0  0  0  0  0  0
    6.7008   -2.4344    1.7915 H   0  0  0  0  0  0  0  0  0  0  0  0
    2.0028   -4.8825    0.4446 H   0  0  0  0  0  0  0  0  0  0  0  0
    3.2659   -5.0184   -0.7089 H   0  0  0  0  0  0  0  0  0  0  0  0
    2.6887   -6.9058    0.6177 H   0  0  0  0  0  0  0  0  0  0  0  0
    4.3289   -6.6738    0.2357 H   0  0  0  0  0  0  0  0  0  0  0  0
    5.3765   -7.9149    2.1395 H   0  0  0  0  0  0  0  0  0  0  0  0
    3.7550   -8.5760    2.0013 H   0  0  0  0  0  0  0  0  0  0  0  0
    4.3384   -8.0982    3.5729 H   0  0  0  0  0  0  0  0  0  0  0  0
    2.6303   -1.7409   -0.6498 H   0  0  0  0  0  0  0  0  0  0  0  0
    2.0052   -3.2349   -0.9475 H   0  0  0  0  0  0  0  0  0  0  0  0
    2.8603   -6.5048    2.7084 H   0  0  0  0  0  0  0  0  0  0  0  0
  1  2  1  0
  1 33  1  0
  1 34  1  0
  1 35  1  0
  2 32  1  0
  2  3  2  0
  4  3  1  6
  3 36  1  0
  4  9  1  0
  4 26  1  0
  4  5  1  0
  5  6  1  0
  5  7  1  0
  5 37  1  6
  6 38  1  0
  7  8  1  0
  7  9  1  0
  7 39  1  6
  8 40  1  0
  8 41  1  0
  8 42  1  0
  9 10  1  0
  9 43  1  6
 10 11  1  0
 10 44  1  0
 10 45  1  0
 11 30  1  0
 11 12  1  1
 11 13  1  0
 12 46  1  0
 12 47  1  0
 12 48  1  0
 13 14  1  0
 13 17  1  0
 13 49  1  6
 14 15  1  0
 14 16  1  0
 14 50  1  0
 15 51  1  0
 15 52  1  0
 15 53  1  0
 16 54  1  0
 16 55  1  0
 16 56  1  0
 17 21  1  0
 17 27  1  0
 17 18  1  6
 18 19  1  0
 18 57  1  0
 18 58  1  0
 19 20  1  0
 19 59  1  0
 19 60  1  0
 20 21  2  0
 20 23  1  0
 21 22  1  0
 22 61  1  0
 22 62  1  0
 22 63  1  0
 23 26  1  0
 23 24  1  0
 23 64  1  6
 24 25  1  0
 25 26  1  0
 25 27  1  0
 25 65  1  6
 26 66  1  1
 27 28  1  1
 27 32  1  0
 28 29  1  0
 28 67  1  0
 28 68  1  0
 29 30  1  0
 29 69  1  0
 29 70  1  0
 30 31  1  0
 30 76  1  1
 31 71  1  0
 31 72  1  0
 31 73  1  0
 32 74  1  0
 32 75  1  0
M  CHG  1  30   1
M  END
>  <i_m_ct_stereo_status>  (358) 
1

>  <s_m_source_file>  (358) 
/var/tmp/pbs.5076255.sched01/tmpcwktr4ti/1290j0z1rin.sdf

>  <i_m_source_file_index>  (358) 
33

>  <i_lp_mmshare_version>  (358) 
48012

>  <i_f3d_flags>  (358) 
1

>  <s_epik_input>  (358) 
W0NIMl0xW0NIMl1DKD1DMltDSDNdKVtDQEhdKE8zKVtDQEhdNFtDQEBIXTNbQ0BAXShbQ0gyXUMoW0NIM10pPVtDSF01KShbQ0gyXVtDSDJdTjZbQ0gzXSlDMTJbQ0BIXShbQ0hdKFtDSDNdKVtDSDNdKVtDQF02KFtDSDNdKVtDSDJdW0NAQEhdKFtDQF00NTcpW0NASF0oW0NIM10pW0NAQEhdN1tPSF0=

>  <s_epik_cmdline>  (358) 
J2VwaWtfcHl0aG9uJywgJy1waHQnLCAnMi4wJywgJy1waCcsICc3LjAnLCAnLXRuJywgJzgnLCAnLW1hJywgJzIwMCcsICctaW1hZScsICc8aW5maWxlLm1hZT4nLCAnLW9tYWUnLCAnPG91dGZpbGUubWFlPic=

>  <r_epik_Ionization_Penalty>  (358) 
0.000992713

>  <r_epik_Ionization_Penalty_Charging>  (358) 
0.000992561

>  <r_epik_Ionization_Penalty_Neutral>  (358) 
1.52206e-07

>  <r_epik_State_Penalty>  (358) 
0.000646694

>  <r_epik_Charging_Adjusted_Penalty>  (358) 
0.00163925

>  <i_epik_Tot_Q>  (358) 
1

>  <i_epik_Tot_abs_Q>  (358) 
1

>  <s_lp_Force_Field>  (358) 
OPLS3e

>  <r_lp_Energy>  (358) 
506.067

>  <b_lp_Chiralities_Consistent>  (358) 
1

>  <s_lp_Variant>  (358) 
109:0-2

>  <s_i_glide_gridfile>  (358) 
pfpi4k_grid

>  <i_i_glide_lignum>  (358) 
33

>  <i_i_glide_rotatable_bonds>  (358) 
2

>  <r_i_docking_score>  (358) 
-3.35991

>  <r_i_glide_ligand_efficiency>  (358) 
-0.104997

>  <r_i_glide_ligand_efficiency_sa>  (358) 
-0.333345

>  <r_i_glide_ligand_efficiency_ln>  (358) 
-0.752376

>  <r_i_glide_gscore>  (358) 
-3.35991

>  <r_i_glide_lipo>  (358) 
-1.09059

>  <r_i_glide_hbond>  (358) 
-0.16

>  <r_i_glide_metal>  (358) 
-0

>  <r_i_glide_rewards>  (358) 
-0.418192

>  <r_i_glide_evdw>  (358) 
-22.3193

>  <r_i_glide_ecoul>  (358) 
-3.83445

>  <r_i_glide_erotb>  (358) 
0

>  <r_i_glide_esite>  (358) 
0

>  <r_i_glide_emodel>  (358) 
-30.9768

>  <r_i_glide_energy>  (358) 
-26.1537

>  <r_i_glide_einternal>  (358) 
1.36946

>  <r_i_glide_intrahb_reward>  (358) 
-0

>  <i_i_glide_confnum>  (358) 
2

>  <i_i_glide_posenum>  (358) 
16

>  <r_i_glide_eff_state_penalty>  (358) 
0

>  <ligand_id>  (358) 
109

>  <original_smiles>  (358) 
CC1=CC23C(O)C(C)C2CC2(C)C(C(C)C)C45CCC(=C4C)C4OC(C43)C5(CCN2C)C1

>  <smiles>  (358) 
[H]OC1([H])C([H])(C([H])([H])[H])C2([H])C([H])([H])C3(C([H])([H])[H])C([H])(C([H])(C([H])([H])[H])C([H])([H])[H])C45C(C([H])([H])[H])=C(C([H])([H])C4([H])[H])C4([H])OC6([H])C4([H])C12C([H])=C(C([H])([H])[H])C([H])([H])C65C([H])([H])C([H])([H])[N+]3([H])C([H])([H])[H]

$$$$
109:1:2
     RDKit          3D

 76 82  0  0  1  0  0  0  0  0999 V2000
    3.8599   -2.2417   -3.0296 C   0  0  0  0  0  0  0  0  0  0  0  0
    4.3352   -2.5548   -1.6140 C   0  0  0  0  0  0  0  0  0  0  0  0
    5.6456   -2.9537   -1.3903 C   0  0  0  0  0  0  0  0  0  0  0  0
    6.4614   -3.2461   -0.0127 C   0  0  2  0  0  0  0  0  0  0  0  0
    7.9120   -3.5933   -0.3734 C   0  0  1  0  0  0  0  0  0  0  0  0
    8.9103   -2.7062    0.0724 O   0  0  0  0  0  0  0  0  0  0  0  0
    7.8174   -4.9207    0.3781 C   0  0  1  0  0  0  0  0  0  0  0  0
    8.7229   -5.1336    1.5927 C   0  0  0  0  0  0  0  0  0  0  0  0
    6.2704   -4.7497    0.5202 C   0  0  1  0  0  0  0  0  0  0  0  0
    5.7223   -5.2153    1.9924 C   0  0  0  0  0  0  0  0  0  0  0  0
    4.2213   -5.4580    2.6860 C   0  0  1  0  0  0  0  0  0  0  0  0
    4.7178   -6.1028    4.0444 C   0  0  0  0  0  0  0  0  0  0  0  0
    2.9597   -4.3795    3.0058 C   0  0  1  0  0  0  0  0  0  0  0  0
    2.2351   -4.6138    4.4047 C   0  0  0  0  0  0  0  0  0  0  0  0
    1.4725   -5.9671    4.4686 C   0  0  0  0  0  0  0  0  0  0  0  0
    1.1917   -3.5719    4.8648 C   0  0  0  0  0  0  0  0  0  0  0  0
    3.0856   -2.8918    2.4392 C   0  0  1  0  0  0  0  0  0  0  0  0
    2.0555   -1.7424    2.3217 C   0  0  0  0  0  0  0  0  0  0  0  0
    2.9642   -0.4538    2.2983 C   0  0  0  0  0  0  0  0  0  0  0  0
    4.3449   -0.8817    2.8527 C   0  0  0  0  0  0  0  0  0  0  0  0
    4.0432   -2.0467    3.4006 C   0  0  0  0  0  0  0  0  0  0  0  0
    4.9154   -2.6303    4.5001 C   0  0  0  0  0  0  0  0  0  0  0  0
    5.5514   -0.8996    1.7902 C   0  0  2  0  0  0  0  0  0  0  0  0
    4.8763   -0.9465    0.6255 O   0  0  0  0  0  0  0  0  0  0  0  0
    4.8302   -2.4032    0.8631 C   0  0  2  0  0  0  0  0  0  0  0  0
    6.2427   -2.3073    1.2473 C   0  0  1  0  0  0  0  0  0  0  0  0
    3.5363   -3.1284    0.8534 C   0  0  1  0  0  0  0  0  0  0  0  0
    3.1116   -4.5574    0.1830 C   0  0  0  0  0  0  0  0  0  0  0  0
    3.4060   -6.0565    0.4908 C   0  0  0  0  0  0  0  0  0  0  0  0
    3.5320   -6.4867    1.8822 N   0  0  1  0  0  0  0  0  0  0  0  0
    3.9875   -7.9043    1.9670 C   0  0  0  0  0  0  0  0  0  0  0  0
    3.1807   -2.3673   -0.5156 C   0  0  0  0  0  0  0  0  0  0  0  0
    3.5044   -1.2136   -3.1041 H   0  0  0  0  0  0  0  0  0  0  0  0
    3.0359   -2.8964   -3.3095 H   0  0  0  0  0  0  0  0  0  0  0  0
    4.6494   -2.3764   -3.7682 H   0  0  0  0  0  0  0  0  0  0  0  0
    6.2741   -3.0190   -2.2606 H   0  0  0  0  0  0  0  0  0  0  0  0
    8.0653   -3.7955   -1.4353 H   0  0  0  0  0  0  0  0  0  0  0  0
    8.7322   -2.5390    0.9756 H   0  0  0  0  0  0  0  0  0  0  0  0
    8.0174   -5.7370   -0.3093 H   0  0  0  0  0  0  0  0  0  0  0  0
    8.6359   -4.3095    2.2779 H   0  0  0  0  0  0  0  0  0  0  0  0
    9.7707   -5.1702    1.3072 H   0  0  0  0  0  0  0  0  0  0  0  0
    8.4930   -6.0649    2.1077 H   0  0  0  0  0  0  0  0  0  0  0  0
    5.8631   -5.3173   -0.3165 H   0  0  0  0  0  0  0  0  0  0  0  0
    6.1889   -6.1974    2.0615 H   0  0  0  0  0  0  0  0  0  0  0  0
    6.2969   -4.6727    2.7298 H   0  0  0  0  0  0  0  0  0  0  0  0
    5.1200   -5.3654    4.7355 H   0  0  0  0  0  0  0  0  0  0  0  0
    5.5379   -6.8131    3.9022 H   0  0  0  0  0  0  0  0  0  0  0  0
    3.9913   -6.6752    4.6207 H   0  0  0  0  0  0  0  0  0  0  0  0
    2.1041   -4.6985    2.4129 H   0  0  0  0  0  0  0  0  0  0  0  0
    2.9897   -4.6130    5.1870 H   0  0  0  0  0  0  0  0  0  0  0  0
    2.0186   -6.8457    4.1264 H   0  0  0  0  0  0  0  0  0  0  0  0
    0.5563   -5.9261    3.8770 H   0  0  0  0  0  0  0  0  0  0  0  0
    1.1763   -6.1687    5.4994 H   0  0  0  0  0  0  0  0  0  0  0  0
    0.3465   -3.5032    4.1781 H   0  0  0  0  0  0  0  0  0  0  0  0
    1.6082   -2.5843    5.0401 H   0  0  0  0  0  0  0  0  0  0  0  0
    0.7780   -3.8622    5.8294 H   0  0  0  0  0  0  0  0  0  0  0  0
    1.3961   -1.8101    1.4558 H   0  0  0  0  0  0  0  0  0  0  0  0
    1.4094   -1.6443    3.1822 H   0  0  0  0  0  0  0  0  0  0  0  0
    2.9752    0.0592    1.3398 H   0  0  0  0  0  0  0  0  0  0  0  0
    2.5661    0.2817    2.9899 H   0  0  0  0  0  0  0  0  0  0  0  0
    5.5358   -3.4467    4.1772 H   0  0  0  0  0  0  0  0  0  0  0  0
    4.3026   -2.9183    5.3498 H   0  0  0  0  0  0  0  0  0  0  0  0
    5.5955   -1.8622    4.8738 H   0  0  0  0  0  0  0  0  0  0  0  0
    6.2192   -0.0353    1.8390 H   0  0  0  0  0  0  0  0  0  0  0  0
    5.0659   -3.0033    1.7090 H   0  0  0  0  0  0  0  0  0  0  0  0
    6.7804   -2.7087    2.1029 H   0  0  0  0  0  0  0  0  0  0  0  0
    2.0195   -4.5165    0.1945 H   0  0  0  0  0  0  0  0  0  0  0  0
    3.3360   -4.6062   -0.8842 H   0  0  0  0  0  0  0  0  0  0  0  0
    2.5207   -6.5807    0.1337 H   0  0  0  0  0  0  0  0  0  0  0  0
    4.2004   -6.4638   -0.1328 H   0  0  0  0  0  0  0  0  0  0  0  0
    5.0194   -8.0329    1.6373 H   0  0  0  0  0  0  0  0  0  0  0  0
    3.3648   -8.5252    1.3195 H   0  0  0  0  0  0  0  0  0  0  0  0
    3.8781   -8.3141    2.9701 H   0  0  0  0  0  0  0  0  0  0  0  0
    2.9801   -1.3054   -0.4295 H   0  0  0  0  0  0  0  0  0  0  0  0
    2.2378   -2.6955   -0.9498 H   0  0  0  0  0  0  0  0  0  0  0  0
    2.5934   -6.4977    2.2576 H   0  0  0  0  0  0  0  0  0  0  0  0
  1  2  1  0
  1 33  1  0
  1 34  1  0
  1 35  1  0
  2 32  1  0
  2  3  2  0
  4  3  1  6
  3 36  1  0
  4  9  1  0
  4 26  1  0
  4  5  1  0
  5  6  1  0
  5  7  1  0
  5 37  1  6
  6 38  1  0
  7  8  1  0
  7  9  1  0
  7 39  1  6
  8 40  1  0
  8 41  1  0
  8 42  1  0
  9 10  1  0
  9 43  1  6
 10 11  1  0
 10 44  1  0
 10 45  1  0
 11 30  1  0
 11 12  1  1
 11 13  1  0
 12 46  1  0
 12 47  1  0
 12 48  1  0
 13 14  1  0
 13 17  1  0
 13 49  1  6
 14 15  1  0
 14 16  1  0
 14 50  1  0
 15 51  1  0
 15 52  1  0
 15 53  1  0
 16 54  1  0
 16 55  1  0
 16 56  1  0
 17 21  1  0
 17 27  1  0
 17 18  1  6
 18 19  1  0
 18 57  1  0
 18 58  1  0
 19 20  1  0
 19 59  1  0
 19 60  1  0
 20 21  2  0
 20 23  1  0
 21 22  1  0
 22 61  1  0
 22 62  1  0
 22 63  1  0
 23 26  1  0
 23 24  1  0
 23 64  1  6
 24 25  1  0
 25 26  1  0
 25 27  1  0
 25 65  1  6
 26 66  1  1
 27 28  1  6
 27 32  1  0
 28 29  1  0
 28 67  1  0
 28 68  1  0
 29 30  1  0
 29 69  1  0
 29 70  1  0
 30 31  1  0
 30 76  1  1
 31 71  1  0
 31 72  1  0
 31 73  1  0
 32 74  1  0
 32 75  1  0
M  CHG  1  30   1
M  END
>  <i_m_ct_stereo_status>  (359) 
1

>  <s_m_source_file>  (359) 
/var/tmp/pbs.5076255.sched01/tmpcwktr4ti/1290j0z1rin.sdf

>  <i_m_source_file_index>  (359) 
33

>  <i_lp_mmshare_version>  (359) 
48012

>  <i_f3d_flags>  (359) 
1

>  <s_epik_input>  (359) 
W0NIMl0xW0NIMl1DKD1DMltDSDNdKVtDQEhdKE8zKVtDQEhdNFtDQEBIXTNbQ0BAXShbQ0gyXUMoW0NIM10pPVtDSF01KShbQ0gyXVtDSDJdTjZbQ0gzXSlDMTJbQ0BIXShbQ0hdKFtDSDNdKVtDSDNdKVtDQF02KFtDSDNdKVtDSDJdW0NAQEhdKFtDQF00NTcpW0NASF0oW0NIM10pW0NAQEhdN1tPSF0=

>  <s_epik_cmdline>  (359) 
J2VwaWtfcHl0aG9uJywgJy1waHQnLCAnMi4wJywgJy1waCcsICc3LjAnLCAnLXRuJywgJzgnLCAnLW1hJywgJzIwMCcsICctaW1hZScsICc8aW5maWxlLm1hZT4nLCAnLW9tYWUnLCAnPG91dGZpbGUubWFlPic=

>  <r_epik_Ionization_Penalty>  (359) 
0.000992713

>  <r_epik_Ionization_Penalty_Charging>  (359) 
0.000992561

>  <r_epik_Ionization_Penalty_Neutral>  (359) 
1.52206e-07

>  <r_epik_State_Penalty>  (359) 
0.000646694

>  <r_epik_Charging_Adjusted_Penalty>  (359) 
0.00163925

>  <i_epik_Tot_Q>  (359) 
1

>  <i_epik_Tot_abs_Q>  (359) 
1

>  <s_lp_Force_Field>  (359) 
OPLS3e

>  <r_lp_Energy>  (359) 
506.067

>  <b_lp_Chiralities_Consistent>  (359) 
1

>  <s_lp_Variant>  (359) 
109:0-2

>  <s_i_glide_gridfile>  (359) 
pfpi4k_grid

>  <i_i_glide_lignum>  (359) 
33

>  <i_i_glide_rotatable_bonds>  (359) 
2

>  <r_i_docking_score>  (359) 
-2.84192

>  <r_i_glide_ligand_efficiency>  (359) 
-0.08881

>  <r_i_glide_ligand_efficiency_sa>  (359) 
-0.281954

>  <r_i_glide_ligand_efficiency_ln>  (359) 
-0.636383

>  <r_i_glide_gscore>  (359) 
-2.84192

>  <r_i_glide_lipo>  (359) 
-1.03996

>  <r_i_glide_hbond>  (359) 
0

>  <r_i_glide_metal>  (359) 
-0

>  <r_i_glide_rewards>  (359) 
-0.418192

>  <r_i_glide_evdw>  (359) 
-23.0748

>  <r_i_glide_ecoul>  (359) 
-1.53353

>  <r_i_glide_erotb>  (359) 
0

>  <r_i_glide_esite>  (359) 
0

>  <r_i_glide_emodel>  (359) 
-29.2094

>  <r_i_glide_energy>  (359) 
-24.6083

>  <r_i_glide_einternal>  (359) 
0.00341216

>  <r_i_glide_intrahb_reward>  (359) 
-0

>  <i_i_glide_confnum>  (359) 
2

>  <i_i_glide_posenum>  (359) 
39

>  <r_i_glide_eff_state_penalty>  (359) 
0

>  <ligand_id>  (359) 
109

>  <original_smiles>  (359) 
CC1=CC23C(O)C(C)C2CC2(C)C(C(C)C)C45CCC(=C4C)C4OC(C43)C5(CCN2C)C1

>  <smiles>  (359) 
[H]OC1([H])C([H])(C([H])([H])[H])C2([H])C([H])([H])C3(C([H])([H])[H])C([H])(C([H])(C([H])([H])[H])C([H])([H])[H])C45C(C([H])([H])[H])=C(C([H])([H])C4([H])[H])C4([H])OC6([H])C4([H])C12C([H])=C(C([H])([H])[H])C([H])([H])C65C([H])([H])C([H])([H])[N+]3([H])C([H])([H])[H]

$$$$
110:0:0
     RDKit          3D

 36 38  0  0  1  0  0  0  0  0999 V2000
    8.0283   -2.8144    0.2382 C   0  0  0  0  0  0  0  0  0  0  0  0
    6.8979   -1.8220    0.5043 C   0  0  0  0  0  0  0  0  0  0  0  0
    6.2130   -1.6685    1.6370 C   0  0  0  0  0  0  0  0  0  0  0  0
    5.2393   -2.7775    1.9368 C   0  0  0  0  0  0  0  0  0  0  0  0
    4.6714   -2.9837    0.5216 C   0  0  2  0  0  0  0  0  0  0  0  0
    3.1405   -2.7049    0.5158 C   0  0  0  0  0  0  0  0  0  0  0  0
    4.9969   -4.3492   -0.1304 C   0  0  1  0  0  0  0  0  0  0  0  0
    4.2455   -5.5417    0.4802 C   0  0  0  0  0  0  0  0  0  0  0  0
    4.7919   -4.2517   -1.6469 C   0  0  0  0  0  0  0  0  0  0  0  0
    5.6225   -3.1672   -2.3252 C   0  0  0  0  0  0  0  0  0  0  0  0
    5.4642   -1.8021   -1.6592 C   0  0  1  0  0  0  0  0  0  0  0  0
    4.3059   -0.9788   -2.2233 C   0  0  0  0  0  0  0  0  0  0  0  0
    5.4860   -1.8694   -0.1279 C   0  0  2  0  0  0  0  0  0  0  0  0
    5.4655   -0.6200    0.7910 C   0  0  0  0  0  0  0  0  0  0  0  0
    8.9131   -2.2471   -0.0920 H   0  0  0  0  0  0  0  0  0  0  0  0
    7.8141   -3.5458   -0.5355 H   0  0  0  0  0  0  0  0  0  0  0  0
    8.3108   -3.3269    1.1558 H   0  0  0  0  0  0  0  0  0  0  0  0
    5.7051   -3.6694    2.3550 H   0  0  0  0  0  0  0  0  0  0  0  0
    4.4745   -2.4188    2.6225 H   0  0  0  0  0  0  0  0  0  0  0  0
    2.6920   -2.7844   -0.4712 H   0  0  0  0  0  0  0  0  0  0  0  0
    2.8877   -1.7021    0.8602 H   0  0  0  0  0  0  0  0  0  0  0  0
    2.5963   -3.3898    1.1641 H   0  0  0  0  0  0  0  0  0  0  0  0
    6.0435   -4.5770    0.0447 H   0  0  0  0  0  0  0  0  0  0  0  0
    3.1701   -5.5065    0.3060 H   0  0  0  0  0  0  0  0  0  0  0  0
    4.4251   -5.6173    1.5543 H   0  0  0  0  0  0  0  0  0  0  0  0
    4.6113   -6.4676    0.0299 H   0  0  0  0  0  0  0  0  0  0  0  0
    5.0326   -5.2088   -2.1087 H   0  0  0  0  0  0  0  0  0  0  0  0
    3.7429   -4.0607   -1.8713 H   0  0  0  0  0  0  0  0  0  0  0  0
    6.6656   -3.4558   -2.3275 H   0  0  0  0  0  0  0  0  0  0  0  0
    5.3292   -3.0987   -3.3717 H   0  0  0  0  0  0  0  0  0  0  0  0
    6.3249   -1.2404   -1.9764 H   0  0  0  0  0  0  0  0  0  0  0  0
    3.3276   -1.4458   -2.0924 H   0  0  0  0  0  0  0  0  0  0  0  0
    4.4511   -0.8015   -3.2909 H   0  0  0  0  0  0  0  0  0  0  0  0
    4.3017    0.0060   -1.7494 H   0  0  0  0  0  0  0  0  0  0  0  0
    4.4780   -0.3082    1.1205 H   0  0  0  0  0  0  0  0  0  0  0  0
    6.0196    0.2597    0.4287 H   0  0  0  0  0  0  0  0  0  0  0  0
  1  2  1  0
  1 15  1  0
  1 16  1  0
  1 17  1  0
  2 13  1  0
  2  3  2  0
  3 14  1  0
  3  4  1  0
  4  5  1  0
  4 18  1  0
  4 19  1  0
  5 13  1  0
  5  6  1  1
  5  7  1  0
  6 20  1  0
  6 21  1  0
  6 22  1  0
  7  8  1  0
  7  9  1  0
  7 23  1  6
  8 24  1  0
  8 25  1  0
  8 26  1  0
  9 10  1  0
  9 27  1  0
  9 28  1  0
 10 11  1  0
 10 29  1  0
 10 30  1  0
 11 12  1  0
 11 13  1  0
 11 31  1  6
 12 32  1  0
 12 33  1  0
 12 34  1  0
 13 14  1  1
 14 35  1  0
 14 36  1  0
M  END
>  <i_m_ct_stereo_status>  (360) 
1

>  <s_m_source_file>  (360) 
/var/tmp/pbs.5076255.sched01/tmpcwktr4ti/1290j0z1rin.sdf

>  <i_m_source_file_index>  (360) 
34

>  <i_lp_mmshare_version>  (360) 
48012

>  <i_f3d_flags>  (360) 
0

>  <s_epik_input>  (360) 
W0NIM11DMT1DKFtDSDJdMilbQ0gyXVtDQF0oW0NAXTEyMykoW0NIM10pW0NAQEhdKFtDSDNdKVtDSDJdW0NIMl1bQ0BIXTNbQ0gzXQ==

>  <s_epik_cmdline>  (360) 
J2VwaWtfcHl0aG9uJywgJy1waHQnLCAnMi4wJywgJy1waCcsICc3LjAnLCAnLXRuJywgJzgnLCAnLW1hJywgJzIwMCcsICctaW1hZScsICc8aW5maWxlLm1hZT4nLCAnLW9tYWUnLCAnPG91dGZpbGUubWFlPic=

>  <r_lp_tautomer_probability>  (360) 
1

>  <r_epik_Ionization_Penalty>  (360) 
0

>  <r_epik_Ionization_Penalty_Charging>  (360) 
0

>  <r_epik_Ionization_Penalty_Neutral>  (360) 
0

>  <r_epik_State_Penalty>  (360) 
-0

>  <r_epik_Charging_Adjusted_Penalty>  (360) 
0

>  <i_epik_Tot_Q>  (360) 
0

>  <i_epik_Tot_abs_Q>  (360) 
0

>  <s_lp_Force_Field>  (360) 
OPLS3e

>  <r_lp_Energy>  (360) 
67.0644

>  <b_lp_Chiralities_Consistent>  (360) 
1

>  <s_lp_Variant>  (360) 
110:0-1

>  <s_i_glide_gridfile>  (360) 
pfpi4k_grid

>  <i_i_glide_lignum>  (360) 
34

>  <i_i_glide_rotatable_bonds>  (360) 
0

>  <r_i_docking_score>  (360) 
-3.92955

>  <r_i_glide_ligand_efficiency>  (360) 
-0.280682

>  <r_i_glide_ligand_efficiency_sa>  (360) 
-0.676483

>  <r_i_glide_ligand_efficiency_ln>  (360) 
-1.07983

>  <r_i_glide_gscore>  (360) 
-3.92955

>  <r_i_glide_lipo>  (360) 
-0.869647

>  <r_i_glide_hbond>  (360) 
0

>  <r_i_glide_metal>  (360) 
-0

>  <r_i_glide_rewards>  (360) 
-2.11142

>  <r_i_glide_evdw>  (360) 
-17.9952

>  <r_i_glide_ecoul>  (360) 
-0.324786

>  <r_i_glide_erotb>  (360) 
0

>  <r_i_glide_esite>  (360) 
0

>  <r_i_glide_emodel>  (360) 
-22.8542

>  <r_i_glide_energy>  (360) 
-18.32

>  <r_i_glide_einternal>  (360) 
0

>  <r_i_glide_intrahb_reward>  (360) 
-0

>  <i_i_glide_confnum>  (360) 
1

>  <i_i_glide_posenum>  (360) 
6

>  <r_i_glide_eff_state_penalty>  (360) 
0

>  <ligand_id>  (360) 
110

>  <original_smiles>  (360) 
CC1=C2CC3(C)C(C)CCC(C)C13C2

>  <smiles>  (360) 
[H]C([H])([H])C1=C2C([H])([H])C13C([H])(C([H])([H])[H])C([H])([H])C([H])([H])C([H])(C([H])([H])[H])C3(C([H])([H])[H])C2([H])[H]

$$$$
110:0:1
     RDKit          3D

 36 38  0  0  1  0  0  0  0  0999 V2000
    7.8238   -3.4239    0.0854 C   0  0  0  0  0  0  0  0  0  0  0  0
    6.6441   -3.8612    0.9666 C   0  0  0  0  0  0  0  0  0  0  0  0
    5.9075   -4.9452    0.8254 C   0  0  0  0  0  0  0  0  0  0  0  0
    4.9241   -4.9218   -0.3194 C   0  0  0  0  0  0  0  0  0  0  0  0
    4.4460   -3.4633   -0.2061 C   0  0  2  0  0  0  0  0  0  0  0  0
    2.9109   -3.4527    0.0351 C   0  0  0  0  0  0  0  0  0  0  0  0
    4.8362   -2.5234   -1.3780 C   0  0  1  0  0  0  0  0  0  0  0  0
    4.1081   -2.8049   -2.7052 C   0  0  0  0  0  0  0  0  0  0  0  0
    4.6880   -1.0565   -0.9441 C   0  0  0  0  0  0  0  0  0  0  0  0
    5.5143   -0.7136    0.3121 C   0  0  0  0  0  0  0  0  0  0  0  0
    5.3302   -1.6787    1.4948 C   0  0  1  0  0  0  0  0  0  0  0  0
    4.1438   -1.2739    2.3964 C   0  0  0  0  0  0  0  0  0  0  0  0
    5.2691   -3.1421    1.0492 C   0  0  2  0  0  0  0  0  0  0  0  0
    5.1702   -4.3399    2.0468 C   0  0  0  0  0  0  0  0  0  0  0  0
    8.6832   -3.2694    0.7501 H   0  0  0  0  0  0  0  0  0  0  0  0
    7.6689   -2.4937   -0.4501 H   0  0  0  0  0  0  0  0  0  0  0  0
    8.1034   -4.2077   -0.6171 H   0  0  0  0  0  0  0  0  0  0  0  0
    5.3760   -5.1332   -1.2865 H   0  0  0  0  0  0  0  0  0  0  0  0
    4.1222   -5.6406   -0.1553 H   0  0  0  0  0  0  0  0  0  0  0  0
    2.5149   -2.4501    0.1691 H   0  0  0  0  0  0  0  0  0  0  0  0
    2.6111   -4.0151    0.9161 H   0  0  0  0  0  0  0  0  0  0  0  0
    2.3692   -3.8890   -0.8024 H   0  0  0  0  0  0  0  0  0  0  0  0
    5.8826   -2.6914   -1.6118 H   0  0  0  0  0  0  0  0  0  0  0  0
    3.0401   -2.5937   -2.6543 H   0  0  0  0  0  0  0  0  0  0  0  0
    4.2393   -3.8385   -3.0231 H   0  0  0  0  0  0  0  0  0  0  0  0
    4.5231   -2.1727   -3.4934 H   0  0  0  0  0  0  0  0  0  0  0  0
    4.9844   -0.3958   -1.7553 H   0  0  0  0  0  0  0  0  0  0  0  0
    3.6410   -0.8201   -0.7538 H   0  0  0  0  0  0  0  0  0  0  0  0
    6.5645   -0.6949    0.0460 H   0  0  0  0  0  0  0  0  0  0  0  0
    5.2769    0.3014    0.6270 H   0  0  0  0  0  0  0  0  0  0  0  0
    6.2030   -1.5427    2.1413 H   0  0  0  0  0  0  0  0  0  0  0  0
    3.2015   -1.2179    1.8525 H   0  0  0  0  0  0  0  0  0  0  0  0
    4.3186   -0.2866    2.8274 H   0  0  0  0  0  0  0  0  0  0  0  0
    4.0148   -1.9683    3.2289 H   0  0  0  0  0  0  0  0  0  0  0  0
    4.1547   -4.6665    2.2450 H   0  0  0  0  0  0  0  0  0  0  0  0
    5.6922   -4.1921    2.9991 H   0  0  0  0  0  0  0  0  0  0  0  0
  1  2  1  0
  1 15  1  0
  1 16  1  0
  1 17  1  0
  2 13  1  0
  2  3  2  0
  3 14  1  0
  3  4  1  0
  4  5  1  0
  4 18  1  0
  4 19  1  0
  5 13  1  0
  5  6  1  1
  5  7  1  0
  6 20  1  0
  6 21  1  0
  6 22  1  0
  7  8  1  0
  7  9  1  0
  7 23  1  6
  8 24  1  0
  8 25  1  0
  8 26  1  0
  9 10  1  0
  9 27  1  0
  9 28  1  0
 10 11  1  0
 10 29  1  0
 10 30  1  0
 11 12  1  0
 11 13  1  0
 11 31  1  1
 12 32  1  0
 12 33  1  0
 12 34  1  0
 13 14  1  1
 14 35  1  0
 14 36  1  0
M  END
>  <i_m_ct_stereo_status>  (361) 
1

>  <s_m_source_file>  (361) 
/var/tmp/pbs.5076255.sched01/tmpcwktr4ti/1290j0z1rin.sdf

>  <i_m_source_file_index>  (361) 
34

>  <i_lp_mmshare_version>  (361) 
48012

>  <i_f3d_flags>  (361) 
0

>  <s_epik_input>  (361) 
W0NIM11DMT1DKFtDSDJdMilbQ0gyXVtDQF0oW0NAXTEyMykoW0NIM10pW0NAQEhdKFtDSDNdKVtDSDJdW0NIMl1bQ0BIXTNbQ0gzXQ==

>  <s_epik_cmdline>  (361) 
J2VwaWtfcHl0aG9uJywgJy1waHQnLCAnMi4wJywgJy1waCcsICc3LjAnLCAnLXRuJywgJzgnLCAnLW1hJywgJzIwMCcsICctaW1hZScsICc8aW5maWxlLm1hZT4nLCAnLW9tYWUnLCAnPG91dGZpbGUubWFlPic=

>  <r_lp_tautomer_probability>  (361) 
1

>  <r_epik_Ionization_Penalty>  (361) 
0

>  <r_epik_Ionization_Penalty_Charging>  (361) 
0

>  <r_epik_Ionization_Penalty_Neutral>  (361) 
0

>  <r_epik_State_Penalty>  (361) 
-0

>  <r_epik_Charging_Adjusted_Penalty>  (361) 
0

>  <i_epik_Tot_Q>  (361) 
0

>  <i_epik_Tot_abs_Q>  (361) 
0

>  <s_lp_Force_Field>  (361) 
OPLS3e

>  <r_lp_Energy>  (361) 
67.0644

>  <b_lp_Chiralities_Consistent>  (361) 
1

>  <s_lp_Variant>  (361) 
110:0-1

>  <s_i_glide_gridfile>  (361) 
pfpi4k_grid

>  <i_i_glide_lignum>  (361) 
34

>  <i_i_glide_rotatable_bonds>  (361) 
0

>  <r_i_docking_score>  (361) 
-3.88421

>  <r_i_glide_ligand_efficiency>  (361) 
-0.277443

>  <r_i_glide_ligand_efficiency_sa>  (361) 
-0.668678

>  <r_i_glide_ligand_efficiency_ln>  (361) 
-1.06737

>  <r_i_glide_gscore>  (361) 
-3.88421

>  <r_i_glide_lipo>  (361) 
-0.751441

>  <r_i_glide_hbond>  (361) 
0

>  <r_i_glide_metal>  (361) 
-0

>  <r_i_glide_rewards>  (361) 
-2.11142

>  <r_i_glide_evdw>  (361) 
-19.7341

>  <r_i_glide_ecoul>  (361) 
-0.2309

>  <r_i_glide_erotb>  (361) 
0

>  <r_i_glide_esite>  (361) 
0

>  <r_i_glide_emodel>  (361) 
-24.4923

>  <r_i_glide_energy>  (361) 
-19.965

>  <r_i_glide_einternal>  (361) 
0

>  <r_i_glide_intrahb_reward>  (361) 
-0

>  <i_i_glide_confnum>  (361) 
1

>  <i_i_glide_posenum>  (361) 
1

>  <r_i_glide_eff_state_penalty>  (361) 
0

>  <ligand_id>  (361) 
110

>  <original_smiles>  (361) 
CC1=C2CC3(C)C(C)CCC(C)C13C2

>  <smiles>  (361) 
[H]C([H])([H])C1=C2C([H])([H])C13C([H])(C([H])([H])[H])C([H])([H])C([H])([H])C([H])(C([H])([H])[H])C3(C([H])([H])[H])C2([H])[H]

$$$$
110:0:2
     RDKit          3D

 36 38  0  0  1  0  0  0  0  0999 V2000
    2.9959   -1.1579    1.7872 C   0  0  0  0  0  0  0  0  0  0  0  0
    4.2713   -1.9685    1.7563 C   0  0  0  0  0  0  0  0  0  0  0  0
    5.5187   -1.5206    1.5929 C   0  0  0  0  0  0  0  0  0  0  0  0
    5.8093   -1.0558    0.1763 C   0  0  0  0  0  0  0  0  0  0  0  0
    5.1228   -2.1794   -0.6089 C   0  0  2  0  0  0  0  0  0  0  0  0
    6.1777   -2.9340   -1.4823 C   0  0  0  0  0  0  0  0  0  0  0  0
    3.8989   -1.7609   -1.4703 C   0  0  1  0  0  0  0  0  0  0  0  0
    4.2272   -0.9207   -2.7166 C   0  0  0  0  0  0  0  0  0  0  0  0
    3.0517   -2.9969   -1.8325 C   0  0  0  0  0  0  0  0  0  0  0  0
    2.5981   -3.7701   -0.5861 C   0  0  0  0  0  0  0  0  0  0  0  0
    3.7162   -4.1286    0.4251 C   0  0  1  0  0  0  0  0  0  0  0  0
    4.4262   -5.4444    0.0810 C   0  0  0  0  0  0  0  0  0  0  0  0
    4.6842   -2.9620    0.6492 C   0  0  2  0  0  0  0  0  0  0  0  0
    5.8577   -3.0222    1.6540 C   0  0  0  0  0  0  0  0  0  0  0  0
    2.4762   -1.3750    2.7184 H   0  0  0  0  0  0  0  0  0  0  0  0
    2.3026   -1.3909    0.9823 H   0  0  0  0  0  0  0  0  0  0  0  0
    3.2168   -0.0926    1.7915 H   0  0  0  0  0  0  0  0  0  0  0  0
    5.4092   -0.0593   -0.0336 H   0  0  0  0  0  0  0  0  0  0  0  0
    6.8861   -1.0515    0.0344 H   0  0  0  0  0  0  0  0  0  0  0  0
    5.7534   -3.7726   -2.0267 H   0  0  0  0  0  0  0  0  0  0  0  0
    6.9955   -3.3428   -0.9009 H   0  0  0  0  0  0  0  0  0  0  0  0
    6.6328   -2.2853   -2.2333 H   0  0  0  0  0  0  0  0  0  0  0  0
    3.2733   -1.1030   -0.8789 H   0  0  0  0  0  0  0  0  0  0  0  0
    4.7879   -1.4795   -3.4646 H   0  0  0  0  0  0  0  0  0  0  0  0
    4.7949   -0.0340   -2.4409 H   0  0  0  0  0  0  0  0  0  0  0  0
    3.3060   -0.5781   -3.1769 H   0  0  0  0  0  0  0  0  0  0  0  0
    2.1702   -2.6902   -2.3975 H   0  0  0  0  0  0  0  0  0  0  0  0
    3.6050   -3.6742   -2.4849 H   0  0  0  0  0  0  0  0  0  0  0  0
    1.8416   -3.1715   -0.0849 H   0  0  0  0  0  0  0  0  0  0  0  0
    2.0901   -4.6774   -0.9032 H   0  0  0  0  0  0  0  0  0  0  0  0
    3.2052   -4.3381    1.3640 H   0  0  0  0  0  0  0  0  0  0  0  0
    4.8591   -5.4420   -0.9182 H   0  0  0  0  0  0  0  0  0  0  0  0
    3.7137   -6.2663    0.1187 H   0  0  0  0  0  0  0  0  0  0  0  0
    5.2159   -5.6757    0.7987 H   0  0  0  0  0  0  0  0  0  0  0  0
    6.8160   -3.3268    1.2387 H   0  0  0  0  0  0  0  0  0  0  0  0
    5.6598   -3.5800    2.5718 H   0  0  0  0  0  0  0  0  0  0  0  0
  1  2  1  0
  1 15  1  0
  1 16  1  0
  1 17  1  0
  2 13  1  0
  2  3  2  0
  3 14  1  0
  3  4  1  0
  4  5  1  0
  4 18  1  0
  4 19  1  0
  5 13  1  0
  5  6  1  6
  5  7  1  0
  6 20  1  0
  6 21  1  0
  6 22  1  0
  7  8  1  0
  7  9  1  0
  7 23  1  1
  8 24  1  0
  8 25  1  0
  8 26  1  0
  9 10  1  0
  9 27  1  0
  9 28  1  0
 10 11  1  0
 10 29  1  0
 10 30  1  0
 11 12  1  0
 11 13  1  0
 11 31  1  1
 12 32  1  0
 12 33  1  0
 12 34  1  0
 13 14  1  1
 14 35  1  0
 14 36  1  0
M  END
>  <i_m_ct_stereo_status>  (362) 
1

>  <s_m_source_file>  (362) 
/var/tmp/pbs.5076255.sched01/tmpcwktr4ti/1290j0z1rin.sdf

>  <i_m_source_file_index>  (362) 
34

>  <i_lp_mmshare_version>  (362) 
48012

>  <i_f3d_flags>  (362) 
0

>  <s_epik_input>  (362) 
W0NIM11DMT1DKFtDSDJdMilbQ0gyXVtDQF0oW0NAXTEyMykoW0NIM10pW0NAQEhdKFtDSDNdKVtDSDJdW0NIMl1bQ0BIXTNbQ0gzXQ==

>  <s_epik_cmdline>  (362) 
J2VwaWtfcHl0aG9uJywgJy1waHQnLCAnMi4wJywgJy1waCcsICc3LjAnLCAnLXRuJywgJzgnLCAnLW1hJywgJzIwMCcsICctaW1hZScsICc8aW5maWxlLm1hZT4nLCAnLW9tYWUnLCAnPG91dGZpbGUubWFlPic=

>  <r_lp_tautomer_probability>  (362) 
1

>  <r_epik_Ionization_Penalty>  (362) 
0

>  <r_epik_Ionization_Penalty_Charging>  (362) 
0

>  <r_epik_Ionization_Penalty_Neutral>  (362) 
0

>  <r_epik_State_Penalty>  (362) 
-0

>  <r_epik_Charging_Adjusted_Penalty>  (362) 
0

>  <i_epik_Tot_Q>  (362) 
0

>  <i_epik_Tot_abs_Q>  (362) 
0

>  <s_lp_Force_Field>  (362) 
OPLS3e

>  <r_lp_Energy>  (362) 
67.0644

>  <b_lp_Chiralities_Consistent>  (362) 
1

>  <s_lp_Variant>  (362) 
110:0-1

>  <s_i_glide_gridfile>  (362) 
pfpi4k_grid

>  <i_i_glide_lignum>  (362) 
34

>  <i_i_glide_rotatable_bonds>  (362) 
0

>  <r_i_docking_score>  (362) 
-3.51236

>  <r_i_glide_ligand_efficiency>  (362) 
-0.250883

>  <r_i_glide_ligand_efficiency_sa>  (362) 
-0.604663

>  <r_i_glide_ligand_efficiency_ln>  (362) 
-0.965183

>  <r_i_glide_gscore>  (362) 
-3.51236

>  <r_i_glide_lipo>  (362) 
-0.317028

>  <r_i_glide_hbond>  (362) 
0

>  <r_i_glide_metal>  (362) 
-0

>  <r_i_glide_rewards>  (362) 
-2.11142

>  <r_i_glide_evdw>  (362) 
-20.8403

>  <r_i_glide_ecoul>  (362) 
-0.279253

>  <r_i_glide_erotb>  (362) 
0

>  <r_i_glide_esite>  (362) 
0

>  <r_i_glide_emodel>  (362) 
-25.2237

>  <r_i_glide_energy>  (362) 
-21.1196

>  <r_i_glide_einternal>  (362) 
0

>  <r_i_glide_intrahb_reward>  (362) 
-0

>  <i_i_glide_confnum>  (362) 
2

>  <i_i_glide_posenum>  (362) 
8

>  <r_i_glide_eff_state_penalty>  (362) 
0

>  <ligand_id>  (362) 
110

>  <original_smiles>  (362) 
CC1=C2CC3(C)C(C)CCC(C)C13C2

>  <smiles>  (362) 
[H]C([H])([H])C1=C2C([H])([H])C13C([H])(C([H])([H])[H])C([H])([H])C([H])([H])C([H])(C([H])([H])[H])C3(C([H])([H])[H])C2([H])[H]

$$$$
111:0:0
     RDKit          3D

 25 27  0  0  1  0  0  0  0  0999 V2000
    7.6607   -6.4524    2.0740 C   0  0  0  0  0  0  0  0  0  0  0  0
    6.8908   -5.6282    1.1717 N   0  0  0  0  0  0  0  0  0  0  0  0
    5.5989   -5.9873    0.9572 N   0  0  0  0  0  0  0  0  0  0  0  0
    5.1165   -5.1009    0.1292 C   0  0  0  0  0  0  0  0  0  0  0  0
    6.1053   -4.1088   -0.2335 C   0  0  0  0  0  0  0  0  0  0  0  0
    6.2283   -2.9455   -1.0281 C   0  0  0  0  0  0  0  0  0  0  0  0
    5.2139   -2.4044   -1.8226 N   0  0  0  0  0  0  0  0  0  0  0  0
    4.2388   -3.2906   -2.4499 C   0  0  0  0  0  0  0  0  0  0  0  0
    4.5089   -3.8381   -3.8304 C   0  0  0  0  0  0  0  0  0  0  0  0
    3.4078   -2.8269   -3.6138 C   0  0  0  0  0  0  0  0  0  0  0  0
    7.4083   -2.2750   -1.0073 N   0  0  0  0  0  0  0  0  0  0  0  0
    8.4364   -2.7700   -0.3083 C   0  0  0  0  0  0  0  0  0  0  0  0
    8.4826   -3.8567    0.4540 N   0  0  0  0  0  0  0  0  0  0  0  0
    7.2653   -4.4905    0.4792 C   0  0  0  0  0  0  0  0  0  0  0  0
    8.5298   -6.8491    1.5409 H   0  0  0  0  0  0  0  0  0  0  0  0
    7.0422   -7.2834    2.4280 H   0  0  0  0  0  0  0  0  0  0  0  0
    7.9780   -5.8488    2.9291 H   0  0  0  0  0  0  0  0  0  0  0  0
    4.0888   -5.2024   -0.1524 H   0  0  0  0  0  0  0  0  0  0  0  0
    3.6789   -3.8851   -1.7352 H   0  0  0  0  0  0  0  0  0  0  0  0
    5.4254   -3.5213   -4.3107 H   0  0  0  0  0  0  0  0  0  0  0  0
    4.2200   -4.8677   -4.0278 H   0  0  0  0  0  0  0  0  0  0  0  0
    2.3825   -3.1962   -3.6227 H   0  0  0  0  0  0  0  0  0  0  0  0
    3.5426   -1.7932   -3.9262 H   0  0  0  0  0  0  0  0  0  0  0  0
    9.3591   -2.2190   -0.3645 H   0  0  0  0  0  0  0  0  0  0  0  0
    4.9906   -1.4209   -1.7297 H   0  0  0  0  0  0  0  0  0  0  0  0
  1  2  1  0
  1 15  1  0
  1 16  1  0
  1 17  1  0
  2 14  1  0
  2  3  1  0
  3  4  2  0
  4  5  1  0
  4 18  1  0
  5 14  2  0
  5  6  1  0
  6  7  1  0
  6 11  2  0
  7  8  1  0
  7 25  1  0
  8 10  1  0
  8  9  1  0
  8 19  1  0
  9 10  1  0
  9 20  1  0
  9 21  1  0
 10 22  1  0
 10 23  1  0
 11 12  1  0
 12 13  2  0
 12 24  1  0
 13 14  1  0
M  END
>  <i_m_ct_stereo_status>  (363) 
1

>  <s_m_source_file>  (363) 
/var/tmp/pbs.5076255.sched01/tmpcwktr4ti/1290j0z1rin.sdf

>  <i_m_source_file_index>  (363) 
35

>  <i_lp_mmshare_version>  (363) 
48012

>  <i_f3d_flags>  (363) 
0

>  <s_epik_input>  (363) 
W2NIXTFubihbQ0gzXSljKGMxMilbbkhdW2NIXW5jXDI9Ti9bQ0hdM1tDSDJdW0NIMl0z

>  <s_epik_cmdline>  (363) 
J2VwaWtfcHl0aG9uJywgJy1waHQnLCAnMi4wJywgJy1waCcsICc3LjAnLCAnLXRuJywgJzgnLCAnLW1hJywgJzIwMCcsICctaW1hZScsICc8aW5maWxlLm1hZT4nLCAnLW9tYWUnLCAnPG91dGZpbGUubWFlPic=

>  <r_epik_Ionization_Penalty>  (363) 
0.00729279

>  <r_epik_Ionization_Penalty_Charging>  (363) 
0

>  <r_epik_Ionization_Penalty_Neutral>  (363) 
0.00729279

>  <r_epik_State_Penalty>  (363) 
0.00533757

>  <r_epik_Charging_Adjusted_Penalty>  (363) 
0.00533757

>  <i_epik_Tot_Q>  (363) 
0

>  <i_epik_Tot_abs_Q>  (363) 
0

>  <s_lp_Force_Field>  (363) 
OPLS3e

>  <r_lp_Energy>  (363) 
8.49322

>  <b_lp_Chiralities_Consistent>  (363) 
1

>  <s_lp_Variant>  (363) 
111:0-1

>  <s_i_glide_gridfile>  (363) 
pfpi4k_grid

>  <i_i_glide_lignum>  (363) 
35

>  <i_i_glide_rotatable_bonds>  (363) 
2

>  <r_i_docking_score>  (363) 
-3.89056

>  <r_i_glide_ligand_efficiency>  (363) 
-0.277897

>  <r_i_glide_ligand_efficiency_sa>  (363) 
-0.669772

>  <r_i_glide_ligand_efficiency_ln>  (363) 
-1.06911

>  <r_i_glide_gscore>  (363) 
-3.89056

>  <r_i_glide_lipo>  (363) 
-0.360978

>  <r_i_glide_hbond>  (363) 
-0.16

>  <r_i_glide_metal>  (363) 
-0

>  <r_i_glide_rewards>  (363) 
-2.43832

>  <r_i_glide_evdw>  (363) 
-19.6253

>  <r_i_glide_ecoul>  (363) 
-5.47204

>  <r_i_glide_erotb>  (363) 
0.895389

>  <r_i_glide_esite>  (363) 
-0.0245869

>  <r_i_glide_emodel>  (363) 
-26.8507

>  <r_i_glide_energy>  (363) 
-25.0973

>  <r_i_glide_einternal>  (363) 
5.18437

>  <r_i_glide_intrahb_reward>  (363) 
-0

>  <i_i_glide_confnum>  (363) 
6

>  <i_i_glide_posenum>  (363) 
4

>  <r_i_glide_eff_state_penalty>  (363) 
0

>  <ligand_id>  (363) 
111

>  <original_smiles>  (363) 
Cn1ncc2c(=NC3CC3)nc[nH]c21

>  <smiles>  (363) 
[H]c1nc(N([H])C2([H])C([H])([H])C2([H])[H])c2c([H])nn(C([H])([H])[H])c2n1

$$$$
111:0:1
     RDKit          3D

 25 27  0  0  1  0  0  0  0  0999 V2000
    5.9746   -3.3788    2.0801 C   0  0  0  0  0  0  0  0  0  0  0  0
    5.1391   -2.7267    1.1068 N   0  0  0  0  0  0  0  0  0  0  0  0
    4.0900   -1.9764    1.5332 N   0  0  0  0  0  0  0  0  0  0  0  0
    3.5080   -1.5158    0.4518 C   0  0  0  0  0  0  0  0  0  0  0  0
    4.1828   -1.9611   -0.7273 C   0  0  0  0  0  0  0  0  0  0  0  0
    4.0651   -1.8370   -2.1255 C   0  0  0  0  0  0  0  0  0  0  0  0
    3.0587   -1.0467   -2.6933 N   0  0  0  0  0  0  0  0  0  0  0  0
    2.8074   -1.1093   -4.1192 C   0  0  0  0  0  0  0  0  0  0  0  0
    3.6018   -0.2551   -5.0927 C   0  0  0  0  0  0  0  0  0  0  0  0
    2.1593    0.0636   -4.8074 C   0  0  0  0  0  0  0  0  0  0  0  0
    4.9805   -2.4614   -2.9071 N   0  0  0  0  0  0  0  0  0  0  0  0
    5.9564   -3.1659   -2.3344 C   0  0  0  0  0  0  0  0  0  0  0  0
    6.2036   -3.3580   -1.0388 N   0  0  0  0  0  0  0  0  0  0  0  0
    5.2659   -2.7417   -0.2703 C   0  0  0  0  0  0  0  0  0  0  0  0
    5.9603   -4.4581    1.9167 H   0  0  0  0  0  0  0  0  0  0  0  0
    5.6098   -3.1465    3.0838 H   0  0  0  0  0  0  0  0  0  0  0  0
    6.9895   -3.0076    1.9479 H   0  0  0  0  0  0  0  0  0  0  0  0
    2.6299   -0.8970    0.5300 H   0  0  0  0  0  0  0  0  0  0  0  0
    2.4747   -2.1059   -4.4035 H   0  0  0  0  0  0  0  0  0  0  0  0
    4.3468    0.4229   -4.6787 H   0  0  0  0  0  0  0  0  0  0  0  0
    3.8077   -0.6400   -6.0941 H   0  0  0  0  0  0  0  0  0  0  0  0
    1.3863   -0.1718   -5.5229 H   0  0  0  0  0  0  0  0  0  0  0  0
    1.9233    0.9379   -4.2340 H   0  0  0  0  0  0  0  0  0  0  0  0
    6.6271   -3.6341   -3.0396 H   0  0  0  0  0  0  0  0  0  0  0  0
    2.2902   -0.7558   -2.0891 H   0  0  0  0  0  0  0  0  0  0  0  0
  1  2  1  0
  1 15  1  0
  1 16  1  0
  1 17  1  0
  2 14  1  0
  2  3  1  0
  3  4  2  0
  4  5  1  0
  4 18  1  0
  5 14  2  0
  5  6  1  0
  6  7  1  0
  6 11  2  0
  7  8  1  0
  7 25  1  0
  8 10  1  0
  8  9  1  0
  8 19  1  0
  9 10  1  0
  9 20  1  0
  9 21  1  0
 10 22  1  0
 10 23  1  0
 11 12  1  0
 12 13  2  0
 12 24  1  0
 13 14  1  0
M  END
>  <i_m_ct_stereo_status>  (364) 
1

>  <s_m_source_file>  (364) 
/var/tmp/pbs.5076255.sched01/tmpcwktr4ti/1290j0z1rin.sdf

>  <i_m_source_file_index>  (364) 
35

>  <i_lp_mmshare_version>  (364) 
48012

>  <i_f3d_flags>  (364) 
0

>  <s_epik_input>  (364) 
W2NIXTFubihbQ0gzXSljKGMxMilbbkhdW2NIXW5jXDI9Ti9bQ0hdM1tDSDJdW0NIMl0z

>  <s_epik_cmdline>  (364) 
J2VwaWtfcHl0aG9uJywgJy1waHQnLCAnMi4wJywgJy1waCcsICc3LjAnLCAnLXRuJywgJzgnLCAnLW1hJywgJzIwMCcsICctaW1hZScsICc8aW5maWxlLm1hZT4nLCAnLW9tYWUnLCAnPG91dGZpbGUubWFlPic=

>  <r_epik_Ionization_Penalty>  (364) 
0.00729279

>  <r_epik_Ionization_Penalty_Charging>  (364) 
0

>  <r_epik_Ionization_Penalty_Neutral>  (364) 
0.00729279

>  <r_epik_State_Penalty>  (364) 
0.00533757

>  <r_epik_Charging_Adjusted_Penalty>  (364) 
0.00533757

>  <i_epik_Tot_Q>  (364) 
0

>  <i_epik_Tot_abs_Q>  (364) 
0

>  <s_lp_Force_Field>  (364) 
OPLS3e

>  <r_lp_Energy>  (364) 
8.49322

>  <b_lp_Chiralities_Consistent>  (364) 
1

>  <s_lp_Variant>  (364) 
111:0-1

>  <s_i_glide_gridfile>  (364) 
pfpi4k_grid

>  <i_i_glide_lignum>  (364) 
35

>  <i_i_glide_rotatable_bonds>  (364) 
2

>  <r_i_docking_score>  (364) 
-3.54529

>  <r_i_glide_ligand_efficiency>  (364) 
-0.253235

>  <r_i_glide_ligand_efficiency_sa>  (364) 
-0.610332

>  <r_i_glide_ligand_efficiency_ln>  (364) 
-0.974232

>  <r_i_glide_gscore>  (364) 
-3.54529

>  <r_i_glide_lipo>  (364) 
-0.233794

>  <r_i_glide_hbond>  (364) 
-0.16

>  <r_i_glide_metal>  (364) 
-0

>  <r_i_glide_rewards>  (364) 
-2.47452

>  <r_i_glide_evdw>  (364) 
-18.276

>  <r_i_glide_ecoul>  (364) 
-4.01135

>  <r_i_glide_erotb>  (364) 
0.895389

>  <r_i_glide_esite>  (364) 
-0.056864

>  <r_i_glide_emodel>  (364) 
-28.2524

>  <r_i_glide_energy>  (364) 
-22.2873

>  <r_i_glide_einternal>  (364) 
0.0398917

>  <r_i_glide_intrahb_reward>  (364) 
-0

>  <i_i_glide_confnum>  (364) 
4

>  <i_i_glide_posenum>  (364) 
12

>  <r_i_glide_eff_state_penalty>  (364) 
0

>  <ligand_id>  (364) 
111

>  <original_smiles>  (364) 
Cn1ncc2c(=NC3CC3)nc[nH]c21

>  <smiles>  (364) 
[H]c1nc(N([H])C2([H])C([H])([H])C2([H])[H])c2c([H])nn(C([H])([H])[H])c2n1

$$$$
111:0:2
     RDKit          3D

 25 27  0  0  1  0  0  0  0  0999 V2000
    4.3933   -6.5999    1.4149 C   0  0  0  0  0  0  0  0  0  0  0  0
    4.0468   -5.4007    0.6777 N   0  0  0  0  0  0  0  0  0  0  0  0
    2.7310   -5.1049    0.4812 N   0  0  0  0  0  0  0  0  0  0  0  0
    2.7135   -3.9857   -0.2029 C   0  0  0  0  0  0  0  0  0  0  0  0
    4.0316   -3.5069   -0.4650 C   0  0  0  0  0  0  0  0  0  0  0  0
    4.6481   -2.4193   -1.1103 C   0  0  0  0  0  0  0  0  0  0  0  0
    3.8763   -1.3943   -1.6738 N   0  0  0  0  0  0  0  0  0  0  0  0
    4.3707   -0.6865   -2.8400 C   0  0  0  0  0  0  0  0  0  0  0  0
    3.3980    0.1364   -3.6446 C   0  0  0  0  0  0  0  0  0  0  0  0
    3.9619   -1.1359   -4.2278 C   0  0  0  0  0  0  0  0  0  0  0  0
    6.0045   -2.3666   -1.1460 N   0  0  0  0  0  0  0  0  0  0  0  0
    6.7040   -3.3355   -0.5384 C   0  0  0  0  0  0  0  0  0  0  0  0
    6.2588   -4.4078    0.1225 N   0  0  0  0  0  0  0  0  0  0  0  0
    4.8986   -4.4578    0.1192 C   0  0  0  0  0  0  0  0  0  0  0  0
    5.0111   -7.2469    0.7891 H   0  0  0  0  0  0  0  0  0  0  0  0
    3.4914   -7.1417    1.7129 H   0  0  0  0  0  0  0  0  0  0  0  0
    4.9563   -6.3248    2.3098 H   0  0  0  0  0  0  0  0  0  0  0  0
    1.7838   -3.5394   -0.5081 H   0  0  0  0  0  0  0  0  0  0  0  0
    5.3602   -0.2661   -2.6828 H   0  0  0  0  0  0  0  0  0  0  0  0
    2.3543    0.1353   -3.3356 H   0  0  0  0  0  0  0  0  0  0  0  0
    3.7539    1.0785   -4.0588 H   0  0  0  0  0  0  0  0  0  0  0  0
    4.6603   -1.0071   -5.0481 H   0  0  0  0  0  0  0  0  0  0  0  0
    3.2944   -1.9936   -4.3202 H   0  0  0  0  0  0  0  0  0  0  0  0
    7.7765   -3.2222   -0.5771 H   0  0  0  0  0  0  0  0  0  0  0  0
    2.8685   -1.4484   -1.5671 H   0  0  0  0  0  0  0  0  0  0  0  0
  1  2  1  0
  1 15  1  0
  1 16  1  0
  1 17  1  0
  2 14  1  0
  2  3  1  0
  3  4  2  0
  4  5  1  0
  4 18  1  0
  5 14  2  0
  5  6  1  0
  6  7  1  0
  6 11  2  0
  7  8  1  0
  7 25  1  0
  8 10  1  0
  8  9  1  0
  8 19  1  0
  9 10  1  0
  9 20  1  0
  9 21  1  0
 10 22  1  0
 10 23  1  0
 11 12  1  0
 12 13  2  0
 12 24  1  0
 13 14  1  0
M  END
>  <i_m_ct_stereo_status>  (365) 
1

>  <s_m_source_file>  (365) 
/var/tmp/pbs.5076255.sched01/tmpcwktr4ti/1290j0z1rin.sdf

>  <i_m_source_file_index>  (365) 
35

>  <i_lp_mmshare_version>  (365) 
48012

>  <i_f3d_flags>  (365) 
0

>  <s_epik_input>  (365) 
W2NIXTFubihbQ0gzXSljKGMxMilbbkhdW2NIXW5jXDI9Ti9bQ0hdM1tDSDJdW0NIMl0z

>  <s_epik_cmdline>  (365) 
J2VwaWtfcHl0aG9uJywgJy1waHQnLCAnMi4wJywgJy1waCcsICc3LjAnLCAnLXRuJywgJzgnLCAnLW1hJywgJzIwMCcsICctaW1hZScsICc8aW5maWxlLm1hZT4nLCAnLW9tYWUnLCAnPG91dGZpbGUubWFlPic=

>  <r_epik_Ionization_Penalty>  (365) 
0.00729279

>  <r_epik_Ionization_Penalty_Charging>  (365) 
0

>  <r_epik_Ionization_Penalty_Neutral>  (365) 
0.00729279

>  <r_epik_State_Penalty>  (365) 
0.00533757

>  <r_epik_Charging_Adjusted_Penalty>  (365) 
0.00533757

>  <i_epik_Tot_Q>  (365) 
0

>  <i_epik_Tot_abs_Q>  (365) 
0

>  <s_lp_Force_Field>  (365) 
OPLS3e

>  <r_lp_Energy>  (365) 
8.49322

>  <b_lp_Chiralities_Consistent>  (365) 
1

>  <s_lp_Variant>  (365) 
111:0-1

>  <s_i_glide_gridfile>  (365) 
pfpi4k_grid

>  <i_i_glide_lignum>  (365) 
35

>  <i_i_glide_rotatable_bonds>  (365) 
2

>  <r_i_docking_score>  (365) 
-3.23593

>  <r_i_glide_ligand_efficiency>  (365) 
-0.231138

>  <r_i_glide_ligand_efficiency_sa>  (365) 
-0.557076

>  <r_i_glide_ligand_efficiency_ln>  (365) 
-0.889223

>  <r_i_glide_gscore>  (365) 
-3.23593

>  <r_i_glide_lipo>  (365) 
-0.195684

>  <r_i_glide_hbond>  (365) 
-0.0500351

>  <r_i_glide_metal>  (365) 
-0

>  <r_i_glide_rewards>  (365) 
-2.40637

>  <r_i_glide_evdw>  (365) 
-19.7129

>  <r_i_glide_ecoul>  (365) 
-2.85136

>  <r_i_glide_erotb>  (365) 
0.895389

>  <r_i_glide_esite>  (365) 
-0.0658797

>  <r_i_glide_emodel>  (365) 
-27.5176

>  <r_i_glide_energy>  (365) 
-22.5643

>  <r_i_glide_einternal>  (365) 
0.936792

>  <r_i_glide_intrahb_reward>  (365) 
-0

>  <i_i_glide_confnum>  (365) 
6

>  <i_i_glide_posenum>  (365) 
37

>  <r_i_glide_eff_state_penalty>  (365) 
0

>  <ligand_id>  (365) 
111

>  <original_smiles>  (365) 
Cn1ncc2c(=NC3CC3)nc[nH]c21

>  <smiles>  (365) 
[H]c1nc(N([H])C2([H])C([H])([H])C2([H])[H])c2c([H])nn(C([H])([H])[H])c2n1

$$$$
113:0:0
     RDKit          3D

110117  0  0  1  0  0  0  0  0999 V2000
    4.0934   -8.8955    7.5410 C   0  0  0  0  0  0  0  0  0  0  0  0
    3.5664   -7.8427    6.8815 C   0  0  0  0  0  0  0  0  0  0  0  0
    2.6476   -6.8779    7.6683 C   0  0  2  0  0  0  0  0  0  0  0  0
    1.1842   -6.9335    7.1908 C   0  0  0  0  0  0  0  0  0  0  0  0
    0.1325   -6.3641    8.1663 C   0  0  1  0  0  0  0  0  0  0  0  0
    0.1492   -7.0222    9.4152 O   0  0  0  0  0  0  0  0  0  0  0  0
    0.0930   -4.8552    8.3555 C   0  0  0  0  0  0  0  0  0  0  0  0
   -1.2916   -4.2617    8.1524 C   0  0  0  0  0  0  0  0  0  0  0  0
    1.1692   -4.0936    8.6734 C   0  0  0  0  0  0  0  0  0  0  0  0
    1.0997   -2.5776    8.8235 C   0  0  0  0  0  0  0  0  0  0  0  0
    2.5389   -4.6802    8.9994 C   0  0  0  0  0  0  0  0  0  0  0  0
    3.2058   -5.4311    7.8280 C   0  0  2  0  0  0  0  0  0  0  0  0
    2.9548   -4.6488    6.6636 O   0  0  0  0  0  0  0  0  0  0  0  0
    3.9784   -4.1429    5.7982 C   0  0  1  0  0  0  0  0  0  0  0  0
    4.4762   -2.7171    6.1783 C   0  0  0  0  0  0  0  0  0  0  0  0
    4.7478   -1.9583    4.8399 C   0  0  0  0  0  0  0  0  0  0  0  0
    4.2932   -2.9307    3.7222 C   0  0  2  0  0  0  0  0  0  0  0  0
    4.1603   -2.5181    2.1925 C   0  0  1  0  0  0  0  0  0  0  0  0
    2.6935   -2.1905    1.7935 C   0  0  0  0  0  0  0  0  0  0  0  0
    4.9565   -1.1978    1.9756 C   0  0  0  0  0  0  0  0  0  0  0  0
    4.9411   -0.6864    0.5258 C   0  0  0  0  0  0  0  0  0  0  0  0
    5.3380   -1.7328   -0.5441 C   0  0  2  0  0  0  0  0  0  0  0  0
    4.9844   -1.2222   -1.9567 C   0  0  0  0  0  0  0  0  0  0  0  0
    3.5454   -1.4680   -2.3717 C   0  0  0  0  0  0  0  0  0  0  0  0
    3.0375   -0.6949   -3.1800 O   0  0  0  0  0  0  0  0  0  0  0  0
    2.8696   -2.6676   -1.8530 C   0  0  0  0  0  0  0  0  0  0  0  0
    3.4617   -3.4504   -0.9336 C   0  0  0  0  0  0  0  0  0  0  0  0
    4.8310   -3.2047   -0.3070 C   0  0  1  0  0  0  0  0  0  0  0  0
    5.7958   -4.1021   -1.0927 C   0  0  0  0  0  0  0  0  0  0  0  0
    4.8793   -3.5706    1.2197 C   0  0  2  0  0  0  0  0  0  0  0  0
    5.0183   -5.1066    1.5901 C   0  0  0  0  0  0  0  0  0  0  0  0
    4.0171   -6.2277    1.1806 C   0  0  0  0  0  0  0  0  0  0  0  0
    4.5716   -7.5993    1.5860 C   0  0  2  0  0  0  0  0  0  0  0  0
    3.7652   -8.8485    1.7744 C   0  0  2  0  0  0  0  0  0  0  0  0
    2.3282   -8.9030    2.2281 C   0  0  0  0  0  0  0  0  0  0  0  0
    2.3077   -8.4108    3.6841 C   0  0  0  0  0  0  0  0  0  0  0  0
    3.7602   -8.4756    4.2242 C   0  0  2  0  0  0  0  0  0  0  0  0
    3.9693   -9.9437    4.6788 C   0  0  0  0  0  0  0  0  0  0  0  0
    4.0056   -7.4364    5.4489 C   0  0  2  0  0  0  0  0  0  0  0  0
    5.3419   -6.6238    5.5970 C   0  0  1  0  0  0  0  0  0  0  0  0
    6.5717   -7.0675    4.7815 C   0  0  0  0  0  0  0  0  0  0  0  0
    5.2803   -5.0625    5.7334 C   0  0  0  0  0  0  0  0  0  0  0  0
    4.6229   -8.3574    2.9311 C   0  0  2  0  0  0  0  0  0  0  0  0
    3.2024   -3.7418    4.4847 C   0  0  0  0  0  0  0  0  0  0  0  0
    2.6100   -4.9352    3.7746 C   0  0  0  0  0  0  0  0  0  0  0  0
    1.9369   -2.8664    4.8030 C   0  0  0  0  0  0  0  0  0  0  0  0
    4.8333   -9.5425    7.0966 H   0  0  0  0  0  0  0  0  0  0  0  0
    3.8158   -9.1230    8.5602 H   0  0  0  0  0  0  0  0  0  0  0  0
    2.6367   -7.2928    8.6764 H   0  0  0  0  0  0  0  0  0  0  0  0
    1.0793   -6.4461    6.2236 H   0  0  0  0  0  0  0  0  0  0  0  0
    0.9272   -7.9805    7.0212 H   0  0  0  0  0  0  0  0  0  0  0  0
   -0.8254   -6.6161    7.7265 H   0  0  0  0  0  0  0  0  0  0  0  0
    1.0090   -6.9248    9.7964 H   0  0  0  0  0  0  0  0  0  0  0  0
   -2.0795   -4.9255    8.5064 H   0  0  0  0  0  0  0  0  0  0  0  0
   -1.4779   -4.0319    7.1037 H   0  0  0  0  0  0  0  0  0  0  0  0
   -1.3860   -3.3574    8.7397 H   0  0  0  0  0  0  0  0  0  0  0  0
    2.0356   -2.1073    8.5201 H   0  0  0  0  0  0  0  0  0  0  0  0
    0.9061   -2.3115    9.8625 H   0  0  0  0  0  0  0  0  0  0  0  0
    0.3271   -2.1329    8.1981 H   0  0  0  0  0  0  0  0  0  0  0  0
    3.2007   -3.8676    9.3030 H   0  0  0  0  0  0  0  0  0  0  0  0
    2.4515   -5.3170    9.8808 H   0  0  0  0  0  0  0  0  0  0  0  0
    4.2614   -5.4944    8.0763 H   0  0  0  0  0  0  0  0  0  0  0  0
    3.7072   -2.1913    6.7456 H   0  0  0  0  0  0  0  0  0  0  0  0
    5.3542   -2.7269    6.8217 H   0  0  0  0  0  0  0  0  0  0  0  0
    4.1972   -1.0169    4.8203 H   0  0  0  0  0  0  0  0  0  0  0  0
    5.8057   -1.7112    4.7425 H   0  0  0  0  0  0  0  0  0  0  0  0
    5.1878   -3.5172    3.6593 H   0  0  0  0  0  0  0  0  0  0  0  0
    2.6041   -1.7266    0.8159 H   0  0  0  0  0  0  0  0  0  0  0  0
    2.2459   -1.4737    2.4822 H   0  0  0  0  0  0  0  0  0  0  0  0
    2.0558   -3.0598    1.7119 H   0  0  0  0  0  0  0  0  0  0  0  0
    4.5648   -0.4053    2.6119 H   0  0  0  0  0  0  0  0  0  0  0  0
    5.9941   -1.3271    2.2863 H   0  0  0  0  0  0  0  0  0  0  0  0
    3.9818   -0.2345    0.2862 H   0  0  0  0  0  0  0  0  0  0  0  0
    5.6465    0.1415    0.4661 H   0  0  0  0  0  0  0  0  0  0  0  0
    6.4274   -1.7615   -0.5033 H   0  0  0  0  0  0  0  0  0  0  0  0
    5.1706   -0.1534   -2.0308 H   0  0  0  0  0  0  0  0  0  0  0  0
    5.5997   -1.7133   -2.7102 H   0  0  0  0  0  0  0  0  0  0  0  0
    1.8887   -2.9092   -2.2386 H   0  0  0  0  0  0  0  0  0  0  0  0
    2.9430   -4.3395   -0.5946 H   0  0  0  0  0  0  0  0  0  0  0  0
    6.8076   -4.0679   -0.6886 H   0  0  0  0  0  0  0  0  0  0  0  0
    5.8535   -3.8302   -2.1468 H   0  0  0  0  0  0  0  0  0  0  0  0
    5.4544   -5.1349   -1.0808 H   0  0  0  0  0  0  0  0  0  0  0  0
    5.9219   -3.3346    1.4294 H   0  0  0  0  0  0  0  0  0  0  0  0
    5.9709   -5.4310    1.1666 H   0  0  0  0  0  0  0  0  0  0  0  0
    5.2241   -5.2396    2.6413 H   0  0  0  0  0  0  0  0  0  0  0  0
    3.0029   -6.1206    1.5494 H   0  0  0  0  0  0  0  0  0  0  0  0
    3.9084   -6.2438    0.0938 H   0  0  0  0  0  0  0  0  0  0  0  0
    5.4631   -7.7880    0.9931 H   0  0  0  0  0  0  0  0  0  0  0  0
    4.1013   -9.7388    1.2500 H   0  0  0  0  0  0  0  0  0  0  0  0
    1.6959   -8.3077    1.5700 H   0  0  0  0  0  0  0  0  0  0  0  0
    1.9812   -9.9359    2.1694 H   0  0  0  0  0  0  0  0  0  0  0  0
    1.9337   -7.3973    3.6556 H   0  0  0  0  0  0  0  0  0  0  0  0
    1.6042   -8.9764    4.3004 H   0  0  0  0  0  0  0  0  0  0  0  0
    4.9807  -10.1214    5.0380 H   0  0  0  0  0  0  0  0  0  0  0  0
    3.8155  -10.6497    3.8654 H   0  0  0  0  0  0  0  0  0  0  0  0
    3.2652  -10.2440    5.4526 H   0  0  0  0  0  0  0  0  0  0  0  0
    3.2446   -6.7043    5.3003 H   0  0  0  0  0  0  0  0  0  0  0  0
    5.7042   -6.9143    6.5847 H   0  0  0  0  0  0  0  0  0  0  0  0
    6.5116   -6.7756    3.7354 H   0  0  0  0  0  0  0  0  0  0  0  0
    6.7227   -8.1451    4.8419 H   0  0  0  0  0  0  0  0  0  0  0  0
    7.4807   -6.6085    5.1728 H   0  0  0  0  0  0  0  0  0  0  0  0
    6.0161   -4.6580    5.0487 H   0  0  0  0  0  0  0  0  0  0  0  0
    5.8012   -4.8739    6.6719 H   0  0  0  0  0  0  0  0  0  0  0  0
    5.5750   -8.8680    3.0437 H   0  0  0  0  0  0  0  0  0  0  0  0
    2.1078   -4.7015    2.8486 H   0  0  0  0  0  0  0  0  0  0  0  0
    1.8383   -5.3814    4.3979 H   0  0  0  0  0  0  0  0  0  0  0  0
    3.3782   -5.6627    3.5780 H   0  0  0  0  0  0  0  0  0  0  0  0
    1.2649   -2.7971    3.9489 H   0  0  0  0  0  0  0  0  0  0  0  0
    2.1548   -1.8423    5.1000 H   0  0  0  0  0  0  0  0  0  0  0  0
    1.3267   -3.2957    5.5982 H   0  0  0  0  0  0  0  0  0  0  0  0
  1  2  2  0
  1 47  1  0
  1 48  1  0
  2 39  1  0
  2  3  1  0
  3 12  1  0
  3  4  1  0
  3 49  1  1
  4  5  1  0
  4 50  1  0
  4 51  1  0
  5  6  1  0
  5  7  1  0
  5 52  1  6
  6 53  1  0
  7  8  1  0
  7  9  2  0
  8 54  1  0
  8 55  1  0
  8 56  1  0
  9 10  1  0
  9 11  1  0
 10 57  1  0
 10 58  1  0
 10 59  1  0
 11 12  1  0
 11 60  1  0
 11 61  1  0
 12 13  1  0
 12 62  1  1
 14 13  1  1
 14 42  1  0
 14 44  1  0
 14 15  1  0
 15 16  1  0
 15 63  1  0
 15 64  1  0
 16 17  1  0
 16 65  1  0
 16 66  1  0
 17 18  1  0
 17 44  1  0
 17 67  1  6
 18 30  1  0
 18 19  1  6
 18 20  1  0
 19 68  1  0
 19 69  1  0
 19 70  1  0
 20 21  1  0
 20 71  1  0
 20 72  1  0
 21 22  1  0
 21 73  1  0
 21 74  1  0
 22 28  1  0
 22 23  1  0
 22 75  1  6
 23 24  1  0
 23 76  1  0
 23 77  1  0
 24 25  2  0
 24 26  1  0
 26 27  2  0
 26 78  1  0
 27 28  1  0
 27 79  1  0
 28 29  1  6
 28 30  1  0
 29 80  1  0
 29 81  1  0
 29 82  1  0
 30 31  1  0
 30 83  1  1
 31 32  1  0
 31 84  1  0
 31 85  1  0
 32 33  1  0
 32 86  1  0
 32 87  1  0
 33 43  1  0
 33 34  1  0
 33 88  1  6
 34 43  1  0
 34 35  1  0
 34 89  1  6
 35 36  1  0
 35 90  1  0
 35 91  1  0
 36 37  1  0
 36 92  1  0
 36 93  1  0
 37 38  1  1
 37 39  1  0
 37 43  1  0
 38 94  1  0
 38 95  1  0
 38 96  1  0
 39 40  1  0
 39 97  1  6
 40 41  1  0
 40 42  1  0
 40 98  1  1
 41 99  1  0
 41100  1  0
 41101  1  0
 42102  1  0
 42103  1  0
 43104  1  1
 44 45  1  0
 44 46  1  0
 45105  1  0
 45106  1  0
 45107  1  0
 46108  1  0
 46109  1  0
 46110  1  0
M  END
>  <i_m_ct_stereo_status>  (366) 
1

>  <s_m_source_file>  (366) 
/var/tmp/pbs.5076255.sched01/tmpcwktr4ti/1290j0z1rin.sdf

>  <i_m_source_file_index>  (366) 
37

>  <i_lp_mmshare_version>  (366) 
48012

>  <i_f3d_flags>  (366) 
0

>  <s_epik_input>  (366) 
W0NIM11DKFtDSDJdMSk9QyhbQ0gzXSlbQ0BIXShbT0hdKVtDSDJdW0NASF0oW0NASF0xT1tDQEBdMjM0KUMoPVtDSDJdKVtDQEBIXShbQ0BASF0oW0NIM10pW0NIMl0zKVtDQF01KFtDSDNdKVtDQEBIXTZbQ0BASF0oW0NAQEhdNltDSDJdW0NIMl01KVtDSDJdW0NIMl1bQ0BASF03W0NAQF0oW0NIM10pKFtDQEBIXShbQ0gyXVtDSDJdMilDNChbQ0gzXSlbQ0gzXSlbQ0gyXVtDSDJdW0NASF04W0NAXTcoW0NIM10pW0NIXT1bQ0hdQyg9TylbQ0gyXTg=

>  <s_epik_cmdline>  (366) 
J2VwaWtfcHl0aG9uJywgJy1waHQnLCAnMi4wJywgJy1waCcsICc3LjAnLCAnLXRuJywgJzgnLCAnLW1hJywgJzIwMCcsICctaW1hZScsICc8aW5maWxlLm1hZT4nLCAnLW9tYWUnLCAnPG91dGZpbGUubWFlPic=

>  <r_lp_tautomer_probability>  (366) 
1

>  <r_epik_Ionization_Penalty>  (366) 
7.81489e-08

>  <r_epik_Ionization_Penalty_Charging>  (366) 
0

>  <r_epik_Ionization_Penalty_Neutral>  (366) 
7.81489e-08

>  <r_epik_State_Penalty>  (366) 
-0

>  <r_epik_Charging_Adjusted_Penalty>  (366) 
0

>  <i_epik_Tot_Q>  (366) 
0

>  <i_epik_Tot_abs_Q>  (366) 
0

>  <s_lp_Force_Field>  (366) 
OPLS3e

>  <r_lp_Energy>  (366) 
175.152

>  <b_lp_Chiralities_Consistent>  (366) 
1

>  <s_lp_Variant>  (366) 
113:0-1

>  <s_i_glide_gridfile>  (366) 
pfpi4k_grid

>  <i_i_glide_lignum>  (366) 
37

>  <i_i_glide_rotatable_bonds>  (366) 
1

>  <r_i_docking_score>  (366) 
-3.24568

>  <r_i_glide_ligand_efficiency>  (366) 
-0.0705583

>  <r_i_glide_ligand_efficiency_sa>  (366) 
-0.252814

>  <r_i_glide_ligand_efficiency_ln>  (366) 
-0.672173

>  <r_i_glide_gscore>  (366) 
-3.24568

>  <r_i_glide_lipo>  (366) 
-0.560186

>  <r_i_glide_hbond>  (366) 
-0.32

>  <r_i_glide_metal>  (366) 
-0

>  <r_i_glide_rewards>  (366) 
0

>  <r_i_glide_evdw>  (366) 
-35.7082

>  <r_i_glide_ecoul>  (366) 
-3.44906

>  <r_i_glide_erotb>  (366) 
0

>  <r_i_glide_esite>  (366) 
-0.0627284

>  <r_i_glide_emodel>  (366) 
-46.2714

>  <r_i_glide_energy>  (366) 
-39.1572

>  <r_i_glide_einternal>  (366) 
0.0232827

>  <r_i_glide_intrahb_reward>  (366) 
-0

>  <i_i_glide_confnum>  (366) 
1

>  <i_i_glide_posenum>  (366) 
1

>  <r_i_glide_eff_state_penalty>  (366) 
0

>  <ligand_id>  (366) 
113

>  <original_smiles>  (366) 
C=C1C2CC(O)C(C)=C(C)CC2OC23CCC(C4(C)CCC5CC(=O)C=CC5(C)C4CCC4C5CCC(C)(C1C(C)C2)C45)C3(C)C

>  <smiles>  (366) 
[H]OC1([H])C(C([H])([H])[H])=C(C([H])([H])[H])C([H])([H])C2([H])OC34C([H])([H])C([H])([H])C([H])(C5(C([H])([H])[H])C([H])([H])C([H])([H])C6([H])C([H])([H])C(=O)C([H])=C([H])C6(C([H])([H])[H])C5([H])C([H])([H])C([H])([H])C5([H])C6([H])C([H])([H])C([H])([H])C(C([H])([H])[H])(C([H])(C(=C([H])[H])C2([H])C1([H])[H])C([H])(C([H])([H])[H])C3([H])[H])C56[H])C4(C([H])([H])[H])C([H])([H])[H]

$$$$
113:0:1
     RDKit          3D

110117  0  0  1  0  0  0  0  0999 V2000
    4.5221   -8.8070    7.4663 C   0  0  0  0  0  0  0  0  0  0  0  0
    3.9278   -7.7878    6.8081 C   0  0  0  0  0  0  0  0  0  0  0  0
    2.9247   -6.9030    7.5871 C   0  0  2  0  0  0  0  0  0  0  0  0
    1.4764   -7.0587    7.0847 C   0  0  0  0  0  0  0  0  0  0  0  0
    0.3508   -6.5768    8.0353 C   0  0  1  0  0  0  0  0  0  0  0  0
    0.3616   -7.2570    9.2739 O   0  0  0  0  0  0  0  0  0  0  0  0
    0.2097   -5.0709    8.2450 C   0  0  0  0  0  0  0  0  0  0  0  0
   -1.2097   -4.5567    8.0173 C   0  0  0  0  0  0  0  0  0  0  0  0
    1.2275   -4.2436    8.5876 C   0  0  0  0  0  0  0  0  0  0  0  0
    1.0498   -2.7397    8.7505 C   0  0  0  0  0  0  0  0  0  0  0  0
    2.6314   -4.7357    8.9332 C   0  0  0  0  0  0  0  0  0  0  0  0
    3.3741   -5.4212    7.7694 C   0  0  2  0  0  0  0  0  0  0  0  0
    3.0924   -4.6461    6.6055 O   0  0  0  0  0  0  0  0  0  0  0  0
    4.0943   -4.0582    5.7666 C   0  0  1  0  0  0  0  0  0  0  0  0
    4.4797   -2.6043    6.1701 C   0  0  0  0  0  0  0  0  0  0  0  0
    4.7215   -1.8125    4.8450 C   0  0  0  0  0  0  0  0  0  0  0  0
    4.3603   -2.8029    3.7103 C   0  0  2  0  0  0  0  0  0  0  0  0
    4.2268   -2.3851    2.1816 C   0  0  1  0  0  0  0  0  0  0  0  0
    2.7465   -2.1614    1.7553 C   0  0  0  0  0  0  0  0  0  0  0  0
    4.9291   -1.0095    1.9929 C   0  0  0  0  0  0  0  0  0  0  0  0
    4.8986   -0.4939    0.5458 C   0  0  0  0  0  0  0  0  0  0  0  0
    5.3898   -1.4964   -0.5275 C   0  0  2  0  0  0  0  0  0  0  0  0
    5.0183   -1.0004   -1.9458 C   0  0  0  0  0  0  0  0  0  0  0  0
    3.6040   -1.3584   -2.3901 C   0  0  0  0  0  0  0  0  0  0  0  0
    3.0431   -0.6369   -3.2033 O   0  0  0  0  0  0  0  0  0  0  0  0
    3.0169   -2.6020   -1.8808 C   0  0  0  0  0  0  0  0  0  0  0  0
    3.6569   -3.3483   -0.9637 C   0  0  0  0  0  0  0  0  0  0  0  0
    4.9983   -3.0032   -0.3150 C   0  0  1  0  0  0  0  0  0  0  0  0
    6.0416   -3.8219   -1.0947 C   0  0  0  0  0  0  0  0  0  0  0  0
    5.0417   -3.3743    1.2124 C   0  0  2  0  0  0  0  0  0  0  0  0
    5.2830   -4.8978    1.5714 C   0  0  0  0  0  0  0  0  0  0  0  0
    4.3720   -6.0821    1.1317 C   0  0  0  0  0  0  0  0  0  0  0  0
    5.0176   -7.4158    1.5343 C   0  0  2  0  0  0  0  0  0  0  0  0
    4.3020   -8.7197    1.6928 C   0  0  2  0  0  0  0  0  0  0  0  0
    2.8664   -8.8874    2.1193 C   0  0  0  0  0  0  0  0  0  0  0  0
    2.7810   -8.4138    3.5787 C   0  0  0  0  0  0  0  0  0  0  0  0
    4.2242   -8.3771    4.1471 C   0  0  2  0  0  0  0  0  0  0  0  0
    4.5330   -9.8311    4.5912 C   0  0  0  0  0  0  0  0  0  0  0  0
    4.3684   -7.3362    5.3877 C   0  0  2  0  0  0  0  0  0  0  0  0
    5.6402   -6.4311    5.5685 C   0  0  1  0  0  0  0  0  0  0  0  0
    6.9148   -6.7733    4.7728 C   0  0  0  0  0  0  0  0  0  0  0  0
    5.4617   -4.8801    5.7192 C   0  0  0  0  0  0  0  0  0  0  0  0
    5.1013   -8.1796    2.8727 C   0  0  2  0  0  0  0  0  0  0  0  0
    3.3167   -3.6991    4.4422 C   0  0  0  0  0  0  0  0  0  0  0  0
    2.8265   -4.9256    3.7088 C   0  0  0  0  0  0  0  0  0  0  0  0
    1.9849   -2.9209    4.7448 C   0  0  0  0  0  0  0  0  0  0  0  0
    5.3156   -9.3932    7.0307 H   0  0  0  0  0  0  0  0  0  0  0  0
    4.2435   -9.0650    8.4782 H   0  0  0  0  0  0  0  0  0  0  0  0
    2.9252   -7.3245    8.5924 H   0  0  0  0  0  0  0  0  0  0  0  0
    1.3600   -6.5718    6.1202 H   0  0  0  0  0  0  0  0  0  0  0  0
    1.3066   -8.1175    6.8902 H   0  0  0  0  0  0  0  0  0  0  0  0
   -0.5720   -6.9003    7.5635 H   0  0  0  0  0  0  0  0  0  0  0  0
    0.9029   -8.0276    9.1881 H   0  0  0  0  0  0  0  0  0  0  0  0
   -1.9455   -5.2876    8.3471 H   0  0  0  0  0  0  0  0  0  0  0  0
   -1.3855   -4.3467    6.9624 H   0  0  0  0  0  0  0  0  0  0  0  0
   -1.4121   -3.6604    8.5958 H   0  0  0  0  0  0  0  0  0  0  0  0
    1.9555   -2.2000    8.4691 H   0  0  0  0  0  0  0  0  0  0  0  0
    0.8160   -2.5009    9.7889 H   0  0  0  0  0  0  0  0  0  0  0  0
    0.2586   -2.3458    8.1139 H   0  0  0  0  0  0  0  0  0  0  0  0
    3.2281   -3.8836    9.2611 H   0  0  0  0  0  0  0  0  0  0  0  0
    2.5729   -5.3898    9.8034 H   0  0  0  0  0  0  0  0  0  0  0  0
    4.4285   -5.4112    8.0385 H   0  0  0  0  0  0  0  0  0  0  0  0
    3.6649   -2.1405    6.7262 H   0  0  0  0  0  0  0  0  0  0  0  0
    5.3442   -2.5582    6.8322 H   0  0  0  0  0  0  0  0  0  0  0  0
    4.1069   -0.9115    4.8244 H   0  0  0  0  0  0  0  0  0  0  0  0
    5.7591   -1.4891    4.7706 H   0  0  0  0  0  0  0  0  0  0  0  0
    5.2957   -3.3211    3.6581 H   0  0  0  0  0  0  0  0  0  0  0  0
    2.6376   -1.6934    0.7824 H   0  0  0  0  0  0  0  0  0  0  0  0
    2.2340   -1.4900    2.4427 H   0  0  0  0  0  0  0  0  0  0  0  0
    2.1786   -3.0749    1.6508 H   0  0  0  0  0  0  0  0  0  0  0  0
    4.4695   -0.2532    2.6270 H   0  0  0  0  0  0  0  0  0  0  0  0
    5.9673   -1.0645    2.3229 H   0  0  0  0  0  0  0  0  0  0  0  0
    3.9139   -0.1062    0.2961 H   0  0  0  0  0  0  0  0  0  0  0  0
    5.5436    0.3800    0.4986 H   0  0  0  0  0  0  0  0  0  0  0  0
    6.4818   -1.4395   -0.4640 H   0  0  0  0  0  0  0  0  0  0  0  0
    5.1228    0.0814   -2.0082 H   0  0  0  0  0  0  0  0  0  0  0  0
    5.6782   -1.4338   -2.6923 H   0  0  0  0  0  0  0  0  0  0  0  0
    2.0632   -2.9011   -2.2848 H   0  0  0  0  0  0  0  0  0  0  0  0
    3.1971   -4.2683   -0.6411 H   0  0  0  0  0  0  0  0  0  0  0  0
    7.0415   -3.7229   -0.6715 H   0  0  0  0  0  0  0  0  0  0  0  0
    6.0987   -3.5307   -2.1436 H   0  0  0  0  0  0  0  0  0  0  0  0
    5.7843   -4.8790   -1.0936 H   0  0  0  0  0  0  0  0  0  0  0  0
    6.0587   -3.0620    1.4440 H   0  0  0  0  0  0  0  0  0  0  0  0
    6.2653   -5.1475    1.1657 H   0  0  0  0  0  0  0  0  0  0  0  0
    5.4757   -5.0247    2.6257 H   0  0  0  0  0  0  0  0  0  0  0  0
    3.3473   -6.0540    1.4797 H   0  0  0  0  0  0  0  0  0  0  0  0
    4.2868   -6.0939    0.0424 H   0  0  0  0  0  0  0  0  0  0  0  0
    5.9339   -7.5300    0.9581 H   0  0  0  0  0  0  0  0  0  0  0  0
    4.7112   -9.5786    1.1674 H   0  0  0  0  0  0  0  0  0  0  0  0
    2.2053   -8.3294    1.4542 H   0  0  0  0  0  0  0  0  0  0  0  0
    2.5957   -9.9427    2.0422 H   0  0  0  0  0  0  0  0  0  0  0  0
    2.3351   -7.4301    3.5522 H   0  0  0  0  0  0  0  0  0  0  0  0
    2.1098   -9.0362    4.1748 H   0  0  0  0  0  0  0  0  0  0  0  0
    5.5483   -9.9372    4.9686 H   0  0  0  0  0  0  0  0  0  0  0  0
    4.4476  -10.5370    3.7672 H   0  0  0  0  0  0  0  0  0  0  0  0
    3.8378  -10.1917    5.3478 H   0  0  0  0  0  0  0  0  0  0  0  0
    3.5586   -6.6604    5.2290 H   0  0  0  0  0  0  0  0  0  0  0  0
    6.0033   -6.7058    6.5596 H   0  0  0  0  0  0  0  0  0  0  0  0
    6.8511   -6.4751    3.7288 H   0  0  0  0  0  0  0  0  0  0  0  0
    7.1433   -7.8375    4.8267 H   0  0  0  0  0  0  0  0  0  0  0  0
    7.7799   -6.2531    5.1856 H   0  0  0  0  0  0  0  0  0  0  0  0
    6.1781   -4.4139    5.0536 H   0  0  0  0  0  0  0  0  0  0  0  0
    5.9488   -4.6648    6.6697 H   0  0  0  0  0  0  0  0  0  0  0  0
    6.0844   -8.6212    2.9966 H   0  0  0  0  0  0  0  0  0  0  0  0
    2.3245   -4.7172    2.7769 H   0  0  0  0  0  0  0  0  0  0  0  0
    2.0783   -5.4321    4.3138 H   0  0  0  0  0  0  0  0  0  0  0  0
    3.6483   -5.5928    3.5194 H   0  0  0  0  0  0  0  0  0  0  0  0
    1.3273   -2.8929    3.8788 H   0  0  0  0  0  0  0  0  0  0  0  0
    2.1225   -1.8869    5.0538 H   0  0  0  0  0  0  0  0  0  0  0  0
    1.3930   -3.4032    5.5227 H   0  0  0  0  0  0  0  0  0  0  0  0
  1  2  2  0
  1 47  1  0
  1 48  1  0
  2 39  1  0
  2  3  1  0
  3 12  1  0
  3  4  1  0
  3 49  1  1
  4  5  1  0
  4 50  1  0
  4 51  1  0
  5  6  1  0
  5  7  1  0
  5 52  1  6
  6 53  1  0
  7  8  1  0
  7  9  2  0
  8 54  1  0
  8 55  1  0
  8 56  1  0
  9 10  1  0
  9 11  1  0
 10 57  1  0
 10 58  1  0
 10 59  1  0
 11 12  1  0
 11 60  1  0
 11 61  1  0
 12 13  1  0
 12 62  1  1
 14 13  1  1
 14 42  1  0
 14 44  1  0
 14 15  1  0
 15 16  1  0
 15 63  1  0
 15 64  1  0
 16 17  1  0
 16 65  1  0
 16 66  1  0
 17 18  1  0
 17 44  1  0
 17 67  1  6
 18 30  1  0
 18 19  1  6
 18 20  1  0
 19 68  1  0
 19 69  1  0
 19 70  1  0
 20 21  1  0
 20 71  1  0
 20 72  1  0
 21 22  1  0
 21 73  1  0
 21 74  1  0
 22 28  1  0
 22 23  1  0
 22 75  1  6
 23 24  1  0
 23 76  1  0
 23 77  1  0
 24 25  2  0
 24 26  1  0
 26 27  2  0
 26 78  1  0
 27 28  1  0
 27 79  1  0
 28 29  1  6
 28 30  1  0
 29 80  1  0
 29 81  1  0
 29 82  1  0
 30 31  1  0
 30 83  1  1
 31 32  1  0
 31 84  1  0
 31 85  1  0
 32 33  1  0
 32 86  1  0
 32 87  1  0
 33 43  1  0
 33 34  1  0
 33 88  1  6
 34 43  1  0
 34 35  1  0
 34 89  1  6
 35 36  1  0
 35 90  1  0
 35 91  1  0
 36 37  1  0
 36 92  1  0
 36 93  1  0
 37 38  1  1
 37 39  1  0
 37 43  1  0
 38 94  1  0
 38 95  1  0
 38 96  1  0
 39 40  1  0
 39 97  1  6
 40 41  1  0
 40 42  1  0
 40 98  1  1
 41 99  1  0
 41100  1  0
 41101  1  0
 42102  1  0
 42103  1  0
 43104  1  1
 44 45  1  0
 44 46  1  0
 45105  1  0
 45106  1  0
 45107  1  0
 46108  1  0
 46109  1  0
 46110  1  0
M  END
>  <i_m_ct_stereo_status>  (367) 
1

>  <s_m_source_file>  (367) 
/var/tmp/pbs.5076255.sched01/tmpcwktr4ti/1290j0z1rin.sdf

>  <i_m_source_file_index>  (367) 
37

>  <i_lp_mmshare_version>  (367) 
48012

>  <i_f3d_flags>  (367) 
0

>  <s_epik_input>  (367) 
W0NIM11DKFtDSDJdMSk9QyhbQ0gzXSlbQ0BIXShbT0hdKVtDSDJdW0NASF0oW0NASF0xT1tDQEBdMjM0KUMoPVtDSDJdKVtDQEBIXShbQ0BASF0oW0NIM10pW0NIMl0zKVtDQF01KFtDSDNdKVtDQEBIXTZbQ0BASF0oW0NAQEhdNltDSDJdW0NIMl01KVtDSDJdW0NIMl1bQ0BASF03W0NAQF0oW0NIM10pKFtDQEBIXShbQ0gyXVtDSDJdMilDNChbQ0gzXSlbQ0gzXSlbQ0gyXVtDSDJdW0NASF04W0NAXTcoW0NIM10pW0NIXT1bQ0hdQyg9TylbQ0gyXTg=

>  <s_epik_cmdline>  (367) 
J2VwaWtfcHl0aG9uJywgJy1waHQnLCAnMi4wJywgJy1waCcsICc3LjAnLCAnLXRuJywgJzgnLCAnLW1hJywgJzIwMCcsICctaW1hZScsICc8aW5maWxlLm1hZT4nLCAnLW9tYWUnLCAnPG91dGZpbGUubWFlPic=

>  <r_lp_tautomer_probability>  (367) 
1

>  <r_epik_Ionization_Penalty>  (367) 
7.81489e-08

>  <r_epik_Ionization_Penalty_Charging>  (367) 
0

>  <r_epik_Ionization_Penalty_Neutral>  (367) 
7.81489e-08

>  <r_epik_State_Penalty>  (367) 
-0

>  <r_epik_Charging_Adjusted_Penalty>  (367) 
0

>  <i_epik_Tot_Q>  (367) 
0

>  <i_epik_Tot_abs_Q>  (367) 
0

>  <s_lp_Force_Field>  (367) 
OPLS3e

>  <r_lp_Energy>  (367) 
175.152

>  <b_lp_Chiralities_Consistent>  (367) 
1

>  <s_lp_Variant>  (367) 
113:0-1

>  <s_i_glide_gridfile>  (367) 
pfpi4k_grid

>  <i_i_glide_lignum>  (367) 
37

>  <i_i_glide_rotatable_bonds>  (367) 
1

>  <r_i_docking_score>  (367) 
-3.12027

>  <r_i_glide_ligand_efficiency>  (367) 
-0.067832

>  <r_i_glide_ligand_efficiency_sa>  (367) 
-0.243045

>  <r_i_glide_ligand_efficiency_ln>  (367) 
-0.646201

>  <r_i_glide_gscore>  (367) 
-3.12027

>  <r_i_glide_lipo>  (367) 
-0.670647

>  <r_i_glide_hbond>  (367) 
-0.180061

>  <r_i_glide_metal>  (367) 
-0

>  <r_i_glide_rewards>  (367) 
0

>  <r_i_glide_evdw>  (367) 
-36.6964

>  <r_i_glide_ecoul>  (367) 
-2.46432

>  <r_i_glide_erotb>  (367) 
0

>  <r_i_glide_esite>  (367) 
-0.0650954

>  <r_i_glide_emodel>  (367) 
-45.5146

>  <r_i_glide_energy>  (367) 
-39.1607

>  <r_i_glide_einternal>  (367) 
0.951059

>  <r_i_glide_intrahb_reward>  (367) 
-0

>  <i_i_glide_confnum>  (367) 
2

>  <i_i_glide_posenum>  (367) 
11

>  <r_i_glide_eff_state_penalty>  (367) 
0

>  <ligand_id>  (367) 
113

>  <original_smiles>  (367) 
C=C1C2CC(O)C(C)=C(C)CC2OC23CCC(C4(C)CCC5CC(=O)C=CC5(C)C4CCC4C5CCC(C)(C1C(C)C2)C45)C3(C)C

>  <smiles>  (367) 
[H]OC1([H])C(C([H])([H])[H])=C(C([H])([H])[H])C([H])([H])C2([H])OC34C([H])([H])C([H])([H])C([H])(C5(C([H])([H])[H])C([H])([H])C([H])([H])C6([H])C([H])([H])C(=O)C([H])=C([H])C6(C([H])([H])[H])C5([H])C([H])([H])C([H])([H])C5([H])C6([H])C([H])([H])C([H])([H])C(C([H])([H])[H])(C([H])(C(=C([H])[H])C2([H])C1([H])[H])C([H])(C([H])([H])[H])C3([H])[H])C56[H])C4(C([H])([H])[H])C([H])([H])[H]

$$$$
113:0:2
     RDKit          3D

110117  0  0  1  0  0  0  0  0999 V2000
    4.6956   -8.2536    8.0928 C   0  0  0  0  0  0  0  0  0  0  0  0
    4.0424   -7.3605    7.3127 C   0  0  0  0  0  0  0  0  0  0  0  0
    2.8881   -6.5488    7.9451 C   0  0  2  0  0  0  0  0  0  0  0  0
    1.5092   -6.9110    7.3546 C   0  0  0  0  0  0  0  0  0  0  0  0
    0.2652   -6.4971    8.1785 C   0  0  1  0  0  0  0  0  0  0  0  0
    0.2705   -7.0628    9.4727 O   0  0  0  0  0  0  0  0  0  0  0  0
   -0.0588   -5.0051    8.2560 C   0  0  0  0  0  0  0  0  0  0  0  0
   -1.4982   -4.6687    7.8858 C   0  0  0  0  0  0  0  0  0  0  0  0
    0.8289   -4.0461    8.6145 C   0  0  0  0  0  0  0  0  0  0  0  0
    0.4702   -2.5654    8.6391 C   0  0  0  0  0  0  0  0  0  0  0  0
    2.2458   -4.3417    9.0934 C   0  0  0  0  0  0  0  0  0  0  0  0
    3.1517   -5.0151    8.0431 C   0  0  2  0  0  0  0  0  0  0  0  0
    2.8769   -4.3618    6.8061 O   0  0  0  0  0  0  0  0  0  0  0  0
    3.8676   -3.7195    5.9935 C   0  0  1  0  0  0  0  0  0  0  0  0
    4.0538   -2.2057    6.3067 C   0  0  0  0  0  0  0  0  0  0  0  0
    4.3125   -1.4882    4.9421 C   0  0  0  0  0  0  0  0  0  0  0  0
    4.1535   -2.5928    3.8664 C   0  0  2  0  0  0  0  0  0  0  0  0
    4.0938   -2.3018    2.3028 C   0  0  1  0  0  0  0  0  0  0  0  0
    2.6381   -2.2862    1.7600 C   0  0  0  0  0  0  0  0  0  0  0  0
    4.6494   -0.8712    2.0567 C   0  0  0  0  0  0  0  0  0  0  0  0
    4.6748   -0.4612    0.5744 C   0  0  0  0  0  0  0  0  0  0  0  0
    5.3547   -1.4668   -0.3846 C   0  0  2  0  0  0  0  0  0  0  0  0
    5.0289   -1.1107   -1.8567 C   0  0  0  0  0  0  0  0  0  0  0  0
    3.6902   -1.6553   -2.3462 C   0  0  0  0  0  0  0  0  0  0  0  0
    3.0923   -1.0500   -3.2342 O   0  0  0  0  0  0  0  0  0  0  0  0
    3.2214   -2.9280   -1.7938 C   0  0  0  0  0  0  0  0  0  0  0  0
    3.8861   -3.5351   -0.7859 C   0  0  0  0  0  0  0  0  0  0  0  0
    5.1278   -2.9928   -0.0782 C   0  0  1  0  0  0  0  0  0  0  0  0
    6.3239   -3.7381   -0.7089 C   0  0  0  0  0  0  0  0  0  0  0  0
    5.0906   -3.2497    1.4750 C   0  0  2  0  0  0  0  0  0  0  0  0
    5.4744   -4.7070    1.9718 C   0  0  0  0  0  0  0  0  0  0  0  0
    4.7406   -6.0196    1.5656 C   0  0  0  0  0  0  0  0  0  0  0  0
    5.4997   -7.2344    2.1201 C   0  0  2  0  0  0  0  0  0  0  0  0
    4.9264   -8.6025    2.3286 C   0  0  2  0  0  0  0  0  0  0  0  0
    3.4868   -8.9048    2.6657 C   0  0  0  0  0  0  0  0  0  0  0  0
    3.2334   -8.3439    4.0723 C   0  0  0  0  0  0  0  0  0  0  0  0
    4.6127   -8.0960    4.7367 C   0  0  2  0  0  0  0  0  0  0  0  0
    5.0468   -9.4681    5.3167 C   0  0  0  0  0  0  0  0  0  0  0  0
    4.5394   -6.9618    5.8981 C   0  0  2  0  0  0  0  0  0  0  0  0
    5.6816   -5.9006    6.0947 C   0  0  1  0  0  0  0  0  0  0  0  0
    7.0463   -6.1446    5.4219 C   0  0  0  0  0  0  0  0  0  0  0  0
    5.3183   -4.3750    6.1085 C   0  0  0  0  0  0  0  0  0  0  0  0
    5.5624   -7.8892    3.5164 C   0  0  2  0  0  0  0  0  0  0  0  0
    3.1621   -3.5514    4.5931 C   0  0  0  0  0  0  0  0  0  0  0  0
    2.8739   -4.8756    3.9271 C   0  0  0  0  0  0  0  0  0  0  0  0
    1.7301   -2.9183    4.7365 C   0  0  0  0  0  0  0  0  0  0  0  0
    5.5818   -8.7675    7.7612 H   0  0  0  0  0  0  0  0  0  0  0  0
    4.3677   -8.4689    9.0983 H   0  0  0  0  0  0  0  0  0  0  0  0
    2.8581   -6.8978    8.9778 H   0  0  0  0  0  0  0  0  0  0  0  0
    1.4161   -6.5116    6.3465 H   0  0  0  0  0  0  0  0  0  0  0  0
    1.4741   -7.9965    7.2399 H   0  0  0  0  0  0  0  0  0  0  0  0
   -0.5789   -6.9662    7.6779 H   0  0  0  0  0  0  0  0  0  0  0  0
    1.1000   -6.8675    9.8845 H   0  0  0  0  0  0  0  0  0  0  0  0
   -2.1765   -5.4532    8.2158 H   0  0  0  0  0  0  0  0  0  0  0  0
   -1.6157   -4.5638    6.8088 H   0  0  0  0  0  0  0  0  0  0  0  0
   -1.8610   -3.7762    8.3819 H   0  0  0  0  0  0  0  0  0  0  0  0
    1.3295   -1.9446    8.3823 H   0  0  0  0  0  0  0  0  0  0  0  0
    0.1299   -2.2829    9.6353 H   0  0  0  0  0  0  0  0  0  0  0  0
   -0.3009   -2.3188    7.9129 H   0  0  0  0  0  0  0  0  0  0  0  0
    2.7145   -3.4018    9.3902 H   0  0  0  0  0  0  0  0  0  0  0  0
    2.1955   -4.9312   10.0099 H   0  0  0  0  0  0  0  0  0  0  0  0
    4.1727   -4.8603    8.3826 H   0  0  0  0  0  0  0  0  0  0  0  0
    3.1490   -1.8044    6.7633 H   0  0  0  0  0  0  0  0  0  0  0  0
    4.8505   -2.0098    7.0235 H   0  0  0  0  0  0  0  0  0  0  0  0
    3.6042   -0.6706    4.8061 H   0  0  0  0  0  0  0  0  0  0  0  0
    5.3121   -1.0528    4.9148 H   0  0  0  0  0  0  0  0  0  0  0  0
    5.1433   -3.0000    3.9222 H   0  0  0  0  0  0  0  0  0  0  0  0
    2.5555   -1.9048    0.7474 H   0  0  0  0  0  0  0  0  0  0  0  0
    1.9996   -1.6306    2.3532 H   0  0  0  0  0  0  0  0  0  0  0  0
    2.1855   -3.2657    1.6896 H   0  0  0  0  0  0  0  0  0  0  0  0
    4.0566   -0.1320    2.5951 H   0  0  0  0  0  0  0  0  0  0  0  0
    5.6574   -0.7779    2.4630 H   0  0  0  0  0  0  0  0  0  0  0  0
    3.6714   -0.2239    0.2283 H   0  0  0  0  0  0  0  0  0  0  0  0
    5.2082    0.4841    0.5021 H   0  0  0  0  0  0  0  0  0  0  0  0
    6.4231   -1.2750   -0.2516 H   0  0  0  0  0  0  0  0  0  0  0  0
    5.0294   -0.0307   -1.9963 H   0  0  0  0  0  0  0  0  0  0  0  0
    5.7936   -1.5168   -2.5158 H   0  0  0  0  0  0  0  0  0  0  0  0
    2.3496   -3.3849   -2.2383 H   0  0  0  0  0  0  0  0  0  0  0  0
    3.5168   -4.4842   -0.4354 H   0  0  0  0  0  0  0  0  0  0  0  0
    7.2693   -3.4865   -0.2268 H   0  0  0  0  0  0  0  0  0  0  0  0
    6.4311   -3.5199   -1.7723 H   0  0  0  0  0  0  0  0  0  0  0  0
    6.1974   -4.8145   -0.6352 H   0  0  0  0  0  0  0  0  0  0  0  0
    6.0468   -2.8061    1.7550 H   0  0  0  0  0  0  0  0  0  0  0  0
    6.5067   -4.8665    1.6588 H   0  0  0  0  0  0  0  0  0  0  0  0
    5.5964   -4.7361    3.0449 H   0  0  0  0  0  0  0  0  0  0  0  0
    3.6948   -6.0884    1.8385 H   0  0  0  0  0  0  0  0  0  0  0  0
    4.7439   -6.1192    0.4793 H   0  0  0  0  0  0  0  0  0  0  0  0
    6.4637   -7.2807    1.6195 H   0  0  0  0  0  0  0  0  0  0  0  0
    5.4702   -9.4395    1.9002 H   0  0  0  0  0  0  0  0  0  0  0  0
    2.8210   -8.4798    1.9149 H   0  0  0  0  0  0  0  0  0  0  0  0
    3.3439   -9.9866    2.6539 H   0  0  0  0  0  0  0  0  0  0  0  0
    2.6813   -7.4243    3.9368 H   0  0  0  0  0  0  0  0  0  0  0  0
    2.5900   -8.9966    4.6682 H   0  0  0  0  0  0  0  0  0  0  0  0
    6.0343   -9.4274    5.7719 H   0  0  0  0  0  0  0  0  0  0  0  0
    5.1065  -10.2368    4.5476 H   0  0  0  0  0  0  0  0  0  0  0  0
    4.3386   -9.8528    6.0476 H   0  0  0  0  0  0  0  0  0  0  0  0
    3.6746   -6.3988    5.6292 H   0  0  0  0  0  0  0  0  0  0  0  0
    5.9946   -6.0582    7.1288 H   0  0  0  0  0  0  0  0  0  0  0  0
    7.0352   -5.9302    4.3553 H   0  0  0  0  0  0  0  0  0  0  0  0
    7.3889   -7.1679    5.5753 H   0  0  0  0  0  0  0  0  0  0  0  0
    7.8121   -5.4977    5.8526 H   0  0  0  0  0  0  0  0  0  0  0  0
    6.0287   -3.8760    5.4598 H   0  0  0  0  0  0  0  0  0  0  0  0
    5.7008   -4.0355    7.0710 H   0  0  0  0  0  0  0  0  0  0  0  0
    6.5778   -8.2000    3.7479 H   0  0  0  0  0  0  0  0  0  0  0  0
    2.4292   -4.7969    2.9473 H   0  0  0  0  0  0  0  0  0  0  0  0
    2.1418   -5.4251    4.5148 H   0  0  0  0  0  0  0  0  0  0  0  0
    3.7797   -5.4517    3.8515 H   0  0  0  0  0  0  0  0  0  0  0  0
    1.1430   -3.0289    3.8266 H   0  0  0  0  0  0  0  0  0  0  0  0
    1.7247   -1.8559    4.9735 H   0  0  0  0  0  0  0  0  0  0  0  0
    1.1365   -3.4106    5.5072 H   0  0  0  0  0  0  0  0  0  0  0  0
  1  2  2  0
  1 47  1  0
  1 48  1  0
  2 39  1  0
  2  3  1  0
  3 12  1  0
  3  4  1  0
  3 49  1  1
  4  5  1  0
  4 50  1  0
  4 51  1  0
  5  6  1  0
  5  7  1  0
  5 52  1  6
  6 53  1  0
  7  8  1  0
  7  9  2  0
  8 54  1  0
  8 55  1  0
  8 56  1  0
  9 10  1  0
  9 11  1  0
 10 57  1  0
 10 58  1  0
 10 59  1  0
 11 12  1  0
 11 60  1  0
 11 61  1  0
 12 13  1  0
 12 62  1  1
 14 13  1  1
 14 42  1  0
 14 44  1  0
 14 15  1  0
 15 16  1  0
 15 63  1  0
 15 64  1  0
 16 17  1  0
 16 65  1  0
 16 66  1  0
 17 18  1  0
 17 44  1  0
 17 67  1  6
 18 30  1  0
 18 19  1  6
 18 20  1  0
 19 68  1  0
 19 69  1  0
 19 70  1  0
 20 21  1  0
 20 71  1  0
 20 72  1  0
 21 22  1  0
 21 73  1  0
 21 74  1  0
 22 28  1  0
 22 23  1  0
 22 75  1  6
 23 24  1  0
 23 76  1  0
 23 77  1  0
 24 25  2  0
 24 26  1  0
 26 27  2  0
 26 78  1  0
 27 28  1  0
 27 79  1  0
 28 29  1  6
 28 30  1  0
 29 80  1  0
 29 81  1  0
 29 82  1  0
 30 31  1  0
 30 83  1  1
 31 32  1  0
 31 84  1  0
 31 85  1  0
 32 33  1  0
 32 86  1  0
 32 87  1  0
 33 43  1  0
 33 34  1  0
 33 88  1  6
 34 43  1  0
 34 35  1  0
 34 89  1  6
 35 36  1  0
 35 90  1  0
 35 91  1  0
 36 37  1  0
 36 92  1  0
 36 93  1  0
 37 38  1  1
 37 39  1  0
 37 43  1  0
 38 94  1  0
 38 95  1  0
 38 96  1  0
 39 40  1  0
 39 97  1  6
 40 41  1  0
 40 42  1  0
 40 98  1  1
 41 99  1  0
 41100  1  0
 41101  1  0
 42102  1  0
 42103  1  0
 43104  1  1
 44 45  1  0
 44 46  1  0
 45105  1  0
 45106  1  0
 45107  1  0
 46108  1  0
 46109  1  0
 46110  1  0
M  END
>  <i_m_ct_stereo_status>  (368) 
1

>  <s_m_source_file>  (368) 
/var/tmp/pbs.5076255.sched01/tmpcwktr4ti/1290j0z1rin.sdf

>  <i_m_source_file_index>  (368) 
37

>  <i_lp_mmshare_version>  (368) 
48012

>  <i_f3d_flags>  (368) 
0

>  <s_epik_input>  (368) 
W0NIM11DKFtDSDJdMSk9QyhbQ0gzXSlbQ0BIXShbT0hdKVtDSDJdW0NASF0oW0NASF0xT1tDQEBdMjM0KUMoPVtDSDJdKVtDQEBIXShbQ0BASF0oW0NIM10pW0NIMl0zKVtDQF01KFtDSDNdKVtDQEBIXTZbQ0BASF0oW0NAQEhdNltDSDJdW0NIMl01KVtDSDJdW0NIMl1bQ0BASF03W0NAQF0oW0NIM10pKFtDQEBIXShbQ0gyXVtDSDJdMilDNChbQ0gzXSlbQ0gzXSlbQ0gyXVtDSDJdW0NASF04W0NAXTcoW0NIM10pW0NIXT1bQ0hdQyg9TylbQ0gyXTg=

>  <s_epik_cmdline>  (368) 
J2VwaWtfcHl0aG9uJywgJy1waHQnLCAnMi4wJywgJy1waCcsICc3LjAnLCAnLXRuJywgJzgnLCAnLW1hJywgJzIwMCcsICctaW1hZScsICc8aW5maWxlLm1hZT4nLCAnLW9tYWUnLCAnPG91dGZpbGUubWFlPic=

>  <r_lp_tautomer_probability>  (368) 
1

>  <r_epik_Ionization_Penalty>  (368) 
7.81489e-08

>  <r_epik_Ionization_Penalty_Charging>  (368) 
0

>  <r_epik_Ionization_Penalty_Neutral>  (368) 
7.81489e-08

>  <r_epik_State_Penalty>  (368) 
-0

>  <r_epik_Charging_Adjusted_Penalty>  (368) 
0

>  <i_epik_Tot_Q>  (368) 
0

>  <i_epik_Tot_abs_Q>  (368) 
0

>  <s_lp_Force_Field>  (368) 
OPLS3e

>  <r_lp_Energy>  (368) 
175.152

>  <b_lp_Chiralities_Consistent>  (368) 
1

>  <s_lp_Variant>  (368) 
113:0-1

>  <s_i_glide_gridfile>  (368) 
pfpi4k_grid

>  <i_i_glide_lignum>  (368) 
37

>  <i_i_glide_rotatable_bonds>  (368) 
1

>  <r_i_docking_score>  (368) 
-3.10241

>  <r_i_glide_ligand_efficiency>  (368) 
-0.0674436

>  <r_i_glide_ligand_efficiency_sa>  (368) 
-0.241654

>  <r_i_glide_ligand_efficiency_ln>  (368) 
-0.642501

>  <r_i_glide_gscore>  (368) 
-3.10241

>  <r_i_glide_lipo>  (368) 
-0.51343

>  <r_i_glide_hbond>  (368) 
-0.286438

>  <r_i_glide_metal>  (368) 
-0

>  <r_i_glide_rewards>  (368) 
0

>  <r_i_glide_evdw>  (368) 
-35.8216

>  <r_i_glide_ecoul>  (368) 
-3.09756

>  <r_i_glide_erotb>  (368) 
0

>  <r_i_glide_esite>  (368) 
-0.0468281

>  <r_i_glide_emodel>  (368) 
-45.7281

>  <r_i_glide_energy>  (368) 
-38.9191

>  <r_i_glide_einternal>  (368) 
0.0927915

>  <r_i_glide_intrahb_reward>  (368) 
-0

>  <i_i_glide_confnum>  (368) 
1

>  <i_i_glide_posenum>  (368) 
6

>  <r_i_glide_eff_state_penalty>  (368) 
0

>  <ligand_id>  (368) 
113

>  <original_smiles>  (368) 
C=C1C2CC(O)C(C)=C(C)CC2OC23CCC(C4(C)CCC5CC(=O)C=CC5(C)C4CCC4C5CCC(C)(C1C(C)C2)C45)C3(C)C

>  <smiles>  (368) 
[H]OC1([H])C(C([H])([H])[H])=C(C([H])([H])[H])C([H])([H])C2([H])OC34C([H])([H])C([H])([H])C([H])(C5(C([H])([H])[H])C([H])([H])C([H])([H])C6([H])C([H])([H])C(=O)C([H])=C([H])C6(C([H])([H])[H])C5([H])C([H])([H])C([H])([H])C5([H])C6([H])C([H])([H])C([H])([H])C(C([H])([H])[H])(C([H])(C(=C([H])[H])C2([H])C1([H])[H])C([H])(C([H])([H])[H])C3([H])[H])C56[H])C4(C([H])([H])[H])C([H])([H])[H]

$$$$
114:0:0
     RDKit          3D

 48 50  0  0  1  0  0  0  0  0999 V2000
    5.9657   -3.9687    1.0209 C   0  0  0  0  0  0  0  0  0  0  0  0
    4.7755   -3.4561    0.6310 C   0  0  0  0  0  0  0  0  0  0  0  0
    4.0728   -2.0994    0.9028 C   0  0  1  0  0  0  0  0  0  0  0  0
    4.1395   -1.1789   -0.4236 C   0  0  0  0  0  0  0  0  0  0  0  0
    3.4537   -1.7359   -1.5983 N   0  0  0  0  0  0  0  0  0  0  0  0
    3.5451   -0.8721   -2.8021 C   0  0  0  0  0  0  0  0  0  0  0  0
    3.1692   -1.7807   -3.9714 C   0  0  0  0  0  0  0  0  0  0  0  0
    3.4535   -3.2048   -3.4909 C   0  0  0  0  0  0  0  0  0  0  0  0
    3.9444   -3.0454   -2.0971 C   0  0  0  0  0  0  0  0  0  0  0  0
    2.6218   -2.2242    1.4244 C   0  0  2  0  0  0  0  0  0  0  0  0
    2.2364   -0.7648    1.8003 C   0  0  0  0  0  0  0  0  0  0  0  0
    3.5658   -0.2189    2.3511 C   0  0  0  0  0  0  0  0  0  0  0  0
    4.5325   -1.4103    2.2120 C   0  0  2  0  0  0  0  0  0  0  0  0
    6.0005   -0.9394    2.3157 C   0  0  0  0  0  0  0  0  0  0  0  0
    4.1068   -2.4874    3.2666 C   0  0  0  0  0  0  0  0  0  0  0  0
    2.7881   -3.1023    2.7072 C   0  0  0  0  0  0  0  0  0  0  0  0
    1.5978   -2.9704    3.6668 C   0  0  0  0  0  0  0  0  0  0  0  0
    2.8920   -4.6398    2.4144 C   0  0  0  0  0  0  0  0  0  0  0  0
    6.6962   -3.4710    1.6282 H   0  0  0  0  0  0  0  0  0  0  0  0
    6.1866   -4.9589    0.6509 H   0  0  0  0  0  0  0  0  0  0  0  0
    4.1699   -4.1401    0.0642 H   0  0  0  0  0  0  0  0  0  0  0  0
    3.6653   -0.1990   -0.2642 H   0  0  0  0  0  0  0  0  0  0  0  0
    5.1782   -0.9158   -0.6616 H   0  0  0  0  0  0  0  0  0  0  0  0
    2.9415    0.0315   -2.7301 H   0  0  0  0  0  0  0  0  0  0  0  0
    4.5949   -0.5779   -2.9041 H   0  0  0  0  0  0  0  0  0  0  0  0
    2.0994   -1.6851   -4.1929 H   0  0  0  0  0  0  0  0  0  0  0  0
    3.7451   -1.5394   -4.8702 H   0  0  0  0  0  0  0  0  0  0  0  0
    2.5138   -3.7693   -3.4439 H   0  0  0  0  0  0  0  0  0  0  0  0
    4.1554   -3.7647   -4.1069 H   0  0  0  0  0  0  0  0  0  0  0  0
    5.0353   -3.0190   -2.0849 H   0  0  0  0  0  0  0  0  0  0  0  0
    3.5438   -3.9010   -1.5909 H   0  0  0  0  0  0  0  0  0  0  0  0
    1.9174   -2.6459    0.7057 H   0  0  0  0  0  0  0  0  0  0  0  0
    1.9054   -0.1886    0.9329 H   0  0  0  0  0  0  0  0  0  0  0  0
    1.4179   -0.6667    2.5021 H   0  0  0  0  0  0  0  0  0  0  0  0
    3.9129    0.6329    1.7508 H   0  0  0  0  0  0  0  0  0  0  0  0
    3.4764    0.1529    3.3798 H   0  0  0  0  0  0  0  0  0  0  0  0
    6.2174   -0.6687    3.3515 H   0  0  0  0  0  0  0  0  0  0  0  0
    6.1824   -0.0888    1.6615 H   0  0  0  0  0  0  0  0  0  0  0  0
    6.7377   -1.6625    2.0140 H   0  0  0  0  0  0  0  0  0  0  0  0
    4.8649   -3.2513    3.3760 H   0  0  0  0  0  0  0  0  0  0  0  0
    3.9752   -2.0621    4.2662 H   0  0  0  0  0  0  0  0  0  0  0  0
    1.6557   -3.7161    4.4575 H   0  0  0  0  0  0  0  0  0  0  0  0
    0.6609   -3.1345    3.1372 H   0  0  0  0  0  0  0  0  0  0  0  0
    1.5429   -2.0041    4.1675 H   0  0  0  0  0  0  0  0  0  0  0  0
    2.7282   -5.2410    3.3103 H   0  0  0  0  0  0  0  0  0  0  0  0
    3.8759   -4.9811    2.1006 H   0  0  0  0  0  0  0  0  0  0  0  0
    2.1831   -4.9201    1.6290 H   0  0  0  0  0  0  0  0  0  0  0  0
    2.4520   -1.8251   -1.3869 H   0  0  0  0  0  0  0  0  0  0  0  0
  1  2  2  0
  1 19  1  0
  1 20  1  0
  2  3  1  0
  2 21  1  0
  3 13  1  0
  3  4  1  6
  3 10  1  0
  4  5  1  0
  4 22  1  0
  4 23  1  0
  5  9  1  0
  5  6  1  0
  5 48  1  0
  6  7  1  0
  6 24  1  0
  6 25  1  0
  7  8  1  0
  7 26  1  0
  7 27  1  0
  8  9  1  0
  8 28  1  0
  8 29  1  0
  9 30  1  0
  9 31  1  0
 10 16  1  0
 10 11  1  0
 10 32  1  6
 11 12  1  0
 11 33  1  0
 11 34  1  0
 12 13  1  0
 12 35  1  0
 12 36  1  0
 13 14  1  6
 13 15  1  0
 14 37  1  0
 14 38  1  0
 14 39  1  0
 15 16  1  0
 15 40  1  0
 15 41  1  0
 16 17  1  0
 16 18  1  0
 17 42  1  0
 17 43  1  0
 17 44  1  0
 18 45  1  0
 18 46  1  0
 18 47  1  0
M  CHG  1   5   1
M  END
>  <i_m_ct_stereo_status>  (369) 
1

>  <s_m_source_file>  (369) 
/var/tmp/pbs.5076255.sched01/tmpcwktr4ti/1290j0z1rin.sdf

>  <i_m_source_file_index>  (369) 
38

>  <i_lp_mmshare_version>  (369) 
48012

>  <i_f3d_flags>  (369) 
0

>  <s_epik_input>  (369) 
W0NIMl0xW0NIMl1bQ0BIXShDKFtDSDJdMikoW0NIM10pW0NIM10pW0NAXShbQ0hdPVtDSDJdKShbQ0BAXTEyW0NIM10pW0NIMl1OM1tDSDJdW0NIMl1bQ0gyXVtDSDJdMw==

>  <s_epik_cmdline>  (369) 
J2VwaWtfcHl0aG9uJywgJy1waHQnLCAnMi4wJywgJy1waCcsICc3LjAnLCAnLXRuJywgJzgnLCAnLW1hJywgJzIwMCcsICctaW1hZScsICc8aW5maWxlLm1hZT4nLCAnLW9tYWUnLCAnPG91dGZpbGUubWFlPic=

>  <r_lp_tautomer_probability>  (369) 
1

>  <r_epik_Ionization_Penalty>  (369) 
0.000195824

>  <r_epik_Ionization_Penalty_Charging>  (369) 
0.000195824

>  <r_epik_Ionization_Penalty_Neutral>  (369) 
0

>  <r_epik_State_Penalty>  (369) 
-0

>  <r_epik_Charging_Adjusted_Penalty>  (369) 
0.000195824

>  <i_epik_Tot_Q>  (369) 
1

>  <i_epik_Tot_abs_Q>  (369) 
1

>  <s_lp_Force_Field>  (369) 
OPLS3e

>  <r_lp_Energy>  (369) 
64.9483

>  <b_lp_Chiralities_Consistent>  (369) 
1

>  <s_lp_Variant>  (369) 
114:0-1

>  <s_i_glide_gridfile>  (369) 
pfpi4k_grid

>  <i_i_glide_lignum>  (369) 
38

>  <i_i_glide_rotatable_bonds>  (369) 
3

>  <r_i_docking_score>  (369) 
-3.26549

>  <r_i_glide_ligand_efficiency>  (369) 
-0.181416

>  <r_i_glide_ligand_efficiency_sa>  (369) 
-0.475445

>  <r_i_glide_ligand_efficiency_ln>  (369) 
-0.839378

>  <r_i_glide_gscore>  (369) 
-3.26549

>  <r_i_glide_lipo>  (369) 
-0.537458

>  <r_i_glide_hbond>  (369) 
-0.2

>  <r_i_glide_metal>  (369) 
-0

>  <r_i_glide_rewards>  (369) 
-1.71527

>  <r_i_glide_evdw>  (369) 
-19.5863

>  <r_i_glide_ecoul>  (369) 
-4.3181

>  <r_i_glide_erotb>  (369) 
0.849136

>  <r_i_glide_esite>  (369) 
-0.0844169

>  <r_i_glide_emodel>  (369) 
-24.7939

>  <r_i_glide_energy>  (369) 
-23.9044

>  <r_i_glide_einternal>  (369) 
1.93862

>  <r_i_glide_intrahb_reward>  (369) 
-0

>  <i_i_glide_confnum>  (369) 
2

>  <i_i_glide_posenum>  (369) 
29

>  <r_i_glide_eff_state_penalty>  (369) 
0

>  <ligand_id>  (369) 
114

>  <original_smiles>  (369) 
C=CC1(CN2CCCC2)C2CCC1(C)CC2(C)C

>  <smiles>  (369) 
[H]C([H])=C([H])C1(C([H])([H])[N+]2([H])C([H])([H])C([H])([H])C([H])([H])C2([H])[H])C2([H])C([H])([H])C([H])([H])C1(C([H])([H])[H])C([H])([H])C2(C([H])([H])[H])C([H])([H])[H]

$$$$
114:0:1
     RDKit          3D

 48 50  0  0  1  0  0  0  0  0999 V2000
    3.7948   -0.1107    0.8095 C   0  0  0  0  0  0  0  0  0  0  0  0
    3.4833   -1.4052    0.6691 C   0  0  0  0  0  0  0  0  0  0  0  0
    4.4177   -2.6436    0.4805 C   0  0  1  0  0  0  0  0  0  0  0  0
    4.3267   -3.5106    1.8096 C   0  0  0  0  0  0  0  0  0  0  0  0
    3.0055   -4.2181    1.9739 N   0  0  0  0  0  0  0  0  0  0  0  0
    2.9585   -5.5866    1.3994 C   0  0  0  0  0  0  0  0  0  0  0  0
    1.7385   -6.2443    2.0201 C   0  0  0  0  0  0  0  0  0  0  0  0
    1.4897   -5.4617    3.3200 C   0  0  0  0  0  0  0  0  0  0  0  0
    2.5896   -4.3979    3.3698 C   0  0  0  0  0  0  0  0  0  0  0  0
    4.1114   -3.4749   -0.7971 C   0  0  2  0  0  0  0  0  0  0  0  0
    5.2366   -4.5614   -0.7394 C   0  0  0  0  0  0  0  0  0  0  0  0
    6.4446   -3.7573   -0.2300 C   0  0  0  0  0  0  0  0  0  0  0  0
    5.8684   -2.3283   -0.0042 C   0  0  2  0  0  0  0  0  0  0  0  0
    6.7942   -1.5061    0.9005 C   0  0  0  0  0  0  0  0  0  0  0  0
    5.6091   -1.7381   -1.4082 C   0  0  0  0  0  0  0  0  0  0  0  0
    4.3580   -2.4790   -1.9582 C   0  0  0  0  0  0  0  0  0  0  0  0
    4.5982   -3.1991   -3.2941 C   0  0  0  0  0  0  0  0  0  0  0  0
    3.1566   -1.5250   -2.2393 C   0  0  0  0  0  0  0  0  0  0  0  0
    4.7946    0.2537    0.8587 H   0  0  0  0  0  0  0  0  0  0  0  0
    2.9752    0.5862    0.9312 H   0  0  0  0  0  0  0  0  0  0  0  0
    2.4184   -1.6766    0.6727 H   0  0  0  0  0  0  0  0  0  0  0  0
    5.1013   -4.2868    1.9336 H   0  0  0  0  0  0  0  0  0  0  0  0
    4.4897   -2.8583    2.6872 H   0  0  0  0  0  0  0  0  0  0  0  0
    2.9110   -5.6475    0.3113 H   0  0  0  0  0  0  0  0  0  0  0  0
    3.8459   -6.1339    1.7351 H   0  0  0  0  0  0  0  0  0  0  0  0
    0.8918   -6.1493    1.3400 H   0  0  0  0  0  0  0  0  0  0  0  0
    1.9149   -7.3077    2.1844 H   0  0  0  0  0  0  0  0  0  0  0  0
    0.5136   -4.9783    3.2791 H   0  0  0  0  0  0  0  0  0  0  0  0
    1.5218   -6.1076    4.1955 H   0  0  0  0  0  0  0  0  0  0  0  0
    3.4505   -4.7891    3.9197 H   0  0  0  0  0  0  0  0  0  0  0  0
    2.2799   -3.4633    3.8414 H   0  0  0  0  0  0  0  0  0  0  0  0
    3.1128   -3.8884   -0.8371 H   0  0  0  0  0  0  0  0  0  0  0  0
    5.0355   -5.3967   -0.0664 H   0  0  0  0  0  0  0  0  0  0  0  0
    5.4104   -5.0152   -1.7042 H   0  0  0  0  0  0  0  0  0  0  0  0
    6.8242   -4.2054    0.6900 H   0  0  0  0  0  0  0  0  0  0  0  0
    7.2848   -3.7948   -0.9264 H   0  0  0  0  0  0  0  0  0  0  0  0
    7.7238   -1.2976    0.3716 H   0  0  0  0  0  0  0  0  0  0  0  0
    7.0121   -2.1211    1.7627 H   0  0  0  0  0  0  0  0  0  0  0  0
    6.3893   -0.5943    1.2751 H   0  0  0  0  0  0  0  0  0  0  0  0
    5.4170   -0.6696   -1.3533 H   0  0  0  0  0  0  0  0  0  0  0  0
    6.4614   -1.8786   -2.0611 H   0  0  0  0  0  0  0  0  0  0  0  0
    4.5855   -2.5095   -4.1292 H   0  0  0  0  0  0  0  0  0  0  0  0
    3.8094   -3.9261   -3.4903 H   0  0  0  0  0  0  0  0  0  0  0  0
    5.5501   -3.7205   -3.3654 H   0  0  0  0  0  0  0  0  0  0  0  0
    3.2078   -1.0650   -3.2284 H   0  0  0  0  0  0  0  0  0  0  0  0
    3.0821   -0.7148   -1.5207 H   0  0  0  0  0  0  0  0  0  0  0  0
    2.2214   -2.0938   -2.1924 H   0  0  0  0  0  0  0  0  0  0  0  0
    2.3033   -3.6518    1.5130 H   0  0  0  0  0  0  0  0  0  0  0  0
  1  2  2  0
  1 19  1  0
  1 20  1  0
  2  3  1  0
  2 21  1  0
  3 13  1  0
  3  4  1  1
  3 10  1  0
  4  5  1  0
  4 22  1  0
  4 23  1  0
  5  9  1  0
  5  6  1  0
  5 48  1  0
  6  7  1  0
  6 24  1  0
  6 25  1  0
  7  8  1  0
  7 26  1  0
  7 27  1  0
  8  9  1  0
  8 28  1  0
  8 29  1  0
  9 30  1  0
  9 31  1  0
 10 16  1  0
 10 11  1  0
 10 32  1  1
 11 12  1  0
 11 33  1  0
 11 34  1  0
 12 13  1  0
 12 35  1  0
 12 36  1  0
 13 14  1  1
 13 15  1  0
 14 37  1  0
 14 38  1  0
 14 39  1  0
 15 16  1  0
 15 40  1  0
 15 41  1  0
 16 17  1  0
 16 18  1  0
 17 42  1  0
 17 43  1  0
 17 44  1  0
 18 45  1  0
 18 46  1  0
 18 47  1  0
M  CHG  1   5   1
M  END
>  <i_m_ct_stereo_status>  (370) 
1

>  <s_m_source_file>  (370) 
/var/tmp/pbs.5076255.sched01/tmpcwktr4ti/1290j0z1rin.sdf

>  <i_m_source_file_index>  (370) 
38

>  <i_lp_mmshare_version>  (370) 
48012

>  <i_f3d_flags>  (370) 
0

>  <s_epik_input>  (370) 
W0NIMl0xW0NIMl1bQ0BIXShDKFtDSDJdMikoW0NIM10pW0NIM10pW0NAXShbQ0hdPVtDSDJdKShbQ0BAXTEyW0NIM10pW0NIMl1OM1tDSDJdW0NIMl1bQ0gyXVtDSDJdMw==

>  <s_epik_cmdline>  (370) 
J2VwaWtfcHl0aG9uJywgJy1waHQnLCAnMi4wJywgJy1waCcsICc3LjAnLCAnLXRuJywgJzgnLCAnLW1hJywgJzIwMCcsICctaW1hZScsICc8aW5maWxlLm1hZT4nLCAnLW9tYWUnLCAnPG91dGZpbGUubWFlPic=

>  <r_lp_tautomer_probability>  (370) 
1

>  <r_epik_Ionization_Penalty>  (370) 
0.000195824

>  <r_epik_Ionization_Penalty_Charging>  (370) 
0.000195824

>  <r_epik_Ionization_Penalty_Neutral>  (370) 
0

>  <r_epik_State_Penalty>  (370) 
-0

>  <r_epik_Charging_Adjusted_Penalty>  (370) 
0.000195824

>  <i_epik_Tot_Q>  (370) 
1

>  <i_epik_Tot_abs_Q>  (370) 
1

>  <s_lp_Force_Field>  (370) 
OPLS3e

>  <r_lp_Energy>  (370) 
64.9483

>  <b_lp_Chiralities_Consistent>  (370) 
1

>  <s_lp_Variant>  (370) 
114:0-1

>  <s_i_glide_gridfile>  (370) 
pfpi4k_grid

>  <i_i_glide_lignum>  (370) 
38

>  <i_i_glide_rotatable_bonds>  (370) 
3

>  <r_i_docking_score>  (370) 
-2.5944

>  <r_i_glide_ligand_efficiency>  (370) 
-0.144133

>  <r_i_glide_ligand_efficiency_sa>  (370) 
-0.377736

>  <r_i_glide_ligand_efficiency_ln>  (370) 
-0.666877

>  <r_i_glide_gscore>  (370) 
-2.5944

>  <r_i_glide_lipo>  (370) 
-0.318637

>  <r_i_glide_hbond>  (370) 
0

>  <r_i_glide_metal>  (370) 
-0

>  <r_i_glide_rewards>  (370) 
-1.71527

>  <r_i_glide_evdw>  (370) 
-21.1891

>  <r_i_glide_ecoul>  (370) 
-2.32092

>  <r_i_glide_erotb>  (370) 
0.849136

>  <r_i_glide_esite>  (370) 
-0.00203412

>  <r_i_glide_emodel>  (370) 
-23.1818

>  <r_i_glide_energy>  (370) 
-23.51

>  <r_i_glide_einternal>  (370) 
4.72199

>  <r_i_glide_intrahb_reward>  (370) 
-0

>  <i_i_glide_confnum>  (370) 
2

>  <i_i_glide_posenum>  (370) 
39

>  <r_i_glide_eff_state_penalty>  (370) 
0

>  <ligand_id>  (370) 
114

>  <original_smiles>  (370) 
C=CC1(CN2CCCC2)C2CCC1(C)CC2(C)C

>  <smiles>  (370) 
[H]C([H])=C([H])C1(C([H])([H])[N+]2([H])C([H])([H])C([H])([H])C([H])([H])C2([H])[H])C2([H])C([H])([H])C([H])([H])C1(C([H])([H])[H])C([H])([H])C2(C([H])([H])[H])C([H])([H])[H]

$$$$
114:0:2
     RDKit          3D

 48 50  0  0  1  0  0  0  0  0999 V2000
    3.5884   -1.0069    0.9113 C   0  0  0  0  0  0  0  0  0  0  0  0
    3.4797   -2.1224    0.1480 C   0  0  0  0  0  0  0  0  0  0  0  0
    4.5274   -2.9693   -0.6131 C   0  0  1  0  0  0  0  0  0  0  0  0
    4.8030   -4.3206    0.1446 C   0  0  0  0  0  0  0  0  0  0  0  0
    3.5597   -5.0777    0.5061 N   0  0  0  0  0  0  0  0  0  0  0  0
    3.8444   -6.4655    0.9100 C   0  0  0  0  0  0  0  0  0  0  0  0
    2.5633   -6.9355    1.6048 C   0  0  0  0  0  0  0  0  0  0  0  0
    1.8740   -5.6557    2.0764 C   0  0  0  0  0  0  0  0  0  0  0  0
    2.7982   -4.5419    1.6563 C   0  0  0  0  0  0  0  0  0  0  0  0
    4.1013   -3.1984   -2.1035 C   0  0  2  0  0  0  0  0  0  0  0  0
    5.3635   -3.8590   -2.7128 C   0  0  0  0  0  0  0  0  0  0  0  0
    6.5121   -3.1422   -1.9739 C   0  0  0  0  0  0  0  0  0  0  0  0
    5.7768   -2.1550   -1.0449 C   0  0  2  0  0  0  0  0  0  0  0  0
    6.7221   -1.6545    0.0888 C   0  0  0  0  0  0  0  0  0  0  0  0
    5.1387   -1.0603   -1.9560 C   0  0  0  0  0  0  0  0  0  0  0  0
    3.9643   -1.7734   -2.6930 C   0  0  0  0  0  0  0  0  0  0  0  0
    3.9755   -1.7023   -4.1991 C   0  0  0  0  0  0  0  0  0  0  0  0
    2.6397   -1.1166   -2.3824 C   0  0  0  0  0  0  0  0  0  0  0  0
    4.4933   -0.4683    1.0926 H   0  0  0  0  0  0  0  0  0  0  0  0
    2.6910   -0.6052    1.3617 H   0  0  0  0  0  0  0  0  0  0  0  0
    2.4836   -2.4976   -0.0055 H   0  0  0  0  0  0  0  0  0  0  0  0
    5.4025   -5.0369   -0.4323 H   0  0  0  0  0  0  0  0  0  0  0  0
    5.4010   -4.1525    1.0482 H   0  0  0  0  0  0  0  0  0  0  0  0
    4.1686   -7.1099    0.0896 H   0  0  0  0  0  0  0  0  0  0  0  0
    4.6502   -6.4325    1.6451 H   0  0  0  0  0  0  0  0  0  0  0  0
    1.9206   -7.4497    0.8885 H   0  0  0  0  0  0  0  0  0  0  0  0
    2.7679   -7.5953    2.4469 H   0  0  0  0  0  0  0  0  0  0  0  0
    0.9280   -5.5295    1.5515 H   0  0  0  0  0  0  0  0  0  0  0  0
    1.6837   -5.5963    3.1478 H   0  0  0  0  0  0  0  0  0  0  0  0
    3.5095   -4.2882    2.4451 H   0  0  0  0  0  0  0  0  0  0  0  0
    2.1409   -3.6893    1.5091 H   0  0  0  0  0  0  0  0  0  0  0  0
    3.2156   -3.8158   -2.2427 H   0  0  0  0  0  0  0  0  0  0  0  0
    5.3486   -4.9111   -2.5130 H   0  0  0  0  0  0  0  0  0  0  0  0
    5.4490   -3.8170   -3.7962 H   0  0  0  0  0  0  0  0  0  0  0  0
    7.0936   -3.8527   -1.3831 H   0  0  0  0  0  0  0  0  0  0  0  0
    7.2050   -2.6631   -2.6658 H   0  0  0  0  0  0  0  0  0  0  0  0
    7.4573   -0.9502   -0.2312 H   0  0  0  0  0  0  0  0  0  0  0  0
    7.2562   -2.4813    0.5504 H   0  0  0  0  0  0  0  0  0  0  0  0
    6.2650   -1.1010    0.8910 H   0  0  0  0  0  0  0  0  0  0  0  0
    4.7760   -0.2263   -1.3576 H   0  0  0  0  0  0  0  0  0  0  0  0
    5.8448   -0.6339   -2.6639 H   0  0  0  0  0  0  0  0  0  0  0  0
    3.7295   -0.7255   -4.5965 H   0  0  0  0  0  0  0  0  0  0  0  0
    3.3471   -2.4551   -4.6492 H   0  0  0  0  0  0  0  0  0  0  0  0
    4.9660   -1.8631   -4.5573 H   0  0  0  0  0  0  0  0  0  0  0  0
    2.4179   -0.2369   -2.9968 H   0  0  0  0  0  0  0  0  0  0  0  0
    2.6984   -0.6514   -1.4225 H   0  0  0  0  0  0  0  0  0  0  0  0
    1.8312   -1.8581   -2.4682 H   0  0  0  0  0  0  0  0  0  0  0  0
    2.9829   -5.1219   -0.3272 H   0  0  0  0  0  0  0  0  0  0  0  0
  1  2  2  0
  1 19  1  0
  1 20  1  0
  2  3  1  0
  2 21  1  0
  3 13  1  0
  3  4  1  1
  3 10  1  0
  4  5  1  0
  4 22  1  0
  4 23  1  0
  5  9  1  0
  5  6  1  0
  5 48  1  0
  6  7  1  0
  6 24  1  0
  6 25  1  0
  7  8  1  0
  7 26  1  0
  7 27  1  0
  8  9  1  0
  8 28  1  0
  8 29  1  0
  9 30  1  0
  9 31  1  0
 10 16  1  0
 10 11  1  0
 10 32  1  1
 11 12  1  0
 11 33  1  0
 11 34  1  0
 12 13  1  0
 12 35  1  0
 12 36  1  0
 13 14  1  1
 13 15  1  0
 14 37  1  0
 14 38  1  0
 14 39  1  0
 15 16  1  0
 15 40  1  0
 15 41  1  0
 16 17  1  0
 16 18  1  0
 17 42  1  0
 17 43  1  0
 17 44  1  0
 18 45  1  0
 18 46  1  0
 18 47  1  0
M  CHG  1   5   1
M  END
>  <i_m_ct_stereo_status>  (371) 
1

>  <s_m_source_file>  (371) 
/var/tmp/pbs.5076255.sched01/tmpcwktr4ti/1290j0z1rin.sdf

>  <i_m_source_file_index>  (371) 
38

>  <i_lp_mmshare_version>  (371) 
48012

>  <i_f3d_flags>  (371) 
0

>  <s_epik_input>  (371) 
W0NIMl0xW0NIMl1bQ0BIXShDKFtDSDJdMikoW0NIM10pW0NIM10pW0NAXShbQ0hdPVtDSDJdKShbQ0BAXTEyW0NIM10pW0NIMl1OM1tDSDJdW0NIMl1bQ0gyXVtDSDJdMw==

>  <s_epik_cmdline>  (371) 
J2VwaWtfcHl0aG9uJywgJy1waHQnLCAnMi4wJywgJy1waCcsICc3LjAnLCAnLXRuJywgJzgnLCAnLW1hJywgJzIwMCcsICctaW1hZScsICc8aW5maWxlLm1hZT4nLCAnLW9tYWUnLCAnPG91dGZpbGUubWFlPic=

>  <r_lp_tautomer_probability>  (371) 
1

>  <r_epik_Ionization_Penalty>  (371) 
0.000195824

>  <r_epik_Ionization_Penalty_Charging>  (371) 
0.000195824

>  <r_epik_Ionization_Penalty_Neutral>  (371) 
0

>  <r_epik_State_Penalty>  (371) 
-0

>  <r_epik_Charging_Adjusted_Penalty>  (371) 
0.000195824

>  <i_epik_Tot_Q>  (371) 
1

>  <i_epik_Tot_abs_Q>  (371) 
1

>  <s_lp_Force_Field>  (371) 
OPLS3e

>  <r_lp_Energy>  (371) 
64.9483

>  <b_lp_Chiralities_Consistent>  (371) 
1

>  <s_lp_Variant>  (371) 
114:0-1

>  <s_i_glide_gridfile>  (371) 
pfpi4k_grid

>  <i_i_glide_lignum>  (371) 
38

>  <i_i_glide_rotatable_bonds>  (371) 
3

>  <r_i_docking_score>  (371) 
-1.70359

>  <r_i_glide_ligand_efficiency>  (371) 
-0.0946436

>  <r_i_glide_ligand_efficiency_sa>  (371) 
-0.248037

>  <r_i_glide_ligand_efficiency_ln>  (371) 
-0.437898

>  <r_i_glide_gscore>  (371) 
-1.70359

>  <r_i_glide_lipo>  (371) 
-0.260539

>  <r_i_glide_hbond>  (371) 
0

>  <r_i_glide_metal>  (371) 
-0

>  <r_i_glide_rewards>  (371) 
-1.71527

>  <r_i_glide_evdw>  (371) 
-3.59635

>  <r_i_glide_ecoul>  (371) 
-2.6053

>  <r_i_glide_erotb>  (371) 
0.849136

>  <r_i_glide_esite>  (371) 
-0.00629789

>  <r_i_glide_emodel>  (371) 
-4.28252

>  <r_i_glide_energy>  (371) 
-6.20165

>  <r_i_glide_einternal>  (371) 
2.07094

>  <r_i_glide_intrahb_reward>  (371) 
-0

>  <i_i_glide_confnum>  (371) 
2

>  <i_i_glide_posenum>  (371) 
8

>  <r_i_glide_eff_state_penalty>  (371) 
0

>  <ligand_id>  (371) 
114

>  <original_smiles>  (371) 
C=CC1(CN2CCCC2)C2CCC1(C)CC2(C)C

>  <smiles>  (371) 
[H]C([H])=C([H])C1(C([H])([H])[N+]2([H])C([H])([H])C([H])([H])C([H])([H])C2([H])[H])C2([H])C([H])([H])C([H])([H])C1(C([H])([H])[H])C([H])([H])C2(C([H])([H])[H])C([H])([H])[H]

$$$$
115:0:0
     RDKit          3D

 50 53  0  0  1  0  0  0  0  0999 V2000
    3.5210   -2.3240   -0.4839 C   0  0  0  0  0  0  0  0  0  0  0  0
    2.9176   -3.7335   -0.4854 C   0  0  0  0  0  0  0  0  0  0  0  0
    3.5103   -4.5421    0.5207 O   0  0  0  0  0  0  0  0  0  0  0  0
    2.9053   -5.7870    0.6710 C   0  0  2  0  0  0  0  0  0  0  0  0
    1.6311   -5.6321    1.2734 O   0  0  0  0  0  0  0  0  0  0  0  0
    1.1551   -6.7963    1.8680 C   0  0  2  0  0  0  0  0  0  0  0  0
   -0.2144   -6.8686    2.0305 O   0  0  0  0  0  0  0  0  0  0  0  0
   -0.5641   -7.9842    2.8519 C   0  0  2  0  0  0  0  0  0  0  0  0
   -1.7598   -8.7071    2.2340 C   0  0  0  0  0  0  0  0  0  0  0  0
   -0.9912   -7.3752    4.1921 C   0  0  0  0  0  0  0  0  0  0  0  0
   -0.0730   -6.2361    4.6324 C   0  0  0  0  0  0  0  0  0  0  0  0
    1.3731   -6.7276    4.6181 C   0  0  2  0  0  0  0  0  0  0  0  0
    2.3738   -5.9242    5.5140 C   0  0  1  0  0  0  0  0  0  0  0  0
    1.8787   -5.7760    6.9725 C   0  0  0  0  0  0  0  0  0  0  0  0
    3.7802   -6.5861    5.5177 C   0  0  0  0  0  0  0  0  0  0  0  0
    4.3213   -6.9758    4.1267 C   0  0  0  0  0  0  0  0  0  0  0  0
    3.3683   -6.5330    3.0115 C   0  0  1  0  0  0  0  0  0  0  0  0
    3.8607   -6.6760    1.5628 C   0  0  1  0  0  0  0  0  0  0  0  0
    3.9985   -8.1433    1.0475 C   0  0  0  0  0  0  0  0  0  0  0  0
    1.9494   -7.1161    3.1934 C   0  0  2  0  0  0  0  0  0  0  0  0
    1.8986   -8.5233    3.2099 O   0  0  0  0  0  0  0  0  0  0  0  0
    0.4561   -9.0284    2.9679 O   0  0  0  0  0  0  0  0  0  0  0  0
    3.0725   -1.7156   -1.2729 H   0  0  0  0  0  0  0  0  0  0  0  0
    4.5950   -2.3521   -0.6549 H   0  0  0  0  0  0  0  0  0  0  0  0
    3.3329   -1.8200    0.4613 H   0  0  0  0  0  0  0  0  0  0  0  0
    1.8372   -3.6579   -0.3348 H   0  0  0  0  0  0  0  0  0  0  0  0
    3.0792   -4.1905   -1.4645 H   0  0  0  0  0  0  0  0  0  0  0  0
    2.7950   -6.2302   -0.3169 H   0  0  0  0  0  0  0  0  0  0  0  0
    1.3471   -7.5848    1.1276 H   0  0  0  0  0  0  0  0  0  0  0  0
   -1.4882   -9.1546    1.2811 H   0  0  0  0  0  0  0  0  0  0  0  0
   -2.5903   -8.0258    2.0805 H   0  0  0  0  0  0  0  0  0  0  0  0
   -2.1131   -9.5106    2.8770 H   0  0  0  0  0  0  0  0  0  0  0  0
   -1.9966   -6.9608    4.1048 H   0  0  0  0  0  0  0  0  0  0  0  0
   -1.0371   -8.1592    4.9503 H   0  0  0  0  0  0  0  0  0  0  0  0
   -0.1649   -5.3646    3.9863 H   0  0  0  0  0  0  0  0  0  0  0  0
   -0.4133   -5.9420    5.6217 H   0  0  0  0  0  0  0  0  0  0  0  0
    1.3287   -7.6645    5.1864 H   0  0  0  0  0  0  0  0  0  0  0  0
    2.4665   -4.9190    5.1035 H   0  0  0  0  0  0  0  0  0  0  0  0
    1.6472   -6.7477    7.4086 H   0  0  0  0  0  0  0  0  0  0  0  0
    0.9784   -5.1644    7.0470 H   0  0  0  0  0  0  0  0  0  0  0  0
    2.6369   -5.3200    7.6125 H   0  0  0  0  0  0  0  0  0  0  0  0
    4.4879   -5.9155    6.0070 H   0  0  0  0  0  0  0  0  0  0  0  0
    3.7560   -7.4856    6.1383 H   0  0  0  0  0  0  0  0  0  0  0  0
    5.3083   -6.5408    3.9888 H   0  0  0  0  0  0  0  0  0  0  0  0
    4.4610   -8.0564    4.0840 H   0  0  0  0  0  0  0  0  0  0  0  0
    3.3066   -5.4577    3.1302 H   0  0  0  0  0  0  0  0  0  0  0  0
    4.8497   -6.2198    1.4933 H   0  0  0  0  0  0  0  0  0  0  0  0
    3.0578   -8.6968    1.0742 H   0  0  0  0  0  0  0  0  0  0  0  0
    4.7383   -8.6835    1.6365 H   0  0  0  0  0  0  0  0  0  0  0  0
    4.3744   -8.1782    0.0252 H   0  0  0  0  0  0  0  0  0  0  0  0
  1  2  1  0
  1 23  1  0
  1 24  1  0
  1 25  1  0
  2  3  1  0
  2 26  1  0
  2 27  1  0
  3  4  1  0
  4 18  1  0
  4  5  1  0
  4 28  1  6
  5  6  1  0
  6 20  1  0
  6  7  1  0
  6 29  1  6
  7  8  1  0
  8 22  1  0
  8  9  1  6
  8 10  1  0
  9 30  1  0
  9 31  1  0
  9 32  1  0
 10 11  1  0
 10 33  1  0
 10 34  1  0
 11 12  1  0
 11 35  1  0
 11 36  1  0
 12 20  1  0
 12 13  1  0
 12 37  1  1
 13 14  1  0
 13 15  1  0
 13 38  1  6
 14 39  1  0
 14 40  1  0
 14 41  1  0
 15 16  1  0
 15 42  1  0
 15 43  1  0
 16 17  1  0
 16 44  1  0
 16 45  1  0
 17 18  1  0
 17 20  1  0
 17 46  1  1
 18 19  1  0
 18 47  1  1
 19 48  1  0
 19 49  1  0
 19 50  1  0
 20 21  1  1
 21 22  1  0
M  END
>  <i_m_ct_stereo_status>  (372) 
1

>  <s_m_source_file>  (372) 
/var/tmp/pbs.5076255.sched01/tmpcwktr4ti/1290j0z1rin.sdf

>  <i_m_source_file_index>  (372) 
39

>  <i_lp_mmshare_version>  (372) 
48012

>  <i_f3d_flags>  (372) 
0

>  <s_epik_input>  (372) 
W0NIM11bQ0gyXU9bQ0BIXShPW0NASF0xW0NAXTIzNClbQ0BIXShbQ0gzXSlbQ0BASF0zW0NIMl1bQ0gyXVtDQEhdKFtDSDNdKVtDQEhdMltDSDJdW0NIMl1bQ0BdKE8xKShbQ0gzXSlPTzQ=

>  <s_epik_cmdline>  (372) 
J2VwaWtfcHl0aG9uJywgJy1waHQnLCAnMi4wJywgJy1waCcsICc3LjAnLCAnLXRuJywgJzgnLCAnLW1hJywgJzIwMCcsICctaW1hZScsICc8aW5maWxlLm1hZT4nLCAnLW9tYWUnLCAnPG91dGZpbGUubWFlPic=

>  <r_lp_tautomer_probability>  (372) 
1

>  <r_epik_Ionization_Penalty>  (372) 
8.70126e-13

>  <r_epik_Ionization_Penalty_Charging>  (372) 
0

>  <r_epik_Ionization_Penalty_Neutral>  (372) 
8.70126e-13

>  <r_epik_State_Penalty>  (372) 
-0

>  <r_epik_Charging_Adjusted_Penalty>  (372) 
0

>  <i_epik_Tot_Q>  (372) 
0

>  <i_epik_Tot_abs_Q>  (372) 
0

>  <s_epik_Chemistry_Notes>  (372) 
This compound contains an acetal/aminal-like group ( X-CH(R)-Y where X, Y are N, S, or O) that may be acid/base labile, releasing an aldehyde.

>  <s_lp_Force_Field>  (372) 
OPLS3e

>  <r_lp_Energy>  (372) 
63.3538

>  <b_lp_Chiralities_Consistent>  (372) 
1

>  <s_lp_Variant>  (372) 
115:0-1

>  <s_i_glide_gridfile>  (372) 
pfpi4k_grid

>  <i_i_glide_lignum>  (372) 
39

>  <i_i_glide_rotatable_bonds>  (372) 
2

>  <r_i_docking_score>  (372) 
-3.05169

>  <r_i_glide_ligand_efficiency>  (372) 
-0.138713

>  <r_i_glide_ligand_efficiency_sa>  (372) 
-0.38868

>  <r_i_glide_ligand_efficiency_ln>  (372) 
-0.745944

>  <r_i_glide_gscore>  (372) 
-3.05169

>  <r_i_glide_lipo>  (372) 
-0.254338

>  <r_i_glide_hbond>  (372) 
-0.238614

>  <r_i_glide_metal>  (372) 
-0

>  <r_i_glide_rewards>  (372) 
-1.27908

>  <r_i_glide_evdw>  (372) 
-18.0529

>  <r_i_glide_ecoul>  (372) 
-2.90179

>  <r_i_glide_erotb>  (372) 
0.190166

>  <r_i_glide_esite>  (372) 
-0.131906

>  <r_i_glide_emodel>  (372) 
-25.1355

>  <r_i_glide_energy>  (372) 
-20.9547

>  <r_i_glide_einternal>  (372) 
0.0749608

>  <r_i_glide_intrahb_reward>  (372) 
-0

>  <i_i_glide_confnum>  (372) 
5

>  <i_i_glide_posenum>  (372) 
5

>  <r_i_glide_eff_state_penalty>  (372) 
0

>  <ligand_id>  (372) 
115

>  <original_smiles>  (372) 
CCOC1OC2OC3(C)CCC4C(C)CCC(C1C)C24OO3

>  <smiles>  (372) 
[H]C([H])([H])C([H])([H])OC1([H])OC2([H])OC3(C([H])([H])[H])OOC24C([H])(C([H])([H])C([H])([H])C([H])(C([H])([H])[H])C4([H])C([H])([H])C3([H])[H])C1([H])C([H])([H])[H]

$$$$
115:0:1
     RDKit          3D

 50 53  0  0  1  0  0  0  0  0999 V2000
    4.5437   -4.2773   -1.0791 C   0  0  0  0  0  0  0  0  0  0  0  0
    3.2434   -3.8889   -0.3587 C   0  0  0  0  0  0  0  0  0  0  0  0
    3.2509   -4.4727    0.9302 O   0  0  0  0  0  0  0  0  0  0  0  0
    2.7310   -5.7732    1.0166 C   0  0  2  0  0  0  0  0  0  0  0  0
    1.4169   -5.6976    1.5531 O   0  0  0  0  0  0  0  0  0  0  0  0
    0.9962   -6.9133    2.0862 C   0  0  2  0  0  0  0  0  0  0  0  0
   -0.3730   -7.0847    2.1693 O   0  0  0  0  0  0  0  0  0  0  0  0
   -0.6802   -8.2503    2.9391 C   0  0  2  0  0  0  0  0  0  0  0  0
   -1.7883   -9.0146    2.2397 C   0  0  0  0  0  0  0  0  0  0  0  0
   -1.2183   -7.7213    4.2703 C   0  0  0  0  0  0  0  0  0  0  0  0
   -0.4056   -6.5380    4.7945 C   0  0  0  0  0  0  0  0  0  0  0  0
    1.0700   -6.9297    4.8487 C   0  0  2  0  0  0  0  0  0  0  0  0
    1.9644   -6.0965    5.8214 C   0  0  1  0  0  0  0  0  0  0  0  0
    1.3916   -6.0413    7.2526 C   0  0  0  0  0  0  0  0  0  0  0  0
    3.4089   -6.6630    5.8721 C   0  0  0  0  0  0  0  0  0  0  0  0
    4.0459   -6.9623    4.4958 C   0  0  0  0  0  0  0  0  0  0  0  0
    3.1205   -6.5420    3.3565 C   0  0  1  0  0  0  0  0  0  0  0  0
    3.6911   -6.5972    1.9231 C   0  0  1  0  0  0  0  0  0  0  0  0
    3.9570   -8.0259    1.3634 C   0  0  0  0  0  0  0  0  0  0  0  0
    1.7422   -7.2246    3.4404 C   0  0  2  0  0  0  0  0  0  0  0  0
    1.7885   -8.6299    3.4082 O   0  0  0  0  0  0  0  0  0  0  0  0
    0.4021   -9.2219    3.0729 O   0  0  0  0  0  0  0  0  0  0  0  0
    4.5705   -3.8848   -2.0984 H   0  0  0  0  0  0  0  0  0  0  0  0
    4.6555   -5.3578   -1.1292 H   0  0  0  0  0  0  0  0  0  0  0  0
    5.4120   -3.8863   -0.5462 H   0  0  0  0  0  0  0  0  0  0  0  0
    3.1986   -2.8032   -0.2626 H   0  0  0  0  0  0  0  0  0  0  0  0
    2.3567   -4.1783   -0.9299 H   0  0  0  0  0  0  0  0  0  0  0  0
    2.6658   -6.2217    0.0312 H   0  0  0  0  0  0  0  0  0  0  0  0
    1.2768   -7.6646    1.3351 H   0  0  0  0  0  0  0  0  0  0  0  0
   -1.4386   -9.4258    1.2833 H   0  0  0  0  0  0  0  0  0  0  0  0
   -2.6355   -8.3723    2.0396 H   0  0  0  0  0  0  0  0  0  0  0  0
   -2.1306   -9.8545    2.8430 H   0  0  0  0  0  0  0  0  0  0  0  0
   -2.2378   -7.3625    4.1430 H   0  0  0  0  0  0  0  0  0  0  0  0
   -1.2533   -8.5315    4.9991 H   0  0  0  0  0  0  0  0  0  0  0  0
   -0.5237   -5.6549    4.1671 H   0  0  0  0  0  0  0  0  0  0  0  0
   -0.8214   -6.2967    5.7698 H   0  0  0  0  0  0  0  0  0  0  0  0
    1.0592   -7.8894    5.3751 H   0  0  0  0  0  0  0  0  0  0  0  0
    2.0075   -5.0767    5.4476 H   0  0  0  0  0  0  0  0  0  0  0  0
    1.2055   -7.0419    7.6441 H   0  0  0  0  0  0  0  0  0  0  0  0
    0.4482   -5.4925    7.3097 H   0  0  0  0  0  0  0  0  0  0  0  0
    2.0855   -5.5582    7.9503 H   0  0  0  0  0  0  0  0  0  0  0  0
    4.0461   -5.9642    6.4169 H   0  0  0  0  0  0  0  0  0  0  0  0
    3.4228   -7.5855    6.4574 H   0  0  0  0  0  0  0  0  0  0  0  0
    5.0063   -6.4554    4.4244 H   0  0  0  0  0  0  0  0  0  0  0  0
    4.2628   -8.0267    4.4225 H   0  0  0  0  0  0  0  0  0  0  0  0
    2.9795   -5.4737    3.5032 H   0  0  0  0  0  0  0  0  0  0  0  0
    4.6508   -6.0705    1.9279 H   0  0  0  0  0  0  0  0  0  0  0  0
    3.0438   -8.6328    1.3149 H   0  0  0  0  0  0  0  0  0  0  0  0
    4.6986   -8.5472    1.9636 H   0  0  0  0  0  0  0  0  0  0  0  0
    4.3793   -7.9954    0.3530 H   0  0  0  0  0  0  0  0  0  0  0  0
  1  2  1  0
  1 23  1  0
  1 24  1  0
  1 25  1  0
  2  3  1  0
  2 26  1  0
  2 27  1  0
  3  4  1  0
  4 18  1  0
  4  5  1  0
  4 28  1  6
  5  6  1  0
  6 20  1  0
  6  7  1  0
  6 29  1  6
  7  8  1  0
  8 22  1  0
  8  9  1  6
  8 10  1  0
  9 30  1  0
  9 31  1  0
  9 32  1  0
 10 11  1  0
 10 33  1  0
 10 34  1  0
 11 12  1  0
 11 35  1  0
 11 36  1  0
 12 20  1  0
 12 13  1  0
 12 37  1  1
 13 14  1  0
 13 15  1  0
 13 38  1  6
 14 39  1  0
 14 40  1  0
 14 41  1  0
 15 16  1  0
 15 42  1  0
 15 43  1  0
 16 17  1  0
 16 44  1  0
 16 45  1  0
 17 18  1  0
 17 20  1  0
 17 46  1  1
 18 19  1  0
 18 47  1  1
 19 48  1  0
 19 49  1  0
 19 50  1  0
 20 21  1  1
 21 22  1  0
M  END
>  <i_m_ct_stereo_status>  (373) 
1

>  <s_m_source_file>  (373) 
/var/tmp/pbs.5076255.sched01/tmpcwktr4ti/1290j0z1rin.sdf

>  <i_m_source_file_index>  (373) 
39

>  <i_lp_mmshare_version>  (373) 
48012

>  <i_f3d_flags>  (373) 
0

>  <s_epik_input>  (373) 
W0NIM11bQ0gyXU9bQ0BIXShPW0NASF0xW0NAXTIzNClbQ0BIXShbQ0gzXSlbQ0BASF0zW0NIMl1bQ0gyXVtDQEhdKFtDSDNdKVtDQEhdMltDSDJdW0NIMl1bQ0BdKE8xKShbQ0gzXSlPTzQ=

>  <s_epik_cmdline>  (373) 
J2VwaWtfcHl0aG9uJywgJy1waHQnLCAnMi4wJywgJy1waCcsICc3LjAnLCAnLXRuJywgJzgnLCAnLW1hJywgJzIwMCcsICctaW1hZScsICc8aW5maWxlLm1hZT4nLCAnLW9tYWUnLCAnPG91dGZpbGUubWFlPic=

>  <r_lp_tautomer_probability>  (373) 
1

>  <r_epik_Ionization_Penalty>  (373) 
8.70126e-13

>  <r_epik_Ionization_Penalty_Charging>  (373) 
0

>  <r_epik_Ionization_Penalty_Neutral>  (373) 
8.70126e-13

>  <r_epik_State_Penalty>  (373) 
-0

>  <r_epik_Charging_Adjusted_Penalty>  (373) 
0

>  <i_epik_Tot_Q>  (373) 
0

>  <i_epik_Tot_abs_Q>  (373) 
0

>  <s_epik_Chemistry_Notes>  (373) 
This compound contains an acetal/aminal-like group ( X-CH(R)-Y where X, Y are N, S, or O) that may be acid/base labile, releasing an aldehyde.

>  <s_lp_Force_Field>  (373) 
OPLS3e

>  <r_lp_Energy>  (373) 
63.3538

>  <b_lp_Chiralities_Consistent>  (373) 
1

>  <s_lp_Variant>  (373) 
115:0-1

>  <s_i_glide_gridfile>  (373) 
pfpi4k_grid

>  <i_i_glide_lignum>  (373) 
39

>  <i_i_glide_rotatable_bonds>  (373) 
2

>  <r_i_docking_score>  (373) 
-3.00007

>  <r_i_glide_ligand_efficiency>  (373) 
-0.136367

>  <r_i_glide_ligand_efficiency_sa>  (373) 
-0.382106

>  <r_i_glide_ligand_efficiency_ln>  (373) 
-0.733327

>  <r_i_glide_gscore>  (373) 
-3.00007

>  <r_i_glide_lipo>  (373) 
-0.277895

>  <r_i_glide_hbond>  (373) 
-0.211867

>  <r_i_glide_metal>  (373) 
-0

>  <r_i_glide_rewards>  (373) 
-1.27908

>  <r_i_glide_evdw>  (373) 
-18.5029

>  <r_i_glide_ecoul>  (373) 
-2.48578

>  <r_i_glide_erotb>  (373) 
0.190166

>  <r_i_glide_esite>  (373) 
-0.123382

>  <r_i_glide_emodel>  (373) 
-23.4705

>  <r_i_glide_energy>  (373) 
-20.9887

>  <r_i_glide_einternal>  (373) 
3.2888

>  <r_i_glide_intrahb_reward>  (373) 
-0

>  <i_i_glide_confnum>  (373) 
3

>  <i_i_glide_posenum>  (373) 
1

>  <r_i_glide_eff_state_penalty>  (373) 
0

>  <ligand_id>  (373) 
115

>  <original_smiles>  (373) 
CCOC1OC2OC3(C)CCC4C(C)CCC(C1C)C24OO3

>  <smiles>  (373) 
[H]C([H])([H])C([H])([H])OC1([H])OC2([H])OC3(C([H])([H])[H])OOC24C([H])(C([H])([H])C([H])([H])C([H])(C([H])([H])[H])C4([H])C([H])([H])C3([H])[H])C1([H])C([H])([H])[H]

$$$$
115:0:2
     RDKit          3D

 50 53  0  0  1  0  0  0  0  0999 V2000
    3.2850   -3.4212   -1.9464 C   0  0  0  0  0  0  0  0  0  0  0  0
    2.1125   -3.8596   -1.0696 C   0  0  0  0  0  0  0  0  0  0  0  0
    2.6005   -4.1354    0.2369 O   0  0  0  0  0  0  0  0  0  0  0  0
    2.6553   -5.4861    0.5880 C   0  0  2  0  0  0  0  0  0  0  0  0
    1.3976   -5.8682    1.1443 O   0  0  0  0  0  0  0  0  0  0  0  0
    1.4898   -7.0225    1.9167 C   0  0  2  0  0  0  0  0  0  0  0  0
    0.3197   -7.7350    2.0760 O   0  0  0  0  0  0  0  0  0  0  0  0
    0.4759   -8.7555    3.0650 C   0  0  2  0  0  0  0  0  0  0  0  0
   -0.1794  -10.0444    2.5460 C   0  0  0  0  0  0  0  0  0  0  0  0
   -0.3043   -8.2609    4.2902 C   0  0  0  0  0  0  0  0  0  0  0  0
   -0.0735   -6.7756    4.5582 C   0  0  0  0  0  0  0  0  0  0  0  0
    1.4333   -6.5011    4.6295 C   0  0  2  0  0  0  0  0  0  0  0  0
    1.8516   -5.2137    5.3957 C   0  0  1  0  0  0  0  0  0  0  0  0
    1.2400   -5.1348    6.8070 C   0  0  0  0  0  0  0  0  0  0  0  0
    3.4004   -5.1087    5.5112 C   0  0  0  0  0  0  0  0  0  0  0  0
    4.1690   -5.3685    4.1938 C   0  0  0  0  0  0  0  0  0  0  0  0
    3.2101   -5.5849    3.0141 C   0  0  1  0  0  0  0  0  0  0  0  0
    3.8225   -5.6588    1.6097 C   0  0  1  0  0  0  0  0  0  0  0  0
    4.6533   -6.9284    1.3273 C   0  0  0  0  0  0  0  0  0  0  0  0
    2.2183   -6.7486    3.2788 C   0  0  2  0  0  0  0  0  0  0  0  0
    2.8544   -7.9846    3.5082 O   0  0  0  0  0  0  0  0  0  0  0  0
    1.8445   -9.1505    3.3509 O   0  0  0  0  0  0  0  0  0  0  0  0
    2.9597   -3.2506   -2.9744 H   0  0  0  0  0  0  0  0  0  0  0  0
    4.0755   -4.1730   -1.9564 H   0  0  0  0  0  0  0  0  0  0  0  0
    3.7146   -2.4910   -1.5741 H   0  0  0  0  0  0  0  0  0  0  0  0
    1.3982   -3.0512   -1.0174 H   0  0  0  0  0  0  0  0  0  0  0  0
    1.5484   -4.6796   -1.5029 H   0  0  0  0  0  0  0  0  0  0  0  0
    2.8558   -6.0713   -0.3079 H   0  0  0  0  0  0  0  0  0  0  0  0
    2.0902   -7.7181    1.3194 H   0  0  0  0  0  0  0  0  0  0  0  0
    0.3462  -10.4628    1.6849 H   0  0  0  0  0  0  0  0  0  0  0  0
   -1.2182   -9.8773    2.2515 H   0  0  0  0  0  0  0  0  0  0  0  0
   -0.1832  -10.8083    3.3313 H   0  0  0  0  0  0  0  0  0  0  0  0
   -1.3753   -8.3946    4.1354 H   0  0  0  0  0  0  0  0  0  0  0  0
   -0.0388   -8.8596    5.1634 H   0  0  0  0  0  0  0  0  0  0  0  0
   -0.5188   -6.1545    3.7812 H   0  0  0  0  0  0  0  0  0  0  0  0
   -0.5866   -6.5444    5.4887 H   0  0  0  0  0  0  0  0  0  0  0  0
    1.7899   -7.2616    5.3274 H   0  0  0  0  0  0  0  0  0  0  0  0
    1.4916   -4.3489    4.8408 H   0  0  0  0  0  0  0  0  0  0  0  0
    1.4652   -6.0299    7.3862 H   0  0  0  0  0  0  0  0  0  0  0  0
    0.1536   -5.0338    6.7861 H   0  0  0  0  0  0  0  0  0  0  0  0
    1.6336   -4.2905    7.3798 H   0  0  0  0  0  0  0  0  0  0  0  0
    3.6678   -4.1210    5.8922 H   0  0  0  0  0  0  0  0  0  0  0  0
    3.7634   -5.8182    6.2577 H   0  0  0  0  0  0  0  0  0  0  0  0
    4.8422   -4.5306    3.9961 H   0  0  0  0  0  0  0  0  0  0  0  0
    4.8091   -6.2416    4.3133 H   0  0  0  0  0  0  0  0  0  0  0  0
    2.6344   -4.6610    2.9738 H   0  0  0  0  0  0  0  0  0  0  0  0
    4.4802   -4.8055    1.4845 H   0  0  0  0  0  0  0  0  0  0  0  0
    4.0783   -7.8506    1.4300 H   0  0  0  0  0  0  0  0  0  0  0  0
    5.5211   -6.9910    1.9841 H   0  0  0  0  0  0  0  0  0  0  0  0
    5.0753   -6.9296    0.3233 H   0  0  0  0  0  0  0  0  0  0  0  0
  1  2  1  0
  1 23  1  0
  1 24  1  0
  1 25  1  0
  2  3  1  0
  2 26  1  0
  2 27  1  0
  3  4  1  0
  4 18  1  0
  4  5  1  0
  4 28  1  6
  5  6  1  0
  6 20  1  0
  6  7  1  0
  6 29  1  6
  7  8  1  0
  8 22  1  0
  8  9  1  6
  8 10  1  0
  9 30  1  0
  9 31  1  0
  9 32  1  0
 10 11  1  0
 10 33  1  0
 10 34  1  0
 11 12  1  0
 11 35  1  0
 11 36  1  0
 12 20  1  0
 12 13  1  0
 12 37  1  1
 13 14  1  0
 13 15  1  0
 13 38  1  6
 14 39  1  0
 14 40  1  0
 14 41  1  0
 15 16  1  0
 15 42  1  0
 15 43  1  0
 16 17  1  0
 16 44  1  0
 16 45  1  0
 17 18  1  0
 17 20  1  0
 17 46  1  6
 18 19  1  0
 18 47  1  1
 19 48  1  0
 19 49  1  0
 19 50  1  0
 20 21  1  1
 21 22  1  0
M  END
>  <i_m_ct_stereo_status>  (374) 
1

>  <s_m_source_file>  (374) 
/var/tmp/pbs.5076255.sched01/tmpcwktr4ti/1290j0z1rin.sdf

>  <i_m_source_file_index>  (374) 
39

>  <i_lp_mmshare_version>  (374) 
48012

>  <i_f3d_flags>  (374) 
0

>  <s_epik_input>  (374) 
W0NIM11bQ0gyXU9bQ0BIXShPW0NASF0xW0NAXTIzNClbQ0BIXShbQ0gzXSlbQ0BASF0zW0NIMl1bQ0gyXVtDQEhdKFtDSDNdKVtDQEhdMltDSDJdW0NIMl1bQ0BdKE8xKShbQ0gzXSlPTzQ=

>  <s_epik_cmdline>  (374) 
J2VwaWtfcHl0aG9uJywgJy1waHQnLCAnMi4wJywgJy1waCcsICc3LjAnLCAnLXRuJywgJzgnLCAnLW1hJywgJzIwMCcsICctaW1hZScsICc8aW5maWxlLm1hZT4nLCAnLW9tYWUnLCAnPG91dGZpbGUubWFlPic=

>  <r_lp_tautomer_probability>  (374) 
1

>  <r_epik_Ionization_Penalty>  (374) 
8.70126e-13

>  <r_epik_Ionization_Penalty_Charging>  (374) 
0

>  <r_epik_Ionization_Penalty_Neutral>  (374) 
8.70126e-13

>  <r_epik_State_Penalty>  (374) 
-0

>  <r_epik_Charging_Adjusted_Penalty>  (374) 
0

>  <i_epik_Tot_Q>  (374) 
0

>  <i_epik_Tot_abs_Q>  (374) 
0

>  <s_epik_Chemistry_Notes>  (374) 
This compound contains an acetal/aminal-like group ( X-CH(R)-Y where X, Y are N, S, or O) that may be acid/base labile, releasing an aldehyde.

>  <s_lp_Force_Field>  (374) 
OPLS3e

>  <r_lp_Energy>  (374) 
63.3538

>  <b_lp_Chiralities_Consistent>  (374) 
1

>  <s_lp_Variant>  (374) 
115:0-1

>  <s_i_glide_gridfile>  (374) 
pfpi4k_grid

>  <i_i_glide_lignum>  (374) 
39

>  <i_i_glide_rotatable_bonds>  (374) 
2

>  <r_i_docking_score>  (374) 
-2.71596

>  <r_i_glide_ligand_efficiency>  (374) 
-0.123453

>  <r_i_glide_ligand_efficiency_sa>  (374) 
-0.345919

>  <r_i_glide_ligand_efficiency_ln>  (374) 
-0.663879

>  <r_i_glide_gscore>  (374) 
-2.71596

>  <r_i_glide_lipo>  (374) 
-0.200252

>  <r_i_glide_hbond>  (374) 
-0.149121

>  <r_i_glide_metal>  (374) 
-0

>  <r_i_glide_rewards>  (374) 
-1.27908

>  <r_i_glide_evdw>  (374) 
-16.1915

>  <r_i_glide_ecoul>  (374) 
-2.45414

>  <r_i_glide_erotb>  (374) 
0.190166

>  <r_i_glide_esite>  (374) 
-0.0999715

>  <r_i_glide_emodel>  (374) 
-20.6988

>  <r_i_glide_energy>  (374) 
-18.6457

>  <r_i_glide_einternal>  (374) 
3.22724

>  <r_i_glide_intrahb_reward>  (374) 
-0

>  <i_i_glide_confnum>  (374) 
3

>  <i_i_glide_posenum>  (374) 
11

>  <r_i_glide_eff_state_penalty>  (374) 
0

>  <ligand_id>  (374) 
115

>  <original_smiles>  (374) 
CCOC1OC2OC3(C)CCC4C(C)CCC(C1C)C24OO3

>  <smiles>  (374) 
[H]C([H])([H])C([H])([H])OC1([H])OC2([H])OC3(C([H])([H])[H])OOC24C([H])(C([H])([H])C([H])([H])C([H])(C([H])([H])[H])C4([H])C([H])([H])C3([H])[H])C1([H])C([H])([H])[H]

$$$$
117:1:0
     RDKit          3D

 51 55  0  0  1  0  0  0  0  0999 V2000
    2.5064   -9.0880    1.8410 C   0  0  0  0  0  0  0  0  0  0  0  0
    2.1831   -7.7463    2.4919 C   0  0  0  0  0  0  0  0  0  0  0  0
    0.9329   -7.3187    2.7882 C   0  0  0  0  0  0  0  0  0  0  0  0
   -0.3150   -8.0495    2.5072 C   0  0  0  0  0  0  0  0  0  0  0  0
   -1.4241   -7.5418    2.6817 O   0  0  0  0  0  0  0  0  0  0  0  0
    3.4286   -6.8947    2.7963 C   0  0  2  0  0  0  0  0  0  0  0  0
    3.4440   -6.1687    4.1517 C   0  0  0  0  0  0  0  0  0  0  0  0
    4.5816   -5.1624    3.9932 C   0  0  0  0  0  0  0  0  0  0  0  0
    4.3360   -4.6363    2.5818 C   0  0  1  0  0  0  0  0  0  0  0  0
    5.4759   -3.8265    1.9930 C   0  0  2  0  0  0  0  0  0  0  0  0
    5.3738   -2.3266    1.9888 C   0  0  2  0  0  0  0  0  0  0  0  0
    4.3279   -1.2416    1.8082 C   0  0  0  0  0  0  0  0  0  0  0  0
    4.6639   -0.4228    0.5247 C   0  0  0  0  0  0  0  0  0  0  0  0
    5.1683   -1.3001   -0.6620 C   0  0  2  0  0  0  0  0  0  0  0  0
    4.0750   -2.1539   -0.9794 O   0  0  0  0  0  0  0  0  0  0  0  0
    4.2425   -3.4008   -0.3151 C   0  0  2  0  0  0  0  0  0  0  0  0
    2.8722   -3.9267    0.1746 C   0  0  0  0  0  0  0  0  0  0  0  0
    2.7798   -5.3729    0.7349 C   0  0  0  0  0  0  0  0  0  0  0  0
    3.8876   -5.8466    1.7198 C   0  0  2  0  0  0  0  0  0  0  0  0
    5.0457   -6.4831    0.9106 C   0  0  0  0  0  0  0  0  0  0  0  0
    5.4056   -3.1360    0.6611 C   0  0  2  0  0  0  0  0  0  0  0  0
    6.2772   -2.2578   -0.1845 C   0  0  1  0  0  0  0  0  0  0  0  0
    6.9205   -2.9037   -1.2665 O   0  0  0  0  0  0  0  0  0  0  0  0
    3.3106   -9.5909    2.3806 H   0  0  0  0  0  0  0  0  0  0  0  0
    2.8436   -8.9404    0.8189 H   0  0  0  0  0  0  0  0  0  0  0  0
    1.6752   -9.7921    1.8182 H   0  0  0  0  0  0  0  0  0  0  0  0
    0.8001   -6.3556    3.2570 H   0  0  0  0  0  0  0  0  0  0  0  0
   -0.2229   -9.0593    2.1105 H   0  0  0  0  0  0  0  0  0  0  0  0
    4.2410   -7.6133    2.9056 H   0  0  0  0  0  0  0  0  0  0  0  0
    2.5178   -5.6283    4.3408 H   0  0  0  0  0  0  0  0  0  0  0  0
    3.6115   -6.8506    4.9851 H   0  0  0  0  0  0  0  0  0  0  0  0
    4.5548   -4.3722    4.7453 H   0  0  0  0  0  0  0  0  0  0  0  0
    5.5482   -5.6634    4.0645 H   0  0  0  0  0  0  0  0  0  0  0  0
    3.4860   -3.9612    2.7037 H   0  0  0  0  0  0  0  0  0  0  0  0
    6.4544   -4.2529    2.2066 H   0  0  0  0  0  0  0  0  0  0  0  0
    6.2946   -1.8919    2.3747 H   0  0  0  0  0  0  0  0  0  0  0  0
    3.3264   -1.6578    1.7755 H   0  0  0  0  0  0  0  0  0  0  0  0
    4.3455   -0.5871    2.6809 H   0  0  0  0  0  0  0  0  0  0  0  0
    3.7846    0.1411    0.2179 H   0  0  0  0  0  0  0  0  0  0  0  0
    5.4340    0.3106    0.7620 H   0  0  0  0  0  0  0  0  0  0  0  0
    5.4647   -0.6889   -1.5144 H   0  0  0  0  0  0  0  0  0  0  0  0
    4.6017   -4.1078   -1.0641 H   0  0  0  0  0  0  0  0  0  0  0  0
    2.4017   -3.2407    0.8742 H   0  0  0  0  0  0  0  0  0  0  0  0
    2.2109   -3.8981   -0.6919 H   0  0  0  0  0  0  0  0  0  0  0  0
    1.8158   -5.4040    1.2351 H   0  0  0  0  0  0  0  0  0  0  0  0
    2.7053   -6.0830   -0.0895 H   0  0  0  0  0  0  0  0  0  0  0  0
    5.4169   -5.8407    0.1167 H   0  0  0  0  0  0  0  0  0  0  0  0
    4.7226   -7.4071    0.4322 H   0  0  0  0  0  0  0  0  0  0  0  0
    5.8953   -6.7234    1.5491 H   0  0  0  0  0  0  0  0  0  0  0  0
    7.0531   -1.7449    0.3828 H   0  0  0  0  0  0  0  0  0  0  0  0
    6.2853   -3.4436   -1.7111 H   0  0  0  0  0  0  0  0  0  0  0  0
  1  2  1  0
  1 24  1  0
  1 25  1  0
  1 26  1  0
  2  3  2  3
  2  6  1  0
  3  4  1  0
  3 27  1  0
  4  5  2  0
  4 28  1  0
  6 19  1  0
  6  7  1  0
  6 29  1  1
  7  8  1  0
  7 30  1  0
  7 31  1  0
  8  9  1  0
  8 32  1  0
  8 33  1  0
  9 19  1  0
  9 10  1  0
  9 34  1  1
 10 21  1  0
 10 11  1  0
 10 35  1  6
 11 21  1  0
 11 12  1  0
 11 36  1  6
 12 13  1  0
 12 37  1  0
 12 38  1  0
 13 14  1  0
 13 39  1  0
 13 40  1  0
 14 22  1  0
 14 15  1  0
 14 41  1  6
 15 16  1  0
 16 17  1  0
 21 16  1  6
 16 42  1  6
 17 18  1  0
 17 43  1  0
 17 44  1  0
 18 19  1  0
 18 45  1  0
 18 46  1  0
 19 20  1  6
 20 47  1  0
 20 48  1  0
 20 49  1  0
 21 22  1  0
 22 23  1  0
 22 50  1  1
 23 51  1  0
M  END
>  <i_m_ct_stereo_status>  (375) 
1

>  <s_m_source_file>  (375) 
/var/tmp/pbs.5076255.sched01/tmpcwktr4ti/1290j0z1rin.sdf

>  <i_m_source_file_index>  (375) 
42

>  <i_lp_mmshare_version>  (375) 
48012

>  <i_f3d_flags>  (375) 
0

>  <s_epik_input>  (375) 
Tz1bQ0hdXFtDSF09QyhcW0NIM10pW0NASF0oW0NIMl1bQ0gyXTEpW0NAXShbQ0gzXSkoW0NAQEhdMVtDQEhdMltDQF0zNDUpW0NIMl1bQ0gyXVtDQEhdNE9bQ0BIXShbQ0BASF01W09IXSlbQ0gyXVtDSDJdW0NAQEhdMjM=

>  <s_epik_cmdline>  (375) 
J2VwaWtfcHl0aG9uJywgJy1waHQnLCAnMi4wJywgJy1waCcsICc3LjAnLCAnLXRuJywgJzgnLCAnLW1hJywgJzIwMCcsICctaW1hZScsICc8aW5maWxlLm1hZT4nLCAnLW9tYWUnLCAnPG91dGZpbGUubWFlPic=

>  <r_lp_tautomer_probability>  (375) 
1

>  <r_epik_Ionization_Penalty>  (375) 
9.58055e-08

>  <r_epik_Ionization_Penalty_Charging>  (375) 
0

>  <r_epik_Ionization_Penalty_Neutral>  (375) 
9.58055e-08

>  <r_epik_State_Penalty>  (375) 
-0

>  <r_epik_Charging_Adjusted_Penalty>  (375) 
0

>  <i_epik_Tot_Q>  (375) 
0

>  <i_epik_Tot_abs_Q>  (375) 
0

>  <s_lp_Force_Field>  (375) 
OPLS3e

>  <r_lp_Energy>  (375) 
74.3697

>  <b_lp_Chiralities_Consistent>  (375) 
1

>  <s_lp_Variant>  (375) 
117:0-2

>  <s_i_glide_gridfile>  (375) 
pfpi4k_grid

>  <i_i_glide_lignum>  (375) 
42

>  <i_i_glide_rotatable_bonds>  (375) 
3

>  <r_i_docking_score>  (375) 
-3.11699

>  <r_i_glide_ligand_efficiency>  (375) 
-0.135521

>  <r_i_glide_ligand_efficiency_sa>  (375) 
-0.385405

>  <r_i_glide_ligand_efficiency_ln>  (375) 
-0.753717

>  <r_i_glide_gscore>  (375) 
-3.11699

>  <r_i_glide_lipo>  (375) 
-0.496857

>  <r_i_glide_hbond>  (375) 
-0.0274592

>  <r_i_glide_metal>  (375) 
-0

>  <r_i_glide_rewards>  (375) 
-1.25158

>  <r_i_glide_evdw>  (375) 
-26.9454

>  <r_i_glide_ecoul>  (375) 
-2.07679

>  <r_i_glide_erotb>  (375) 
0.371848

>  <r_i_glide_esite>  (375) 
-0.0541531

>  <r_i_glide_emodel>  (375) 
-33.4869

>  <r_i_glide_energy>  (375) 
-29.0222

>  <r_i_glide_einternal>  (375) 
2.20057

>  <r_i_glide_intrahb_reward>  (375) 
-0

>  <i_i_glide_confnum>  (375) 
1

>  <i_i_glide_posenum>  (375) 
1

>  <r_i_glide_eff_state_penalty>  (375) 
0

>  <ligand_id>  (375) 
117

>  <original_smiles>  (375) 
CC(=CC=O)C1CCC2C3C4CCC5OC(CCC12C)C43C5O

>  <smiles>  (375) 
[H]OC1([H])C2([H])OC3([H])C([H])([H])C([H])([H])C4(C([H])([H])[H])C([H])(C(=C([H])C([H])=O)C([H])([H])[H])C([H])([H])C([H])([H])C4([H])C4([H])C([H])(C([H])([H])C2([H])[H])C314

$$$$
117:1:1
     RDKit          3D

 51 55  0  0  1  0  0  0  0  0999 V2000
    4.4014   -8.9056    1.0539 C   0  0  0  0  0  0  0  0  0  0  0  0
    3.8321   -8.2032    2.2857 C   0  0  0  0  0  0  0  0  0  0  0  0
    2.7246   -8.6113    2.9562 C   0  0  0  0  0  0  0  0  0  0  0  0
    1.8775   -9.7588    2.5833 C   0  0  0  0  0  0  0  0  0  0  0  0
    0.8738  -10.0777    3.2138 O   0  0  0  0  0  0  0  0  0  0  0  0
    4.6619   -6.9869    2.7298 C   0  0  2  0  0  0  0  0  0  0  0  0
    4.3246   -6.3718    4.1019 C   0  0  0  0  0  0  0  0  0  0  0  0
    5.0233   -5.0195    4.0733 C   0  0  0  0  0  0  0  0  0  0  0  0
    4.6986   -4.5430    2.6607 C   0  0  1  0  0  0  0  0  0  0  0  0
    5.5019   -3.3480    2.1900 C   0  0  2  0  0  0  0  0  0  0  0  0
    4.8717   -1.9897    2.2189 C   0  0  2  0  0  0  0  0  0  0  0  0
    3.5240   -1.3433    1.9741 C   0  0  0  0  0  0  0  0  0  0  0  0
    3.6343   -0.4001    0.7411 C   0  0  0  0  0  0  0  0  0  0  0  0
    4.5119   -0.9739   -0.4201 C   0  0  2  0  0  0  0  0  0  0  0  0
    3.8192   -2.1434   -0.8522 O   0  0  0  0  0  0  0  0  0  0  0  0
    4.3721   -3.2766   -0.2008 C   0  0  2  0  0  0  0  0  0  0  0  0
    3.2477   -4.2723    0.1615 C   0  0  0  0  0  0  0  0  0  0  0  0
    3.6521   -5.6780    0.6705 C   0  0  0  0  0  0  0  0  0  0  0  0
    4.7854   -5.7818    1.7330 C   0  0  2  0  0  0  0  0  0  0  0  0
    6.1569   -5.9035    1.0200 C   0  0  0  0  0  0  0  0  0  0  0  0
    5.2818   -2.6627    0.8823 C   0  0  2  0  0  0  0  0  0  0  0  0
    5.8516   -1.5011    0.1296 C   0  0  1  0  0  0  0  0  0  0  0  0
    6.7695   -1.8639   -0.8861 O   0  0  0  0  0  0  0  0  0  0  0  0
    5.4762   -9.0538    1.1652 H   0  0  0  0  0  0  0  0  0  0  0  0
    4.2317   -8.3402    0.1429 H   0  0  0  0  0  0  0  0  0  0  0  0
    3.9742   -9.8827    0.8784 H   0  0  0  0  0  0  0  0  0  0  0  0
    2.3906   -8.0875    3.8360 H   0  0  0  0  0  0  0  0  0  0  0  0
    2.1771  -10.3189    1.7017 H   0  0  0  0  0  0  0  0  0  0  0  0
    5.6615   -7.3988    2.8740 H   0  0  0  0  0  0  0  0  0  0  0  0
    3.2545   -6.1922    4.2121 H   0  0  0  0  0  0  0  0  0  0  0  0
    4.6555   -6.9938    4.9347 H   0  0  0  0  0  0  0  0  0  0  0  0
    4.6507   -4.3374    4.8385 H   0  0  0  0  0  0  0  0  0  0  0  0
    6.0986   -5.1405    4.2167 H   0  0  0  0  0  0  0  0  0  0  0  0
    3.6554   -4.2256    2.7229 H   0  0  0  0  0  0  0  0  0  0  0  0
    6.5506   -3.4088    2.4582 H   0  0  0  0  0  0  0  0  0  0  0  0
    5.5470   -1.2774    2.6899 H   0  0  0  0  0  0  0  0  0  0  0  0
    2.7501   -2.0913    1.8374 H   0  0  0  0  0  0  0  0  0  0  0  0
    3.2318   -0.7743    2.8589 H   0  0  0  0  0  0  0  0  0  0  0  0
    2.6239   -0.2072    0.3840 H   0  0  0  0  0  0  0  0  0  0  0  0
    4.0512    0.5569    1.0549 H   0  0  0  0  0  0  0  0  0  0  0  0
    4.6271   -0.2597   -1.2368 H   0  0  0  0  0  0  0  0  0  0  0  0
    5.0165   -3.7636   -0.9314 H   0  0  0  0  0  0  0  0  0  0  0  0
    2.5076   -3.8384    0.8256 H   0  0  0  0  0  0  0  0  0  0  0  0
    2.6921   -4.4427   -0.7616 H   0  0  0  0  0  0  0  0  0  0  0  0
    2.7400   -6.1205    1.0751 H   0  0  0  0  0  0  0  0  0  0  0  0
    3.9082   -6.2715   -0.2061 H   0  0  0  0  0  0  0  0  0  0  0  0
    6.3275   -5.1323    0.2722 H   0  0  0  0  0  0  0  0  0  0  0  0
    6.2337   -6.8508    0.4945 H   0  0  0  0  0  0  0  0  0  0  0  0
    6.9851   -5.8569    1.7283 H   0  0  0  0  0  0  0  0  0  0  0  0
    6.3413   -0.7633    0.7644 H   0  0  0  0  0  0  0  0  0  0  0  0
    6.4387   -2.6355   -1.3183 H   0  0  0  0  0  0  0  0  0  0  0  0
  1  2  1  0
  1 24  1  0
  1 25  1  0
  1 26  1  0
  2  3  2  3
  2  6  1  0
  3  4  1  0
  3 27  1  0
  4  5  2  0
  4 28  1  0
  6 19  1  0
  6  7  1  0
  6 29  1  1
  7  8  1  0
  7 30  1  0
  7 31  1  0
  8  9  1  0
  8 32  1  0
  8 33  1  0
  9 19  1  0
  9 10  1  0
  9 34  1  1
 10 21  1  0
 10 11  1  0
 10 35  1  1
 11 21  1  0
 11 12  1  0
 11 36  1  1
 12 13  1  0
 12 37  1  0
 12 38  1  0
 13 14  1  0
 13 39  1  0
 13 40  1  0
 14 22  1  0
 14 15  1  0
 14 41  1  6
 15 16  1  0
 16 17  1  0
 21 16  1  6
 16 42  1  6
 17 18  1  0
 17 43  1  0
 17 44  1  0
 18 19  1  0
 18 45  1  0
 18 46  1  0
 19 20  1  6
 20 47  1  0
 20 48  1  0
 20 49  1  0
 21 22  1  0
 22 23  1  0
 22 50  1  1
 23 51  1  0
M  END
>  <i_m_ct_stereo_status>  (376) 
1

>  <s_m_source_file>  (376) 
/var/tmp/pbs.5076255.sched01/tmpcwktr4ti/1290j0z1rin.sdf

>  <i_m_source_file_index>  (376) 
42

>  <i_lp_mmshare_version>  (376) 
48012

>  <i_f3d_flags>  (376) 
0

>  <s_epik_input>  (376) 
Tz1bQ0hdXFtDSF09QyhcW0NIM10pW0NASF0oW0NIMl1bQ0gyXTEpW0NAXShbQ0gzXSkoW0NAQEhdMVtDQEhdMltDQF0zNDUpW0NIMl1bQ0gyXVtDQEhdNE9bQ0BIXShbQ0BASF01W09IXSlbQ0gyXVtDSDJdW0NAQEhdMjM=

>  <s_epik_cmdline>  (376) 
J2VwaWtfcHl0aG9uJywgJy1waHQnLCAnMi4wJywgJy1waCcsICc3LjAnLCAnLXRuJywgJzgnLCAnLW1hJywgJzIwMCcsICctaW1hZScsICc8aW5maWxlLm1hZT4nLCAnLW9tYWUnLCAnPG91dGZpbGUubWFlPic=

>  <r_lp_tautomer_probability>  (376) 
1

>  <r_epik_Ionization_Penalty>  (376) 
9.58055e-08

>  <r_epik_Ionization_Penalty_Charging>  (376) 
0

>  <r_epik_Ionization_Penalty_Neutral>  (376) 
9.58055e-08

>  <r_epik_State_Penalty>  (376) 
-0

>  <r_epik_Charging_Adjusted_Penalty>  (376) 
0

>  <i_epik_Tot_Q>  (376) 
0

>  <i_epik_Tot_abs_Q>  (376) 
0

>  <s_lp_Force_Field>  (376) 
OPLS3e

>  <r_lp_Energy>  (376) 
74.3697

>  <b_lp_Chiralities_Consistent>  (376) 
1

>  <s_lp_Variant>  (376) 
117:0-2

>  <s_i_glide_gridfile>  (376) 
pfpi4k_grid

>  <i_i_glide_lignum>  (376) 
42

>  <i_i_glide_rotatable_bonds>  (376) 
3

>  <r_i_docking_score>  (376) 
-2.89703

>  <r_i_glide_ligand_efficiency>  (376) 
-0.125958

>  <r_i_glide_ligand_efficiency_sa>  (376) 
-0.358207

>  <r_i_glide_ligand_efficiency_ln>  (376) 
-0.700528

>  <r_i_glide_gscore>  (376) 
-2.89703

>  <r_i_glide_lipo>  (376) 
-0.328657

>  <r_i_glide_hbond>  (376) 
0

>  <r_i_glide_metal>  (376) 
-0

>  <r_i_glide_rewards>  (376) 
-1.35076

>  <r_i_glide_evdw>  (376) 
-22.1167

>  <r_i_glide_ecoul>  (376) 
-3.22414

>  <r_i_glide_erotb>  (376) 
0.371848

>  <r_i_glide_esite>  (376) 
0

>  <r_i_glide_emodel>  (376) 
-30.3815

>  <r_i_glide_energy>  (376) 
-25.3409

>  <r_i_glide_einternal>  (376) 
0.129345

>  <r_i_glide_intrahb_reward>  (376) 
-0

>  <i_i_glide_confnum>  (376) 
1

>  <i_i_glide_posenum>  (376) 
8

>  <r_i_glide_eff_state_penalty>  (376) 
0

>  <ligand_id>  (376) 
117

>  <original_smiles>  (376) 
CC(=CC=O)C1CCC2C3C4CCC5OC(CCC12C)C43C5O

>  <smiles>  (376) 
[H]OC1([H])C2([H])OC3([H])C([H])([H])C([H])([H])C4(C([H])([H])[H])C([H])(C(=C([H])C([H])=O)C([H])([H])[H])C([H])([H])C([H])([H])C4([H])C4([H])C([H])(C([H])([H])C2([H])[H])C314

$$$$
117:1:2
     RDKit          3D

 51 55  0  0  1  0  0  0  0  0999 V2000
    6.8967   -5.6434    2.4989 C   0  0  0  0  0  0  0  0  0  0  0  0
    5.8065   -6.0293    1.5017 C   0  0  0  0  0  0  0  0  0  0  0  0
    5.5177   -5.3289    0.3780 C   0  0  0  0  0  0  0  0  0  0  0  0
    6.1760   -4.0725   -0.0323 C   0  0  0  0  0  0  0  0  0  0  0  0
    5.8855   -3.4620   -1.0614 O   0  0  0  0  0  0  0  0  0  0  0  0
    5.0548   -7.3136    1.8949 C   0  0  2  0  0  0  0  0  0  0  0  0
    4.6827   -8.2668    0.7524 C   0  0  0  0  0  0  0  0  0  0  0  0
    3.6627   -9.2035    1.3789 C   0  0  0  0  0  0  0  0  0  0  0  0
    2.8073   -8.2307    2.1781 C   0  0  1  0  0  0  0  0  0  0  0  0
    1.8719   -8.8876    3.1739 C   0  0  2  0  0  0  0  0  0  0  0  0
    0.4168   -9.0292    2.8167 C   0  0  2  0  0  0  0  0  0  0  0  0
   -0.6734   -8.2580    2.0873 C   0  0  0  0  0  0  0  0  0  0  0  0
   -1.7876   -7.8682    3.0999 C   0  0  0  0  0  0  0  0  0  0  0  0
   -1.2226   -7.4073    4.4734 C   0  0  2  0  0  0  0  0  0  0  0  0
   -0.4737   -6.2434    4.1424 O   0  0  0  0  0  0  0  0  0  0  0  0
    0.9009   -6.5835    4.0456 C   0  0  2  0  0  0  0  0  0  0  0  0
    1.5440   -5.7313    2.9212 C   0  0  0  0  0  0  0  0  0  0  0  0
    3.0824   -5.7811    2.7318 C   0  0  0  0  0  0  0  0  0  0  0  0
    3.7715   -7.1739    2.7834 C   0  0  2  0  0  0  0  0  0  0  0  0
    4.1792   -7.4863    4.2448 C   0  0  0  0  0  0  0  0  0  0  0  0
    0.8774   -8.1238    3.9912 C   0  0  2  0  0  0  0  0  0  0  0  0
   -0.1825   -8.4192    5.0062 C   0  0  1  0  0  0  0  0  0  0  0  0
    0.2176   -8.1750    6.3437 O   0  0  0  0  0  0  0  0  0  0  0  0
    7.5082   -6.5103    2.7528 H   0  0  0  0  0  0  0  0  0  0  0  0
    6.4492   -5.2684    3.4183 H   0  0  0  0  0  0  0  0  0  0  0  0
    7.5939   -4.8942    2.1300 H   0  0  0  0  0  0  0  0  0  0  0  0
    4.7369   -5.6755   -0.2823 H   0  0  0  0  0  0  0  0  0  0  0  0
    6.9578   -3.6889    0.6189 H   0  0  0  0  0  0  0  0  0  0  0  0
    5.7762   -7.9025    2.4614 H   0  0  0  0  0  0  0  0  0  0  0  0
    4.2233   -7.7468   -0.0870 H   0  0  0  0  0  0  0  0  0  0  0  0
    5.5462   -8.8213    0.3927 H   0  0  0  0  0  0  0  0  0  0  0  0
    3.0892   -9.7613    0.6369 H   0  0  0  0  0  0  0  0  0  0  0  0
    4.1605   -9.9260    2.0281 H   0  0  0  0  0  0  0  0  0  0  0  0
    2.1891   -7.7494    1.4169 H   0  0  0  0  0  0  0  0  0  0  0  0
    2.3307   -9.7175    3.7083 H   0  0  0  0  0  0  0  0  0  0  0  0
    0.0858  -10.0471    3.0210 H   0  0  0  0  0  0  0  0  0  0  0  0
   -0.2638   -7.4034    1.5584 H   0  0  0  0  0  0  0  0  0  0  0  0
   -1.1107   -8.8963    1.3187 H   0  0  0  0  0  0  0  0  0  0  0  0
   -2.3959   -7.0803    2.6624 H   0  0  0  0  0  0  0  0  0  0  0  0
   -2.4433   -8.7239    3.2580 H   0  0  0  0  0  0  0  0  0  0  0  0
   -2.0229   -7.1699    5.1673 H   0  0  0  0  0  0  0  0  0  0  0  0
    1.3724   -6.2936    4.9847 H   0  0  0  0  0  0  0  0  0  0  0  0
    1.0604   -5.9002    1.9642 H   0  0  0  0  0  0  0  0  0  0  0  0
    1.3018   -4.6921    3.1490 H   0  0  0  0  0  0  0  0  0  0  0  0
    3.2456   -5.3296    1.7540 H   0  0  0  0  0  0  0  0  0  0  0  0
    3.5651   -5.1094    3.4437 H   0  0  0  0  0  0  0  0  0  0  0  0
    3.3555   -7.3887    4.9485 H   0  0  0  0  0  0  0  0  0  0  0  0
    4.9587   -6.8058    4.5858 H   0  0  0  0  0  0  0  0  0  0  0  0
    4.5643   -8.5013    4.3437 H   0  0  0  0  0  0  0  0  0  0  0  0
   -0.5513   -9.4442    4.9710 H   0  0  0  0  0  0  0  0  0  0  0  0
    0.8161   -8.8585    6.5958 H   0  0  0  0  0  0  0  0  0  0  0  0
  1  2  1  0
  1 24  1  0
  1 25  1  0
  1 26  1  0
  2  3  2  3
  2  6  1  0
  3  4  1  0
  3 27  1  0
  4  5  2  0
  4 28  1  0
  6 19  1  0
  6  7  1  0
  6 29  1  1
  7  8  1  0
  7 30  1  0
  7 31  1  0
  8  9  1  0
  8 32  1  0
  8 33  1  0
  9 19  1  0
  9 10  1  0
  9 34  1  6
 10 21  1  0
 10 11  1  0
 10 35  1  1
 11 21  1  0
 11 12  1  0
 11 36  1  1
 12 13  1  0
 12 37  1  0
 12 38  1  0
 13 14  1  0
 13 39  1  0
 13 40  1  0
 14 22  1  0
 14 15  1  0
 14 41  1  1
 15 16  1  0
 16 17  1  0
 21 16  1  6
 16 42  1  1
 17 18  1  0
 17 43  1  0
 17 44  1  0
 18 19  1  0
 18 45  1  0
 18 46  1  0
 19 20  1  1
 20 47  1  0
 20 48  1  0
 20 49  1  0
 21 22  1  0
 22 23  1  0
 22 50  1  1
 23 51  1  0
M  END
>  <i_m_ct_stereo_status>  (377) 
1

>  <s_m_source_file>  (377) 
/var/tmp/pbs.5076255.sched01/tmpcwktr4ti/1290j0z1rin.sdf

>  <i_m_source_file_index>  (377) 
42

>  <i_lp_mmshare_version>  (377) 
48012

>  <i_f3d_flags>  (377) 
0

>  <s_epik_input>  (377) 
Tz1bQ0hdXFtDSF09QyhcW0NIM10pW0NASF0oW0NIMl1bQ0gyXTEpW0NAXShbQ0gzXSkoW0NAQEhdMVtDQEhdMltDQF0zNDUpW0NIMl1bQ0gyXVtDQEhdNE9bQ0BIXShbQ0BASF01W09IXSlbQ0gyXVtDSDJdW0NAQEhdMjM=

>  <s_epik_cmdline>  (377) 
J2VwaWtfcHl0aG9uJywgJy1waHQnLCAnMi4wJywgJy1waCcsICc3LjAnLCAnLXRuJywgJzgnLCAnLW1hJywgJzIwMCcsICctaW1hZScsICc8aW5maWxlLm1hZT4nLCAnLW9tYWUnLCAnPG91dGZpbGUubWFlPic=

>  <r_lp_tautomer_probability>  (377) 
1

>  <r_epik_Ionization_Penalty>  (377) 
9.58055e-08

>  <r_epik_Ionization_Penalty_Charging>  (377) 
0

>  <r_epik_Ionization_Penalty_Neutral>  (377) 
9.58055e-08

>  <r_epik_State_Penalty>  (377) 
-0

>  <r_epik_Charging_Adjusted_Penalty>  (377) 
0

>  <i_epik_Tot_Q>  (377) 
0

>  <i_epik_Tot_abs_Q>  (377) 
0

>  <s_lp_Force_Field>  (377) 
OPLS3e

>  <r_lp_Energy>  (377) 
74.3697

>  <b_lp_Chiralities_Consistent>  (377) 
1

>  <s_lp_Variant>  (377) 
117:0-2

>  <s_i_glide_gridfile>  (377) 
pfpi4k_grid

>  <i_i_glide_lignum>  (377) 
42

>  <i_i_glide_rotatable_bonds>  (377) 
3

>  <r_i_docking_score>  (377) 
-2.7311

>  <r_i_glide_ligand_efficiency>  (377) 
-0.118743

>  <r_i_glide_ligand_efficiency_sa>  (377) 
-0.33769

>  <r_i_glide_ligand_efficiency_ln>  (377) 
-0.660404

>  <r_i_glide_gscore>  (377) 
-2.7311

>  <r_i_glide_lipo>  (377) 
-0.26469

>  <r_i_glide_hbond>  (377) 
-0.0344688

>  <r_i_glide_metal>  (377) 
-0

>  <r_i_glide_rewards>  (377) 
-1.34333

>  <r_i_glide_evdw>  (377) 
-23.4392

>  <r_i_glide_ecoul>  (377) 
-1.92333

>  <r_i_glide_erotb>  (377) 
0.371848

>  <r_i_glide_esite>  (377) 
0

>  <r_i_glide_emodel>  (377) 
-29.1563

>  <r_i_glide_energy>  (377) 
-25.3625

>  <r_i_glide_einternal>  (377) 
2.13865

>  <r_i_glide_intrahb_reward>  (377) 
-0

>  <i_i_glide_confnum>  (377) 
1

>  <i_i_glide_posenum>  (377) 
15

>  <r_i_glide_eff_state_penalty>  (377) 
0

>  <ligand_id>  (377) 
117

>  <original_smiles>  (377) 
CC(=CC=O)C1CCC2C3C4CCC5OC(CCC12C)C43C5O

>  <smiles>  (377) 
[H]OC1([H])C2([H])OC3([H])C([H])([H])C([H])([H])C4(C([H])([H])[H])C([H])(C(=C([H])C([H])=O)C([H])([H])[H])C([H])([H])C([H])([H])C4([H])C4([H])C([H])(C([H])([H])C2([H])[H])C314

$$$$
118:0:0
     RDKit          3D

 59 62  0  0  1  0  0  0  0  0999 V2000
    6.1627  -10.0425    1.9659 C   0  0  0  0  0  0  0  0  0  0  0  0
    5.2494   -8.8348    2.2766 C   0  0  0  0  0  0  0  0  0  0  0  0
    4.3762   -8.5891    1.0220 C   0  0  0  0  0  0  0  0  0  0  0  0
    4.3235   -9.2825    3.4276 C   0  0  0  0  0  0  0  0  0  0  0  0
    3.4687   -8.1365    3.9645 C   0  0  0  0  0  0  0  0  0  0  0  0
    4.3814   -7.0612    4.5525 C   0  0  0  0  0  0  0  0  0  0  0  0
    5.4128   -6.4512    3.5552 C   0  0  2  0  0  0  0  0  0  0  0  0
    6.4694   -5.7697    4.4691 C   0  0  0  0  0  0  0  0  0  0  0  0
    4.7713   -5.3758    2.5839 C   0  0  1  0  0  0  0  0  0  0  0  0
    4.2202   -4.1384    3.3175 C   0  0  0  0  0  0  0  0  0  0  0  0
    3.4649   -3.2107    2.3770 C   0  0  0  0  0  0  0  0  0  0  0  0
    4.2814   -2.6769    1.1817 C   0  0  1  0  0  0  0  0  0  0  0  0
    3.2962   -1.9147    0.2425 C   0  0  0  0  0  0  0  0  0  0  0  0
    2.6162   -0.8546    0.8857 O   0  0  0  0  0  0  0  0  0  0  0  0
    5.3852   -1.6876    1.5163 C   0  0  0  0  0  0  0  0  0  0  0  0
    6.4408   -1.8196    0.7030 C   0  0  0  0  0  0  0  0  0  0  0  0
    7.5369   -1.0558    0.6246 O   0  0  0  0  0  0  0  0  0  0  0  0
    6.2310   -2.9844   -0.1526 C   0  0  0  0  0  0  0  0  0  0  0  0
    6.8472   -3.2704   -1.1817 O   0  0  0  0  0  0  0  0  0  0  0  0
    5.0895   -3.8257    0.4431 C   0  0  2  0  0  0  0  0  0  0  0  0
    4.2818   -4.5296   -0.6730 C   0  0  0  0  0  0  0  0  0  0  0  0
    5.7395   -4.8596    1.4692 C   0  0  2  0  0  0  0  0  0  0  0  0
    6.4819   -6.0246    0.7661 C   0  0  0  0  0  0  0  0  0  0  0  0
    7.1197   -7.0336    1.7286 C   0  0  0  0  0  0  0  0  0  0  0  0
    6.1254   -7.6110    2.7645 C   0  0  2  0  0  0  0  0  0  0  0  0
    5.5763  -10.9400    1.7669 H   0  0  0  0  0  0  0  0  0  0  0  0
    6.8212  -10.2738    2.8065 H   0  0  0  0  0  0  0  0  0  0  0  0
    6.7896   -9.8731    1.0914 H   0  0  0  0  0  0  0  0  0  0  0  0
    3.7713   -7.6908    1.0964 H   0  0  0  0  0  0  0  0  0  0  0  0
    3.6831   -9.4184    0.8651 H   0  0  0  0  0  0  0  0  0  0  0  0
    4.9747   -8.5236    0.1143 H   0  0  0  0  0  0  0  0  0  0  0  0
    3.6782  -10.1029    3.1099 H   0  0  0  0  0  0  0  0  0  0  0  0
    4.9188   -9.6807    4.2515 H   0  0  0  0  0  0  0  0  0  0  0  0
    2.8157   -7.7255    3.1962 H   0  0  0  0  0  0  0  0  0  0  0  0
    2.8126   -8.5153    4.7498 H   0  0  0  0  0  0  0  0  0  0  0  0
    3.7722   -6.2994    5.0268 H   0  0  0  0  0  0  0  0  0  0  0  0
    4.9249   -7.5255    5.3789 H   0  0  0  0  0  0  0  0  0  0  0  0
    7.2224   -5.2406    3.8936 H   0  0  0  0  0  0  0  0  0  0  0  0
    7.0044   -6.4996    5.0775 H   0  0  0  0  0  0  0  0  0  0  0  0
    6.0229   -5.0575    5.1648 H   0  0  0  0  0  0  0  0  0  0  0  0
    3.9251   -5.8430    2.0887 H   0  0  0  0  0  0  0  0  0  0  0  0
    3.5308   -4.4278    4.1041 H   0  0  0  0  0  0  0  0  0  0  0  0
    5.0231   -3.5708    3.7886 H   0  0  0  0  0  0  0  0  0  0  0  0
    2.5985   -3.7525    1.9961 H   0  0  0  0  0  0  0  0  0  0  0  0
    3.0594   -2.3776    2.9561 H   0  0  0  0  0  0  0  0  0  0  0  0
    2.5205   -2.5813   -0.1355 H   0  0  0  0  0  0  0  0  0  0  0  0
    3.8037   -1.4989   -0.6317 H   0  0  0  0  0  0  0  0  0  0  0  0
    1.8543   -0.6673    0.3221 H   0  0  0  0  0  0  0  0  0  0  0  0
    5.2655   -0.9174    2.2640 H   0  0  0  0  0  0  0  0  0  0  0  0
    7.4713   -0.3505    1.2589 H   0  0  0  0  0  0  0  0  0  0  0  0
    3.4325   -5.0801   -0.2704 H   0  0  0  0  0  0  0  0  0  0  0  0
    4.8834   -5.2264   -1.2533 H   0  0  0  0  0  0  0  0  0  0  0  0
    3.9051   -3.8346   -1.4189 H   0  0  0  0  0  0  0  0  0  0  0  0
    6.5277   -4.3164    1.9923 H   0  0  0  0  0  0  0  0  0  0  0  0
    5.7976   -6.5583    0.1230 H   0  0  0  0  0  0  0  0  0  0  0  0
    7.2701   -5.6390    0.1182 H   0  0  0  0  0  0  0  0  0  0  0  0
    7.5973   -7.8302    1.1652 H   0  0  0  0  0  0  0  0  0  0  0  0
    7.9424   -6.5441    2.2492 H   0  0  0  0  0  0  0  0  0  0  0  0
    6.7703   -8.0817    3.5041 H   0  0  0  0  0  0  0  0  0  0  0  0
  1  2  1  0
  1 26  1  0
  1 27  1  0
  1 28  1  0
  2 25  1  0
  2  3  1  0
  2  4  1  0
  3 29  1  0
  3 30  1  0
  3 31  1  0
  4  5  1  0
  4 32  1  0
  4 33  1  0
  5  6  1  0
  5 34  1  0
  5 35  1  0
  6  7  1  0
  6 36  1  0
  6 37  1  0
  7 25  1  0
  7  8  1  1
  7  9  1  0
  8 38  1  0
  8 39  1  0
  8 40  1  0
  9 22  1  0
  9 10  1  0
  9 41  1  6
 10 11  1  0
 10 42  1  0
 10 43  1  0
 11 44  1  0
 11 45  1  0
 11 12  1  0
 12 15  1  0
 12 13  1  6
 12 20  1  0
 13 14  1  0
 13 46  1  0
 13 47  1  0
 14 48  1  0
 15 49  1  0
 15 16  2  0
 16 18  1  0
 16 17  1  0
 17 50  1  0
 18 20  1  0
 18 19  2  0
 20 21  1  6
 20 22  1  0
 21 51  1  0
 21 52  1  0
 21 53  1  0
 22 23  1  0
 22 54  1  1
 23 24  1  0
 23 55  1  0
 23 56  1  0
 24 25  1  0
 24 57  1  0
 24 58  1  0
 25 59  1  1
M  END
>  <i_m_ct_stereo_status>  (378) 
1

>  <s_m_source_file>  (378) 
/var/tmp/pbs.5076255.sched01/tmpcwktr4ti/1290j0z1rin.sdf

>  <i_m_source_file_index>  (378) 
43

>  <i_lp_mmshare_version>  (378) 
48012

>  <i_f3d_flags>  (378) 
0

>  <s_epik_input>  (378) 
W0NIMl0xW0NIMl1bQ0gyXUMoW0NIM10pKFtDSDNdKVtDQEhdMltDSDJdW0NIMl1bQ0BIXShbQ0BIXTNbQ0BAXTEyW0NIM10pW0NAQF00KFtDSDNdKVtDQF0oW0NIMl1bQ0gyXTMpKFtDSDJdW09IXSlbQ0gyXUMoPU8pQzQ9Tw==

>  <s_epik_cmdline>  (378) 
J2VwaWtfcHl0aG9uJywgJy1waHQnLCAnMi4wJywgJy1waCcsICc3LjAnLCAnLXRuJywgJzgnLCAnLW1hJywgJzIwMCcsICctaW1hZScsICc8aW5maWxlLm1hZT4nLCAnLW9tYWUnLCAnPG91dGZpbGUubWFlPic=

>  <r_lp_tautomer_probability>  (378) 
1

>  <r_epik_Ionization_Penalty>  (378) 
3.88421e-05

>  <r_epik_Ionization_Penalty_Charging>  (378) 
0

>  <r_epik_Ionization_Penalty_Neutral>  (378) 
3.88421e-05

>  <r_epik_State_Penalty>  (378) 
-0

>  <r_epik_Charging_Adjusted_Penalty>  (378) 
0

>  <i_epik_Tot_Q>  (378) 
0

>  <i_epik_Tot_abs_Q>  (378) 
0

>  <s_lp_Force_Field>  (378) 
OPLS3e

>  <r_lp_Energy>  (378) 
58.3022

>  <b_lp_Chiralities_Consistent>  (378) 
1

>  <s_lp_Variant>  (378) 
118:0-1

>  <s_i_glide_gridfile>  (378) 
pfpi4k_grid

>  <i_i_glide_lignum>  (378) 
43

>  <i_i_glide_rotatable_bonds>  (378) 
3

>  <r_i_docking_score>  (378) 
-3.67114

>  <r_i_glide_ligand_efficiency>  (378) 
-0.146846

>  <r_i_glide_ligand_efficiency_sa>  (378) 
-0.42938

>  <r_i_glide_ligand_efficiency_ln>  (378) 
-0.870171

>  <r_i_glide_gscore>  (378) 
-3.67114

>  <r_i_glide_lipo>  (378) 
-0.427849

>  <r_i_glide_hbond>  (378) 
-0.152289

>  <r_i_glide_metal>  (378) 
-0

>  <r_i_glide_rewards>  (378) 
-1.1154

>  <r_i_glide_evdw>  (378) 
-15.8402

>  <r_i_glide_ecoul>  (378) 
-8.94632

>  <r_i_glide_erotb>  (378) 
0.158356

>  <r_i_glide_esite>  (378) 
0

>  <r_i_glide_emodel>  (378) 
-30.4259

>  <r_i_glide_energy>  (378) 
-24.7866

>  <r_i_glide_einternal>  (378) 
0.904595

>  <r_i_glide_intrahb_reward>  (378) 
-0

>  <i_i_glide_confnum>  (378) 
5

>  <i_i_glide_posenum>  (378) 
34

>  <r_i_glide_eff_state_penalty>  (378) 
0

>  <ligand_id>  (378) 
118

>  <original_smiles>  (378) 
CC1(C)CCCC2(C)C3CCC4(CO)CC(=O)C(=O)C4(C)C3CCC12

>  <smiles>  (378) 
[H]OC1=C([H])C2(C([H])([H])O[H])C([H])([H])C([H])([H])C3([H])C([H])(C([H])([H])C([H])([H])C4([H])C(C([H])([H])[H])(C([H])([H])[H])C([H])([H])C([H])([H])C([H])([H])C34C([H])([H])[H])C2(C([H])([H])[H])C1=O

$$$$
118:0:1
     RDKit          3D

 59 62  0  0  1  0  0  0  0  0999 V2000
    4.9088   -9.4264    2.7920 C   0  0  0  0  0  0  0  0  0  0  0  0
    4.1294   -8.1067    2.6084 C   0  0  0  0  0  0  0  0  0  0  0  0
    3.7164   -8.0425    1.1246 C   0  0  0  0  0  0  0  0  0  0  0  0
    2.8477   -8.2433    3.4563 C   0  0  0  0  0  0  0  0  0  0  0  0
    2.0434   -6.9464    3.5028 C   0  0  0  0  0  0  0  0  0  0  0  0
    2.8837   -5.8606    4.1737 C   0  0  0  0  0  0  0  0  0  0  0  0
    4.2389   -5.5399    3.4706 C   0  0  2  0  0  0  0  0  0  0  0  0
    5.0627   -4.7802    4.5504 C   0  0  0  0  0  0  0  0  0  0  0  0
    4.0687   -4.6273    2.1882 C   0  0  1  0  0  0  0  0  0  0  0  0
    3.5059   -3.2272    2.4943 C   0  0  0  0  0  0  0  0  0  0  0  0
    3.2152   -2.4380    1.2208 C   0  0  0  0  0  0  0  0  0  0  0  0
    4.4186   -2.2301    0.2785 C   0  0  1  0  0  0  0  0  0  0  0  0
    3.8506   -1.5622   -1.0217 C   0  0  0  0  0  0  0  0  0  0  0  0
    4.8230   -1.1572   -1.9782 O   0  0  0  0  0  0  0  0  0  0  0  0
    5.4932   -1.2958    0.8139 C   0  0  0  0  0  0  0  0  0  0  0  0
    6.7211   -1.6963    0.4497 C   0  0  0  0  0  0  0  0  0  0  0  0
    7.8947   -1.0675    0.6016 O   0  0  0  0  0  0  0  0  0  0  0  0
    6.6143   -2.9591   -0.2567 C   0  0  0  0  0  0  0  0  0  0  0  0
    7.4638   -3.4551   -0.9906 O   0  0  0  0  0  0  0  0  0  0  0  0
    5.2298   -3.5658    0.0443 C   0  0  2  0  0  0  0  0  0  0  0  0
    4.6945   -4.3951   -1.1379 C   0  0  0  0  0  0  0  0  0  0  0  0
    5.3857   -4.4324    1.3706 C   0  0  2  0  0  0  0  0  0  0  0  0
    6.1350   -5.7677    1.1314 C   0  0  0  0  0  0  0  0  0  0  0  0
    6.3081   -6.6119    2.3970 C   0  0  0  0  0  0  0  0  0  0  0  0
    4.9826   -6.8885    3.1429 C   0  0  2  0  0  0  0  0  0  0  0  0
    4.2873  -10.2905    2.5553 H   0  0  0  0  0  0  0  0  0  0  0  0
    5.2482   -9.5479    3.8224 H   0  0  0  0  0  0  0  0  0  0  0  0
    5.7836   -9.4806    2.1467 H   0  0  0  0  0  0  0  0  0  0  0  0
    3.2483   -7.1000    0.8625 H   0  0  0  0  0  0  0  0  0  0  0  0
    2.9911   -8.8285    0.9097 H   0  0  0  0  0  0  0  0  0  0  0  0
    4.5577   -8.2100    0.4534 H   0  0  0  0  0  0  0  0  0  0  0  0
    2.2167   -9.0507    3.0807 H   0  0  0  0  0  0  0  0  0  0  0  0
    3.1064   -8.5245    4.4793 H   0  0  0  0  0  0  0  0  0  0  0  0
    1.7146   -6.6401    2.5121 H   0  0  0  0  0  0  0  0  0  0  0  0
    1.1378   -7.1100    4.0886 H   0  0  0  0  0  0  0  0  0  0  0  0
    2.2731   -4.9738    4.2970 H   0  0  0  0  0  0  0  0  0  0  0  0
    3.0878   -6.1982    5.1935 H   0  0  0  0  0  0  0  0  0  0  0  0
    6.0177   -4.4211    4.1733 H   0  0  0  0  0  0  0  0  0  0  0  0
    5.2835   -5.4260    5.4004 H   0  0  0  0  0  0  0  0  0  0  0  0
    4.5253   -3.9198    4.9490 H   0  0  0  0  0  0  0  0  0  0  0  0
    3.3470   -5.1082    1.5350 H   0  0  0  0  0  0  0  0  0  0  0  0
    2.5767   -3.2977    3.0544 H   0  0  0  0  0  0  0  0  0  0  0  0
    4.2036   -2.6495    3.1021 H   0  0  0  0  0  0  0  0  0  0  0  0
    2.4312   -2.9661    0.6802 H   0  0  0  0  0  0  0  0  0  0  0  0
    2.7798   -1.4728    1.4847 H   0  0  0  0  0  0  0  0  0  0  0  0
    3.2902   -0.6696   -0.7508 H   0  0  0  0  0  0  0  0  0  0  0  0
    3.1198   -2.2120   -1.5075 H   0  0  0  0  0  0  0  0  0  0  0  0
    4.3753   -0.7929   -2.7297 H   0  0  0  0  0  0  0  0  0  0  0  0
    5.2648   -0.3772    1.3236 H   0  0  0  0  0  0  0  0  0  0  0  0
    7.7380   -0.2491    1.0651 H   0  0  0  0  0  0  0  0  0  0  0  0
    3.6886   -4.7521   -0.9204 H   0  0  0  0  0  0  0  0  0  0  0  0
    5.3179   -5.2530   -1.3784 H   0  0  0  0  0  0  0  0  0  0  0  0
    4.6588   -3.8365   -2.0715 H   0  0  0  0  0  0  0  0  0  0  0  0
    6.0511   -3.8659    2.0217 H   0  0  0  0  0  0  0  0  0  0  0  0
    5.6151   -6.3663    0.3976 H   0  0  0  0  0  0  0  0  0  0  0  0
    7.1288   -5.5810    0.7206 H   0  0  0  0  0  0  0  0  0  0  0  0
    6.8078   -7.5425    2.1445 H   0  0  0  0  0  0  0  0  0  0  0  0
    6.9992   -6.0981    3.0659 H   0  0  0  0  0  0  0  0  0  0  0  0
    5.3079   -7.2615    4.1105 H   0  0  0  0  0  0  0  0  0  0  0  0
  1  2  1  0
  1 26  1  0
  1 27  1  0
  1 28  1  0
  2 25  1  0
  2  3  1  0
  2  4  1  0
  3 29  1  0
  3 30  1  0
  3 31  1  0
  4  5  1  0
  4 32  1  0
  4 33  1  0
  5  6  1  0
  5 34  1  0
  5 35  1  0
  6  7  1  0
  6 36  1  0
  6 37  1  0
  7 25  1  0
  7  8  1  1
  7  9  1  0
  8 38  1  0
  8 39  1  0
  8 40  1  0
  9 22  1  0
  9 10  1  0
  9 41  1  6
 10 11  1  0
 10 42  1  0
 10 43  1  0
 11 44  1  0
 11 45  1  0
 11 12  1  0
 12 15  1  0
 12 13  1  6
 12 20  1  0
 13 14  1  0
 13 46  1  0
 13 47  1  0
 14 48  1  0
 15 49  1  0
 15 16  2  0
 16 18  1  0
 16 17  1  0
 17 50  1  0
 18 20  1  0
 18 19  2  0
 20 21  1  6
 20 22  1  0
 21 51  1  0
 21 52  1  0
 21 53  1  0
 22 23  1  0
 22 54  1  1
 23 24  1  0
 23 55  1  0
 23 56  1  0
 24 25  1  0
 24 57  1  0
 24 58  1  0
 25 59  1  1
M  END
>  <i_m_ct_stereo_status>  (379) 
1

>  <s_m_source_file>  (379) 
/var/tmp/pbs.5076255.sched01/tmpcwktr4ti/1290j0z1rin.sdf

>  <i_m_source_file_index>  (379) 
43

>  <i_lp_mmshare_version>  (379) 
48012

>  <i_f3d_flags>  (379) 
0

>  <s_epik_input>  (379) 
W0NIMl0xW0NIMl1bQ0gyXUMoW0NIM10pKFtDSDNdKVtDQEhdMltDSDJdW0NIMl1bQ0BIXShbQ0BIXTNbQ0BAXTEyW0NIM10pW0NAQF00KFtDSDNdKVtDQF0oW0NIMl1bQ0gyXTMpKFtDSDJdW09IXSlbQ0gyXUMoPU8pQzQ9Tw==

>  <s_epik_cmdline>  (379) 
J2VwaWtfcHl0aG9uJywgJy1waHQnLCAnMi4wJywgJy1waCcsICc3LjAnLCAnLXRuJywgJzgnLCAnLW1hJywgJzIwMCcsICctaW1hZScsICc8aW5maWxlLm1hZT4nLCAnLW9tYWUnLCAnPG91dGZpbGUubWFlPic=

>  <r_lp_tautomer_probability>  (379) 
1

>  <r_epik_Ionization_Penalty>  (379) 
3.88421e-05

>  <r_epik_Ionization_Penalty_Charging>  (379) 
0

>  <r_epik_Ionization_Penalty_Neutral>  (379) 
3.88421e-05

>  <r_epik_State_Penalty>  (379) 
-0

>  <r_epik_Charging_Adjusted_Penalty>  (379) 
0

>  <i_epik_Tot_Q>  (379) 
0

>  <i_epik_Tot_abs_Q>  (379) 
0

>  <s_lp_Force_Field>  (379) 
OPLS3e

>  <r_lp_Energy>  (379) 
58.3022

>  <b_lp_Chiralities_Consistent>  (379) 
1

>  <s_lp_Variant>  (379) 
118:0-1

>  <s_i_glide_gridfile>  (379) 
pfpi4k_grid

>  <i_i_glide_lignum>  (379) 
43

>  <i_i_glide_rotatable_bonds>  (379) 
3

>  <r_i_docking_score>  (379) 
-3.02357

>  <r_i_glide_ligand_efficiency>  (379) 
-0.120943

>  <r_i_glide_ligand_efficiency_sa>  (379) 
-0.353639

>  <r_i_glide_ligand_efficiency_ln>  (379) 
-0.716676

>  <r_i_glide_gscore>  (379) 
-3.02357

>  <r_i_glide_lipo>  (379) 
-0.314672

>  <r_i_glide_hbond>  (379) 
0

>  <r_i_glide_metal>  (379) 
-0

>  <r_i_glide_rewards>  (379) 
-1.1231

>  <r_i_glide_evdw>  (379) 
-18.1674

>  <r_i_glide_ecoul>  (379) 
-5.57188

>  <r_i_glide_erotb>  (379) 
0.158356

>  <r_i_glide_esite>  (379) 
0

>  <r_i_glide_emodel>  (379) 
-27.7328

>  <r_i_glide_energy>  (379) 
-23.7393

>  <r_i_glide_einternal>  (379) 
2.08722

>  <r_i_glide_intrahb_reward>  (379) 
-0

>  <i_i_glide_confnum>  (379) 
5

>  <i_i_glide_posenum>  (379) 
1

>  <r_i_glide_eff_state_penalty>  (379) 
0

>  <ligand_id>  (379) 
118

>  <original_smiles>  (379) 
CC1(C)CCCC2(C)C3CCC4(CO)CC(=O)C(=O)C4(C)C3CCC12

>  <smiles>  (379) 
[H]OC1=C([H])C2(C([H])([H])O[H])C([H])([H])C([H])([H])C3([H])C([H])(C([H])([H])C([H])([H])C4([H])C(C([H])([H])[H])(C([H])([H])[H])C([H])([H])C([H])([H])C([H])([H])C34C([H])([H])[H])C2(C([H])([H])[H])C1=O

$$$$
118:0:2
     RDKit          3D

 59 62  0  0  1  0  0  0  0  0999 V2000
    3.7943   -0.7677   -4.2724 C   0  0  0  0  0  0  0  0  0  0  0  0
    3.8247   -1.8616   -3.1879 C   0  0  0  0  0  0  0  0  0  0  0  0
    2.4041   -2.0324   -2.6474 C   0  0  0  0  0  0  0  0  0  0  0  0
    4.1369   -3.1615   -3.9022 C   0  0  0  0  0  0  0  0  0  0  0  0
    4.4389   -4.2172   -2.8774 C   0  0  0  0  0  0  0  0  0  0  0  0
    5.6537   -3.9340   -2.0295 C   0  0  0  0  0  0  0  0  0  0  0  0
    5.4683   -2.6805   -1.1571 C   0  0  2  0  0  0  0  0  0  0  0  0
    6.9188   -2.3495   -0.7092 C   0  0  0  0  0  0  0  0  0  0  0  0
    4.5410   -2.9056    0.1090 C   0  0  1  0  0  0  0  0  0  0  0  0
    5.1078   -3.9256    1.1196 C   0  0  0  0  0  0  0  0  0  0  0  0
    4.1192   -4.2188    2.2425 C   0  0  0  0  0  0  0  0  0  0  0  0
    3.6696   -2.9863    3.0643 C   0  0  1  0  0  0  0  0  0  0  0  0
    2.5343   -3.4497    4.0320 C   0  0  0  0  0  0  0  0  0  0  0  0
    2.9480   -4.4948    4.8946 O   0  0  0  0  0  0  0  0  0  0  0  0
    4.7366   -2.3445    3.9400 C   0  0  0  0  0  0  0  0  0  0  0  0
    4.6006   -1.0224    4.0083 C   0  0  0  0  0  0  0  0  0  0  0  0
    5.2771   -0.1393    4.7517 O   0  0  0  0  0  0  0  0  0  0  0  0
    3.5466   -0.6044    3.1060 C   0  0  0  0  0  0  0  0  0  0  0  0
    2.9771    0.4885    3.0899 O   0  0  0  0  0  0  0  0  0  0  0  0
    3.2615   -1.7650    2.1469 C   0  0  2  0  0  0  0  0  0  0  0  0
    1.7711   -1.7821    1.7559 C   0  0  0  0  0  0  0  0  0  0  0  0
    4.2423   -1.5989    0.9004 C   0  0  2  0  0  0  0  0  0  0  0  0
    3.8084   -0.4695   -0.0511 C   0  0  0  0  0  0  0  0  0  0  0  0
    4.6990   -0.2720   -1.2835 C   0  0  0  0  0  0  0  0  0  0  0  0
    4.9200   -1.5507   -2.0877 C   0  0  2  0  0  0  0  0  0  0  0  0
    3.1308   -1.0464   -5.0901 H   0  0  0  0  0  0  0  0  0  0  0  0
    4.7811   -0.6278   -4.7007 H   0  0  0  0  0  0  0  0  0  0  0  0
    3.4415    0.1882   -3.8890 H   0  0  0  0  0  0  0  0  0  0  0  0
    2.2949   -2.6750   -1.7747 H   0  0  0  0  0  0  0  0  0  0  0  0
    1.7154   -2.4284   -3.3999 H   0  0  0  0  0  0  0  0  0  0  0  0
    2.0884   -1.0508   -2.3300 H   0  0  0  0  0  0  0  0  0  0  0  0
    3.3482   -3.4626   -4.5836 H   0  0  0  0  0  0  0  0  0  0  0  0
    4.9893   -3.0503   -4.5946 H   0  0  0  0  0  0  0  0  0  0  0  0
    3.5692   -4.2347   -2.2131 H   0  0  0  0  0  0  0  0  0  0  0  0
    4.6184   -5.1153   -3.4248 H   0  0  0  0  0  0  0  0  0  0  0  0
    5.8091   -4.8138   -1.4070 H   0  0  0  0  0  0  0  0  0  0  0  0
    6.5467   -3.8393   -2.6673 H   0  0  0  0  0  0  0  0  0  0  0  0
    6.9676   -1.5012   -0.0311 H   0  0  0  0  0  0  0  0  0  0  0  0
    7.5464   -2.1356   -1.5742 H   0  0  0  0  0  0  0  0  0  0  0  0
    7.3933   -3.1971   -0.2102 H   0  0  0  0  0  0  0  0  0  0  0  0
    3.5843   -3.3024   -0.2189 H   0  0  0  0  0  0  0  0  0  0  0  0
    5.3329   -4.8748    0.6414 H   0  0  0  0  0  0  0  0  0  0  0  0
    6.0338   -3.5601    1.5572 H   0  0  0  0  0  0  0  0  0  0  0  0
    3.2375   -4.6874    1.8017 H   0  0  0  0  0  0  0  0  0  0  0  0
    4.5553   -4.9721    2.9011 H   0  0  0  0  0  0  0  0  0  0  0  0
    1.6687   -3.8200    3.4843 H   0  0  0  0  0  0  0  0  0  0  0  0
    2.1852   -2.6238    4.6562 H   0  0  0  0  0  0  0  0  0  0  0  0
    3.6704   -4.1953    5.4174 H   0  0  0  0  0  0  0  0  0  0  0  0
    5.4680   -2.9317    4.4842 H   0  0  0  0  0  0  0  0  0  0  0  0
    4.8707    0.7004    4.5999 H   0  0  0  0  0  0  0  0  0  0  0  0
    1.5753   -2.6086    1.0801 H   0  0  0  0  0  0  0  0  0  0  0  0
    1.4679   -0.8444    1.3086 H   0  0  0  0  0  0  0  0  0  0  0  0
    1.1002   -1.8518    2.6060 H   0  0  0  0  0  0  0  0  0  0  0  0
    5.2056   -1.2731    1.2962 H   0  0  0  0  0  0  0  0  0  0  0  0
    2.8210   -0.6762   -0.3951 H   0  0  0  0  0  0  0  0  0  0  0  0
    3.7658    0.4756    0.4861 H   0  0  0  0  0  0  0  0  0  0  0  0
    4.3248    0.5265   -1.9242 H   0  0  0  0  0  0  0  0  0  0  0  0
    5.6713    0.0287   -0.9109 H   0  0  0  0  0  0  0  0  0  0  0  0
    5.7908   -1.3325   -2.7276 H   0  0  0  0  0  0  0  0  0  0  0  0
  1  2  1  0
  1 26  1  0
  1 27  1  0
  1 28  1  0
  2 25  1  0
  2  3  1  0
  2  4  1  0
  3 29  1  0
  3 30  1  0
  3 31  1  0
  4  5  1  0
  4 32  1  0
  4 33  1  0
  5  6  1  0
  5 34  1  0
  5 35  1  0
  6  7  1  0
  6 36  1  0
  6 37  1  0
  7 25  1  0
  7  8  1  1
  7  9  1  0
  8 38  1  0
  8 39  1  0
  8 40  1  0
  9 22  1  0
  9 10  1  0
  9 41  1  6
 10 11  1  0
 10 42  1  0
 10 43  1  0
 11 44  1  0
 11 45  1  0
 11 12  1  0
 12 15  1  0
 12 13  1  1
 12 20  1  0
 13 14  1  0
 13 46  1  0
 13 47  1  0
 14 48  1  0
 15 49  1  0
 15 16  2  0
 16 18  1  0
 16 17  1  0
 17 50  1  0
 18 20  1  0
 18 19  2  0
 20 21  1  6
 20 22  1  0
 21 51  1  0
 21 52  1  0
 21 53  1  0
 22 23  1  0
 22 54  1  1
 23 24  1  0
 23 55  1  0
 23 56  1  0
 24 25  1  0
 24 57  1  0
 24 58  1  0
 25 59  1  6
M  END
>  <i_m_ct_stereo_status>  (380) 
1

>  <s_m_source_file>  (380) 
/var/tmp/pbs.5076255.sched01/tmpcwktr4ti/1290j0z1rin.sdf

>  <i_m_source_file_index>  (380) 
43

>  <i_lp_mmshare_version>  (380) 
48012

>  <i_f3d_flags>  (380) 
0

>  <s_epik_input>  (380) 
W0NIMl0xW0NIMl1bQ0gyXUMoW0NIM10pKFtDSDNdKVtDQEhdMltDSDJdW0NIMl1bQ0BIXShbQ0BIXTNbQ0BAXTEyW0NIM10pW0NAQF00KFtDSDNdKVtDQF0oW0NIMl1bQ0gyXTMpKFtDSDJdW09IXSlbQ0gyXUMoPU8pQzQ9Tw==

>  <s_epik_cmdline>  (380) 
J2VwaWtfcHl0aG9uJywgJy1waHQnLCAnMi4wJywgJy1waCcsICc3LjAnLCAnLXRuJywgJzgnLCAnLW1hJywgJzIwMCcsICctaW1hZScsICc8aW5maWxlLm1hZT4nLCAnLW9tYWUnLCAnPG91dGZpbGUubWFlPic=

>  <r_lp_tautomer_probability>  (380) 
1

>  <r_epik_Ionization_Penalty>  (380) 
3.88421e-05

>  <r_epik_Ionization_Penalty_Charging>  (380) 
0

>  <r_epik_Ionization_Penalty_Neutral>  (380) 
3.88421e-05

>  <r_epik_State_Penalty>  (380) 
-0

>  <r_epik_Charging_Adjusted_Penalty>  (380) 
0

>  <i_epik_Tot_Q>  (380) 
0

>  <i_epik_Tot_abs_Q>  (380) 
0

>  <s_lp_Force_Field>  (380) 
OPLS3e

>  <r_lp_Energy>  (380) 
58.3022

>  <b_lp_Chiralities_Consistent>  (380) 
1

>  <s_lp_Variant>  (380) 
118:0-1

>  <s_i_glide_gridfile>  (380) 
pfpi4k_grid

>  <i_i_glide_lignum>  (380) 
43

>  <i_i_glide_rotatable_bonds>  (380) 
3

>  <r_i_docking_score>  (380) 
-1.66256

>  <r_i_glide_ligand_efficiency>  (380) 
-0.0665023

>  <r_i_glide_ligand_efficiency_sa>  (380) 
-0.194454

>  <r_i_glide_ligand_efficiency_ln>  (380) 
-0.394076

>  <r_i_glide_gscore>  (380) 
-1.66256

>  <r_i_glide_lipo>  (380) 
-0.502674

>  <r_i_glide_hbond>  (380) 
0

>  <r_i_glide_metal>  (380) 
-0

>  <r_i_glide_rewards>  (380) 
-1.05919

>  <r_i_glide_evdw>  (380) 
-4.19495

>  <r_i_glide_ecoul>  (380) 
-0.328688

>  <r_i_glide_erotb>  (380) 
0.158356

>  <r_i_glide_esite>  (380) 
0

>  <r_i_glide_emodel>  (380) 
-5.3507

>  <r_i_glide_energy>  (380) 
-4.52364

>  <r_i_glide_einternal>  (380) 
2.25704

>  <r_i_glide_intrahb_reward>  (380) 
-0

>  <i_i_glide_confnum>  (380) 
3

>  <i_i_glide_posenum>  (380) 
2

>  <r_i_glide_eff_state_penalty>  (380) 
0

>  <ligand_id>  (380) 
118

>  <original_smiles>  (380) 
CC1(C)CCCC2(C)C3CCC4(CO)CC(=O)C(=O)C4(C)C3CCC12

>  <smiles>  (380) 
[H]OC1=C([H])C2(C([H])([H])O[H])C([H])([H])C([H])([H])C3([H])C([H])(C([H])([H])C([H])([H])C4([H])C(C([H])([H])[H])(C([H])([H])[H])C([H])([H])C([H])([H])C([H])([H])C34C([H])([H])[H])C2(C([H])([H])[H])C1=O

$$$$
